MODEL 1
REMARK VINA RESULT:      -9.5      0.000      0.000
REMARK  Name = C:\Users\Docking\Desktop\test protocol\1iep_ligandH.pdb
REMARK  8 active torsions:
REMARK  status: ('A' for Active; 'I' for Inactive)
REMARK    1  A    between atoms: _5  and  _11
REMARK    2  A    between atoms: _19  and  _21
REMARK    3  A    between atoms: _22  and  _66
REMARK    4  A    between atoms: _27  and  _30
REMARK    5  A    between atoms: _32  and  _33
REMARK    6  A    between atoms: _38  and  _43
REMARK    7  A    between atoms: _43  and  _46
REMARK    8  A    between atoms: _53  and  _55
REMARK                            x       y       z     vdW  Elec       q    Type
REMARK                         _______ _______ _______ _____ _____    ______ ____
ROOT
ATOM     10  C   UNL     1      20.373  38.771  39.482  0.00  0.00    +0.038 A 
ATOM     11  C   UNL     1      20.279  37.523  38.815  0.00  0.00    +0.047 A 
ATOM     12  C   UNL     1      19.508  36.425  39.377  0.00  0.00    +0.035 A 
ATOM     32  C   UNL     1      18.843  36.635  40.621  0.00  0.00    +0.024 A 
ATOM     33  C   UNL     1      18.929  37.897  41.313  0.00  0.00    +0.007 A 
ATOM     34  C   UNL     1      19.690  38.982  40.764  0.00  0.00    -0.029 A 
ATOM     35  C   UNL     1      19.753  40.311  41.553  0.00  0.00    +0.045 C 
ENDROOT
BRANCH  10   9
ATOM      4  C   UNL     1      20.853  42.504  36.503  0.00  0.00    +0.077 A 
ATOM      5  C   UNL     1      19.494  42.397  36.055  0.00  0.00    +0.048 A 
ATOM      6  C   UNL     1      18.707  41.364  36.612  0.00  0.00    +0.116 A 
ATOM      7  N   UNL     1      19.249  40.507  37.545  0.00  0.00    -0.223 NA
ATOM      8  C   UNL     1      20.564  40.636  37.953  0.00  0.00    +0.220 A 
ATOM      9  N   UNL     1      21.127  39.790  38.896  0.00  0.00    -0.283 N 
ATOM     36  H   UNL     1      22.103  39.914  39.165  0.00  0.00    +0.155 HD
ATOM     37  N   UNL     1      21.336  41.614  37.436  0.00  0.00    -0.214 NA
BRANCH   4   3
ATOM      1  C   UNL     1      23.572  44.387  34.415  0.00  0.00    +0.020 A 
ATOM      2  C   UNL     1      22.666  43.349  34.849  0.00  0.00    +0.013 A 
ATOM      3  C   UNL     1      21.809  43.546  36.011  0.00  0.00    +0.019 A 
ATOM     38  C   UNL     1      21.892  44.815  36.717  0.00  0.00    +0.120 A 
ATOM     39  N   UNL     1      22.775  45.797  36.277  0.00  0.00    -0.263 NA
ATOM     40  C   UNL     1      23.606  45.618  35.161  0.00  0.00    +0.111 A 
ENDBRANCH   4   3
ENDBRANCH  10   9
BRANCH  12  13
ATOM     13  N   UNL     1      19.383  35.133  38.750  0.00  0.00    -0.281 N 
ATOM     14  C   UNL     1      20.330  34.125  38.680  0.00  0.00    +0.248 C 
ATOM     30  O   UNL     1      21.510  34.265  38.964  0.00  0.00    -0.270 OA
ATOM     31  H   UNL     1      18.487  34.938  38.303  0.00  0.00    +0.155 HD
BRANCH  14  15
ATOM     15  C   UNL     1      19.908  32.769  38.213  0.00  0.00    +0.037 A 
ATOM     16  C   UNL     1      18.761  32.596  37.319  0.00  0.00    +0.013 A 
ATOM     17  C   UNL     1      18.365  31.276  36.898  0.00  0.00    +0.005 A 
ATOM     18  C   UNL     1      19.119  30.117  37.370  0.00  0.00    -0.033 A 
ATOM     28  C   UNL     1      20.257  30.318  38.253  0.00  0.00    +0.005 A 
ATOM     29  C   UNL     1      20.647  31.610  38.668  0.00  0.00    +0.013 A 
BRANCH  18  19
ATOM     19  C   UNL     1      18.755  28.670  36.989  0.00  0.00    +0.119 C 
BRANCH  19  20
ATOM     20  N   UNL     1      19.150  28.202  35.626  0.00  0.00    -0.302 NA
ATOM     21  C   UNL     1      20.644  28.403  35.360  0.00  0.00    +0.066 C 
ATOM     22  C   UNL     1      21.044  27.888  33.940  0.00  0.00    -0.064 C 
ATOM     23  N   UNL     1      20.204  28.608  32.884  0.00  0.00    +0.379 N 
ATOM     24  C   UNL     1      20.618  28.168  31.543  0.00  0.00    -0.096 C 
ATOM     25  H   UNL     1      20.422  29.698  32.964  0.00  0.00    -0.082 HD
ATOM     26  C   UNL     1      18.716  28.415  33.142  0.00  0.00    -0.064 C 
ATOM     27  C   UNL     1      18.335  28.904  34.568  0.00  0.00    +0.066 C 
ENDBRANCH  19  20
ENDBRANCH  18  19
ENDBRANCH  14  15
ENDBRANCH  12  13
TORSDOF 6
ENDMDL
MODEL 2
REMARK VINA RESULT:      -9.4     14.199     19.759
REMARK  Name = C:\Users\Docking\Desktop\test protocol\1iep_ligandH.pdb
REMARK  8 active torsions:
REMARK  status: ('A' for Active; 'I' for Inactive)
REMARK    1  A    between atoms: _5  and  _11
REMARK    2  A    between atoms: _19  and  _21
REMARK    3  A    between atoms: _22  and  _66
REMARK    4  A    between atoms: _27  and  _30
REMARK    5  A    between atoms: _32  and  _33
REMARK    6  A    between atoms: _38  and  _43
REMARK    7  A    between atoms: _43  and  _46
REMARK    8  A    between atoms: _53  and  _55
REMARK                            x       y       z     vdW  Elec       q    Type
REMARK                         _______ _______ _______ _____ _____    ______ ____
ROOT
ATOM     10  C   UNL     1      22.458  38.125  20.489  0.00  0.00    +0.038 A 
ATOM     11  C   UNL     1      22.524  39.428  21.044  0.00  0.00    +0.047 A 
ATOM     12  C   UNL     1      22.644  39.630  22.480  0.00  0.00    +0.035 A 
ATOM     32  C   UNL     1      22.697  38.480  23.321  0.00  0.00    +0.024 A 
ATOM     33  C   UNL     1      22.630  37.148  22.774  0.00  0.00    +0.007 A 
ATOM     34  C   UNL     1      22.509  36.943  21.359  0.00  0.00    -0.029 A 
ATOM     35  C   UNL     1      22.435  35.493  20.828  0.00  0.00    +0.045 C 
ENDROOT
BRANCH  10   9
ATOM      4  C   UNL     1      19.898  38.173  16.429  0.00  0.00    +0.077 A 
ATOM      5  C   UNL     1      18.681  38.466  17.130  0.00  0.00    +0.048 A 
ATOM      6  C   UNL     1      18.756  38.589  18.536  0.00  0.00    +0.116 A 
ATOM      7  N   UNL     1      19.963  38.430  19.182  0.00  0.00    -0.223 NA
ATOM      8  C   UNL     1      21.117  38.146  18.476  0.00  0.00    +0.220 A 
ATOM      9  N   UNL     1      22.343  37.990  19.104  0.00  0.00    -0.283 N 
ATOM     36  H   UNL     1      23.171  37.774  18.548  0.00  0.00    +0.155 HD
ATOM     37  N   UNL     1      21.072  38.022  17.133  0.00  0.00    -0.214 NA
BRANCH   4   3
ATOM      1  C   UNL     1      20.717  38.775  12.652  0.00  0.00    +0.020 A 
ATOM      2  C   UNL     1      20.665  38.974  14.082  0.00  0.00    +0.013 A 
ATOM      3  C   UNL     1      19.982  38.016  14.943  0.00  0.00    +0.019 A 
ATOM     38  C   UNL     1      19.359  36.858  14.320  0.00  0.00    +0.120 A 
ATOM     39  N   UNL     1      19.424  36.694  12.940  0.00  0.00    -0.263 NA
ATOM     40  C   UNL     1      20.077  37.610  12.101  0.00  0.00    +0.111 A 
ENDBRANCH   4   3
ENDBRANCH  10   9
BRANCH  12  13
ATOM     13  N   UNL     1      22.707  40.929  23.101  0.00  0.00    -0.281 N 
ATOM     14  C   UNL     1      21.693  41.865  23.224  0.00  0.00    +0.248 C 
ATOM     30  O   UNL     1      20.629  41.813  22.625  0.00  0.00    -0.270 OA
ATOM     31  H   UNL     1      23.609  41.191  23.499  0.00  0.00    +0.155 HD
BRANCH  14  15
ATOM     15  C   UNL     1      21.896  43.035  24.131  0.00  0.00    +0.037 A 
ATOM     16  C   UNL     1      20.851  44.045  24.314  0.00  0.00    +0.013 A 
ATOM     17  C   UNL     1      21.079  45.173  25.182  0.00  0.00    +0.005 A 
ATOM     18  C   UNL     1      22.359  45.296  25.875  0.00  0.00    -0.033 A 
ATOM     28  C   UNL     1      23.377  44.277  25.679  0.00  0.00    +0.005 A 
ATOM     29  C   UNL     1      23.157  43.171  24.829  0.00  0.00    +0.013 A 
BRANCH  18  19
ATOM     19  C   UNL     1      22.698  46.478  26.803  0.00  0.00    +0.119 C 
BRANCH  19  20
ATOM     20  N   UNL     1      23.416  46.164  28.075  0.00  0.00    -0.302 NA
ATOM     21  C   UNL     1      22.490  46.240  29.292  0.00  0.00    +0.066 C 
ATOM     22  C   UNL     1      23.253  45.887  30.610  0.00  0.00    -0.064 C 
ATOM     23  N   UNL     1      24.443  46.833  30.776  0.00  0.00    +0.379 N 
ATOM     24  C   UNL     1      25.129  46.542  32.044  0.00  0.00    -0.096 C 
ATOM     25  H   UNL     1      24.043  47.872  30.838  0.00  0.00    -0.082 HD
ATOM     26  C   UNL     1      25.368  46.766  29.569  0.00  0.00    -0.064 C 
ATOM     27  C   UNL     1      24.593  47.090  28.261  0.00  0.00    +0.066 C 
ENDBRANCH  19  20
ENDBRANCH  18  19
ENDBRANCH  14  15
ENDBRANCH  12  13
TORSDOF 6
ENDMDL
MODEL 3
REMARK VINA RESULT:      -9.3      6.343     12.515
REMARK  Name = C:\Users\Docking\Desktop\test protocol\1iep_ligandH.pdb
REMARK  8 active torsions:
REMARK  status: ('A' for Active; 'I' for Inactive)
REMARK    1  A    between atoms: _5  and  _11
REMARK    2  A    between atoms: _19  and  _21
REMARK    3  A    between atoms: _22  and  _66
REMARK    4  A    between atoms: _27  and  _30
REMARK    5  A    between atoms: _32  and  _33
REMARK    6  A    between atoms: _38  and  _43
REMARK    7  A    between atoms: _43  and  _46
REMARK    8  A    between atoms: _53  and  _55
REMARK                            x       y       z     vdW  Elec       q    Type
REMARK                         _______ _______ _______ _____ _____    ______ ____
ROOT
ATOM     10  C   UNL     1      22.288  43.573  36.182  0.00  0.00    +0.038 A 
ATOM     11  C   UNL     1      22.189  43.506  34.769  0.00  0.00    +0.047 A 
ATOM     12  C   UNL     1      22.665  44.593  33.928  0.00  0.00    +0.035 A 
ATOM     32  C   UNL     1      23.240  45.734  34.560  0.00  0.00    +0.024 A 
ATOM     33  C   UNL     1      23.349  45.819  35.995  0.00  0.00    +0.007 A 
ATOM     34  C   UNL     1      22.878  44.751  36.830  0.00  0.00    -0.029 A 
ATOM     35  C   UNL     1      23.014  44.900  38.363  0.00  0.00    +0.045 C 
ENDROOT
BRANCH  10   9
ATOM      4  C   UNL     1      18.830  40.511  37.486  0.00  0.00    +0.077 A 
ATOM      5  C   UNL     1      17.878  41.117  36.600  0.00  0.00    +0.048 A 
ATOM      6  C   UNL     1      18.316  42.219  35.832  0.00  0.00    +0.116 A 
ATOM      7  N   UNL     1      19.612  42.672  35.948  0.00  0.00    -0.223 NA
ATOM      8  C   UNL     1      20.505  42.066  36.813  0.00  0.00    +0.220 A 
ATOM      9  N   UNL     1      21.815  42.500  36.940  0.00  0.00    -0.283 N 
ATOM     36  H   UNL     1      22.440  42.031  37.595  0.00  0.00    +0.155 HD
ATOM     37  N   UNL     1      20.110  41.013  37.559  0.00  0.00    -0.214 NA
BRANCH   4   3
ATOM      1  C   UNL     1      19.115  37.142  39.452  0.00  0.00    +0.020 A 
ATOM      2  C   UNL     1      19.464  38.253  38.598  0.00  0.00    +0.013 A 
ATOM      3  C   UNL     1      18.519  39.337  38.361  0.00  0.00    +0.019 A 
ATOM     38  C   UNL     1      17.218  39.266  39.009  0.00  0.00    +0.120 A 
ATOM     39  N   UNL     1      16.909  38.182  39.825  0.00  0.00    -0.263 NA
ATOM     40  C   UNL     1      17.810  37.133  40.059  0.00  0.00    +0.111 A 
ENDBRANCH   4   3
ENDBRANCH  10   9
BRANCH  12  13
ATOM     13  N   UNL     1      22.583  44.585  32.488  0.00  0.00    -0.281 N 
ATOM     14  C   UNL     1      22.223  45.627  31.649  0.00  0.00    +0.248 C 
ATOM     30  O   UNL     1      21.709  46.670  32.025  0.00  0.00    -0.270 OA
ATOM     31  H   UNL     1      22.818  43.703  32.032  0.00  0.00    +0.155 HD
BRANCH  14  15
ATOM     15  C   UNL     1      22.456  45.484  30.180  0.00  0.00    +0.037 A 
ATOM     16  C   UNL     1      22.033  46.525  29.239  0.00  0.00    +0.013 A 
ATOM     17  C   UNL     1      22.254  46.354  27.825  0.00  0.00    +0.005 A 
ATOM     18  C   UNL     1      22.903  45.137  27.343  0.00  0.00    -0.033 A 
ATOM     28  C   UNL     1      23.317  44.123  28.299  0.00  0.00    +0.005 A 
ATOM     29  C   UNL     1      23.101  44.286  29.686  0.00  0.00    +0.013 A 
BRANCH  18  19
ATOM     19  C   UNL     1      23.160  44.861  25.850  0.00  0.00    +0.119 C 
BRANCH  19  20
ATOM     20  N   UNL     1      22.716  43.540  25.312  0.00  0.00    -0.302 NA
ATOM     21  C   UNL     1      23.887  42.724  24.756  0.00  0.00    +0.066 C 
ATOM     22  C   UNL     1      23.408  41.336  24.218  0.00  0.00    -0.064 C 
ATOM     23  N   UNL     1      22.338  41.549  23.146  0.00  0.00    +0.379 N 
ATOM     24  C   UNL     1      21.928  40.248  22.598  0.00  0.00    -0.096 C 
ATOM     25  H   UNL     1      22.801  42.135  22.318  0.00  0.00    -0.082 HD
ATOM     26  C   UNL     1      21.172  42.362  23.690  0.00  0.00    -0.064 C 
ATOM     27  C   UNL     1      21.662  43.727  24.249  0.00  0.00    +0.066 C 
ENDBRANCH  19  20
ENDBRANCH  18  19
ENDBRANCH  14  15
ENDBRANCH  12  13
TORSDOF 6
ENDMDL
MODEL 4
REMARK VINA RESULT:      -9.3      2.589     12.215
REMARK  Name = C:\Users\Docking\Desktop\test protocol\1iep_ligandH.pdb
REMARK  8 active torsions:
REMARK  status: ('A' for Active; 'I' for Inactive)
REMARK    1  A    between atoms: _5  and  _11
REMARK    2  A    between atoms: _19  and  _21
REMARK    3  A    between atoms: _22  and  _66
REMARK    4  A    between atoms: _27  and  _30
REMARK    5  A    between atoms: _32  and  _33
REMARK    6  A    between atoms: _38  and  _43
REMARK    7  A    between atoms: _43  and  _46
REMARK    8  A    between atoms: _53  and  _55
REMARK                            x       y       z     vdW  Elec       q    Type
REMARK                         _______ _______ _______ _____ _____    ______ ____
ROOT
ATOM     10  C   UNL     1      19.105  38.225  40.131  0.00  0.00    +0.038 A 
ATOM     11  C   UNL     1      19.558  39.300  39.324  0.00  0.00    +0.047 A 
ATOM     12  C   UNL     1      19.828  40.609  39.897  0.00  0.00    +0.035 A 
ATOM     32  C   UNL     1      19.629  40.788  41.297  0.00  0.00    +0.024 A 
ATOM     33  C   UNL     1      19.169  39.707  42.132  0.00  0.00    +0.007 A 
ATOM     34  C   UNL     1      18.898  38.414  41.572  0.00  0.00    -0.029 A 
ATOM     35  C   UNL     1      18.400  37.293  42.514  0.00  0.00    +0.045 C 
ENDROOT
BRANCH  10   9
ATOM      4  C   UNL     1      20.489  33.840  38.756  0.00  0.00    +0.077 A 
ATOM      5  C   UNL     1      21.819  34.038  39.257  0.00  0.00    +0.048 A 
ATOM      6  C   UNL     1      22.108  35.285  39.855  0.00  0.00    +0.116 A 
ATOM      7  N   UNL     1      21.132  36.254  39.940  0.00  0.00    -0.223 NA
ATOM      8  C   UNL     1      19.860  36.031  39.446  0.00  0.00    +0.220 A 
ATOM      9  N   UNL     1      18.861  36.989  39.528  0.00  0.00    -0.283 N 
ATOM     36  H   UNL     1      17.938  36.788  39.145  0.00  0.00    +0.155 HD
ATOM     37  N   UNL     1      19.560  34.849  38.869  0.00  0.00    -0.214 NA
BRANCH   4   3
ATOM      1  C   UNL     1      18.378  31.228  36.751  0.00  0.00    +0.020 A 
ATOM      2  C   UNL     1      18.775  32.474  37.365  0.00  0.00    +0.013 A 
ATOM      3  C   UNL     1      20.029  32.574  38.101  0.00  0.00    +0.019 A 
ATOM     38  C   UNL     1      20.866  31.387  38.196  0.00  0.00    +0.120 A 
ATOM     39  N   UNL     1      20.456  30.201  37.595  0.00  0.00    -0.263 NA
ATOM     40  C   UNL     1      19.250  30.092  36.886  0.00  0.00    +0.111 A 
ENDBRANCH   4   3
ENDBRANCH  10   9
BRANCH  12  13
ATOM     13  N   UNL     1      20.282  41.740  39.126  0.00  0.00    -0.281 N 
ATOM     14  C   UNL     1      21.547  42.303  39.103  0.00  0.00    +0.248 C 
ATOM     30  O   UNL     1      22.431  42.050  39.909  0.00  0.00    -0.270 OA
ATOM     31  H   UNL     1      19.586  42.178  38.523  0.00  0.00    +0.155 HD
BRANCH  14  15
ATOM     15  C   UNL     1      21.874  43.303  38.041  0.00  0.00    +0.037 A 
ATOM     16  C   UNL     1      22.284  42.879  36.700  0.00  0.00    +0.013 A 
ATOM     17  C   UNL     1      22.611  43.864  35.699  0.00  0.00    +0.005 A 
ATOM     18  C   UNL     1      22.527  45.283  36.036  0.00  0.00    -0.033 A 
ATOM     28  C   UNL     1      22.112  45.675  37.373  0.00  0.00    +0.005 A 
ATOM     29  C   UNL     1      21.792  44.713  38.357  0.00  0.00    +0.013 A 
BRANCH  18  19
ATOM     19  C   UNL     1      22.876  46.402  35.037  0.00  0.00    +0.119 C 
BRANCH  19  20
ATOM     20  N   UNL     1      23.191  45.994  33.636  0.00  0.00    -0.302 NA
ATOM     21  C   UNL     1      24.621  46.369  33.236  0.00  0.00    +0.066 C 
ATOM     22  C   UNL     1      24.941  45.914  31.774  0.00  0.00    -0.064 C 
ATOM     23  N   UNL     1      23.928  46.541  30.815  0.00  0.00    +0.379 N 
ATOM     24  C   UNL     1      24.261  46.163  29.434  0.00  0.00    -0.096 C 
ATOM     25  H   UNL     1      24.027  47.649  30.895  0.00  0.00    -0.082 HD
ATOM     26  C   UNL     1      22.503  46.176  31.207  0.00  0.00    -0.064 C 
ATOM     27  C   UNL     1      22.206  46.606  32.671  0.00  0.00    +0.066 C 
ENDBRANCH  19  20
ENDBRANCH  18  19
ENDBRANCH  14  15
ENDBRANCH  12  13
TORSDOF 6
ENDMDL
MODEL 5
REMARK VINA RESULT:      -9.3     13.662     19.627
REMARK  Name = C:\Users\Docking\Desktop\test protocol\1iep_ligandH.pdb
REMARK  8 active torsions:
REMARK  status: ('A' for Active; 'I' for Inactive)
REMARK    1  A    between atoms: _5  and  _11
REMARK    2  A    between atoms: _19  and  _21
REMARK    3  A    between atoms: _22  and  _66
REMARK    4  A    between atoms: _27  and  _30
REMARK    5  A    between atoms: _32  and  _33
REMARK    6  A    between atoms: _38  and  _43
REMARK    7  A    between atoms: _43  and  _46
REMARK    8  A    between atoms: _53  and  _55
REMARK                            x       y       z     vdW  Elec       q    Type
REMARK                         _______ _______ _______ _____ _____    ______ ____
ROOT
ATOM     10  C   UNL     1      22.475  36.493  21.058  0.00  0.00    +0.038 A 
ATOM     11  C   UNL     1      22.445  37.874  21.378  0.00  0.00    +0.047 A 
ATOM     12  C   UNL     1      22.830  38.350  22.698  0.00  0.00    +0.035 A 
ATOM     32  C   UNL     1      23.243  37.390  23.668  0.00  0.00    +0.024 A 
ATOM     33  C   UNL     1      23.278  35.982  23.360  0.00  0.00    +0.007 A 
ATOM     34  C   UNL     1      22.897  35.507  22.061  0.00  0.00    -0.029 A 
ATOM     35  C   UNL     1      22.948  33.986  21.788  0.00  0.00    +0.045 C 
ENDROOT
BRANCH  10   9
ATOM      4  C   UNL     1      19.684  36.839  17.169  0.00  0.00    +0.077 A 
ATOM      5  C   UNL     1      18.900  37.889  17.752  0.00  0.00    +0.048 A 
ATOM      6  C   UNL     1      19.243  38.306  19.058  0.00  0.00    +0.116 A 
ATOM      7  N   UNL     1      20.294  37.711  19.721  0.00  0.00    -0.223 NA
ATOM      8  C   UNL     1      21.029  36.700  19.130  0.00  0.00    +0.220 A 
ATOM      9  N   UNL     1      22.095  36.092  19.776  0.00  0.00    -0.283 N 
ATOM     36  H   UNL     1      22.608  35.345  19.308  0.00  0.00    +0.155 HD
ATOM     37  N   UNL     1      20.721  36.282  17.885  0.00  0.00    -0.214 NA
BRANCH   4   3
ATOM      1  C   UNL     1      18.866  34.424  14.203  0.00  0.00    +0.020 A 
ATOM      2  C   UNL     1      19.084  34.902  15.549  0.00  0.00    +0.013 A 
ATOM      3  C   UNL     1      19.447  36.292  15.796  0.00  0.00    +0.019 A 
ATOM     38  C   UNL     1      19.582  37.179  14.650  0.00  0.00    +0.120 A 
ATOM     39  N   UNL     1      19.367  36.690  13.365  0.00  0.00    -0.263 NA
ATOM     40  C   UNL     1      19.019  35.354  13.115  0.00  0.00    +0.111 A 
ENDBRANCH   4   3
ENDBRANCH  10   9
BRANCH  12  13
ATOM     13  N   UNL     1      22.812  39.739  23.083  0.00  0.00    -0.281 N 
ATOM     14  C   UNL     1      21.782  40.652  22.929  0.00  0.00    +0.248 C 
ATOM     30  O   UNL     1      20.790  40.466  22.240  0.00  0.00    -0.270 OA
ATOM     31  H   UNL     1      23.663  40.093  23.522  0.00  0.00    +0.155 HD
BRANCH  14  15
ATOM     15  C   UNL     1      21.873  41.969  23.632  0.00  0.00    +0.037 A 
ATOM     16  C   UNL     1      20.693  42.818  23.809  0.00  0.00    +0.013 A 
ATOM     17  C   UNL     1      20.811  44.091  24.476  0.00  0.00    +0.005 A 
ATOM     18  C   UNL     1      22.117  44.521  24.971  0.00  0.00    -0.033 A 
ATOM     28  C   UNL     1      23.270  43.656  24.785  0.00  0.00    +0.005 A 
ATOM     29  C   UNL     1      23.158  42.408  24.132  0.00  0.00    +0.013 A 
BRANCH  18  19
ATOM     19  C   UNL     1      22.341  45.873  25.675  0.00  0.00    +0.119 C 
BRANCH  19  20
ATOM     20  N   UNL     1      23.442  45.946  26.680  0.00  0.00    -0.302 NA
ATOM     21  C   UNL     1      23.013  45.397  28.044  0.00  0.00    +0.066 C 
ATOM     22  C   UNL     1      24.184  45.460  29.077  0.00  0.00    -0.064 C 
ATOM     23  N   UNL     1      24.671  46.905  29.204  0.00  0.00    +0.379 N 
ATOM     24  C   UNL     1      25.734  46.977  30.218  0.00  0.00    -0.096 C 
ATOM     25  H   UNL     1      23.815  47.520  29.566  0.00  0.00    -0.082 HD
ATOM     26  C   UNL     1      25.098  47.459  27.852  0.00  0.00    -0.064 C 
ATOM     27  C   UNL     1      23.936  47.364  26.824  0.00  0.00    +0.066 C 
ENDBRANCH  19  20
ENDBRANCH  18  19
ENDBRANCH  14  15
ENDBRANCH  12  13
TORSDOF 6
ENDMDL
