MODEL 1
REMARK VINA RESULT:      -9.3      0.000      0.000
REMARK  Name = C:\Users\Docking\Desktop\test protocol\1iep_ligandH.pdb
REMARK  8 active torsions:
REMARK  status: ('A' for Active; 'I' for Inactive)
REMARK    1  A    between atoms: _5  and  _11
REMARK    2  A    between atoms: _19  and  _21
REMARK    3  A    between atoms: _22  and  _66
REMARK    4  A    between atoms: _27  and  _30
REMARK    5  A    between atoms: _32  and  _33
REMARK    6  A    between atoms: _38  and  _43
REMARK    7  A    between atoms: _43  and  _46
REMARK    8  A    between atoms: _53  and  _55
REMARK                            x       y       z     vdW  Elec       q    Type
REMARK                         _______ _______ _______ _____ _____    ______ ____
ROOT
ATOM     10  C   UNL     1      21.684 -22.476  21.356  0.00  0.00    +0.038 A 
ATOM     11  C   UNL     1      22.226 -21.556  22.291  0.00  0.00    +0.047 A 
ATOM     12  C   UNL     1      23.459 -21.848  23.005  0.00  0.00    +0.035 A 
ATOM     32  C   UNL     1      24.117 -23.085  22.741  0.00  0.00    +0.024 A 
ATOM     33  C   UNL     1      23.580 -24.031  21.795  0.00  0.00    +0.007 A 
ATOM     34  C   UNL     1      22.362 -23.750  21.089  0.00  0.00    -0.029 A 
ATOM     35  C   UNL     1      21.829 -24.804  20.091  0.00  0.00    +0.045 C 
ENDROOT
BRANCH  10   9
ATOM      4  C   UNL     1      19.276 -20.428  17.745  0.00  0.00    +0.077 A 
ATOM      5  C   UNL     1      20.482 -19.955  17.130  0.00  0.00    +0.048 A 
ATOM      6  C   UNL     1      21.701 -20.254  17.779  0.00  0.00    +0.116 A 
ATOM      7  N   UNL     1      21.702 -20.973  18.954  0.00  0.00    -0.223 NA
ATOM      8  C   UNL     1      20.520 -21.413  19.522  0.00  0.00    +0.220 A 
ATOM      9  N   UNL     1      20.497 -22.144  20.699  0.00  0.00    -0.283 N 
ATOM     36  H   UNL     1      19.604 -22.444  21.089  0.00  0.00    +0.155 HD
ATOM     37  N   UNL     1      19.342 -21.139  18.922  0.00  0.00    -0.214 NA
BRANCH   4   3
ATOM      1  C   UNL     1      15.412 -19.918  17.406  0.00  0.00    +0.020 A 
ATOM      2  C   UNL     1      16.708 -20.146  18.003  0.00  0.00    +0.013 A 
ATOM      3  C   UNL     1      17.909 -20.195  17.179  0.00  0.00    +0.019 A 
ATOM     38  C   UNL     1      17.764 -20.007  15.743  0.00  0.00    +0.120 A 
ATOM     39  N   UNL     1      16.503 -19.791  15.196  0.00  0.00    -0.263 NA
ATOM     40  C   UNL     1      15.340 -19.743  15.979  0.00  0.00    +0.111 A 
ENDBRANCH   4   3
ENDBRANCH  10   9
BRANCH  12  13
ATOM     13  N   UNL     1      24.052 -20.957  23.971  0.00  0.00    -0.281 N 
ATOM     14  C   UNL     1      23.783 -20.870  25.327  0.00  0.00    +0.248 C 
ATOM     30  O   UNL     1      22.832 -21.403  25.878  0.00  0.00    -0.270 OA
ATOM     31  H   UNL     1      24.756 -20.312  23.612  0.00  0.00    +0.155 HD
BRANCH  14  15
ATOM     15  C   UNL     1      24.694 -20.062  26.194  0.00  0.00    +0.037 A 
ATOM     16  C   UNL     1      26.087 -19.817  25.812  0.00  0.00    +0.013 A 
ATOM     17  C   UNL     1      26.949 -19.049  26.674  0.00  0.00    +0.005 A 
ATOM     18  C   UNL     1      26.420 -18.518  27.928  0.00  0.00    -0.033 A 
ATOM     28  C   UNL     1      25.032 -18.771  28.280  0.00  0.00    +0.005 A 
ATOM     29  C   UNL     1      24.184 -19.525  27.438  0.00  0.00    +0.013 A 
BRANCH  18  19
ATOM     19  C   UNL     1      27.273 -17.705  28.919  0.00  0.00    +0.119 C 
BRANCH  19  20
ATOM     20  N   UNL     1      28.757 -17.779  28.765  0.00  0.00    -0.302 NA
ATOM     21  C   UNL     1      29.292 -19.190  29.026  0.00  0.00    +0.066 C 
ATOM     22  C   UNL     1      30.843 -19.254  28.838  0.00  0.00    -0.064 C 
ATOM     23  N   UNL     1      31.509 -18.241  29.770  0.00  0.00    +0.379 N 
ATOM     24  C   UNL     1      32.970 -18.339  29.637  0.00  0.00    -0.096 C 
ATOM     25  H   UNL     1      31.245 -18.519  30.816  0.00  0.00    -0.082 HD
ATOM     26  C   UNL     1      30.981 -16.835  29.518  0.00  0.00    -0.064 C 
ATOM     27  C   UNL     1      29.436 -16.789  29.679  0.00  0.00    +0.066 C 
ENDBRANCH  19  20
ENDBRANCH  18  19
ENDBRANCH  14  15
ENDBRANCH  12  13
TORSDOF 6
ENDMDL
MODEL 2
REMARK VINA RESULT:      -9.1     22.187     26.375
REMARK  Name = C:\Users\Docking\Desktop\test protocol\1iep_ligandH.pdb
REMARK  8 active torsions:
REMARK  status: ('A' for Active; 'I' for Inactive)
REMARK    1  A    between atoms: _5  and  _11
REMARK    2  A    between atoms: _19  and  _21
REMARK    3  A    between atoms: _22  and  _66
REMARK    4  A    between atoms: _27  and  _30
REMARK    5  A    between atoms: _32  and  _33
REMARK    6  A    between atoms: _38  and  _43
REMARK    7  A    between atoms: _43  and  _46
REMARK    8  A    between atoms: _53  and  _55
REMARK                            x       y       z     vdW  Elec       q    Type
REMARK                         _______ _______ _______ _____ _____    ______ ____
ROOT
ATOM     10  C   UNL     1      13.468 -36.190  11.312  0.00  0.00    +0.038 A 
ATOM     11  C   UNL     1      12.110 -36.044  11.695  0.00  0.00    +0.047 A 
ATOM     12  C   UNL     1      11.444 -37.051  12.507  0.00  0.00    +0.035 A 
ATOM     32  C   UNL     1      12.193 -38.193  12.914  0.00  0.00    +0.024 A 
ATOM     33  C   UNL     1      13.574 -38.358  12.533  0.00  0.00    +0.007 A 
ATOM     34  C   UNL     1      14.235 -37.370  11.730  0.00  0.00    -0.029 A 
ATOM     35  C   UNL     1      15.715 -37.602  11.346  0.00  0.00    +0.045 C 
ENDROOT
BRANCH  10   9
ATOM      4  C   UNL     1      14.540 -34.212   7.072  0.00  0.00    +0.077 A 
ATOM      5  C   UNL     1      13.895 -35.270   6.349  0.00  0.00    +0.048 A 
ATOM      6  C   UNL     1      13.306 -36.308   7.106  0.00  0.00    +0.116 A 
ATOM      7  N   UNL     1      13.363 -36.279   8.482  0.00  0.00    -0.223 NA
ATOM      8  C   UNL     1      13.994 -35.245   9.148  0.00  0.00    +0.220 A 
ATOM      9  N   UNL     1      14.057 -35.192  10.532  0.00  0.00    -0.283 N 
ATOM     36  H   UNL     1      14.539 -34.416  10.986  0.00  0.00    +0.155 HD
ATOM     37  N   UNL     1      14.566 -34.243   8.449  0.00  0.00    -0.214 NA
BRANCH   4   3
ATOM      1  C   UNL     1      16.060 -31.805   4.390  0.00  0.00    +0.020 A 
ATOM      2  C   UNL     1      15.412 -32.956   4.975  0.00  0.00    +0.013 A 
ATOM      3  C   UNL     1      15.206 -33.044   6.415  0.00  0.00    +0.019 A 
ATOM     38  C   UNL     1      15.671 -31.940   7.242  0.00  0.00    +0.120 A 
ATOM     39  N   UNL     1      16.293 -30.845   6.651  0.00  0.00    -0.263 NA
ATOM     40  C   UNL     1      16.498 -30.750   5.266  0.00  0.00    +0.111 A 
ENDBRANCH   4   3
ENDBRANCH  10   9
BRANCH  12  13
ATOM     13  N   UNL     1      10.066 -36.960  12.919  0.00  0.00    -0.281 N 
ATOM     14  C   UNL     1       9.198 -35.892  12.762  0.00  0.00    +0.248 C 
ATOM     30  O   UNL     1       9.541 -34.766  12.431  0.00  0.00    -0.270 OA
ATOM     31  H   UNL     1       9.683 -37.784  13.383  0.00  0.00    +0.155 HD
BRANCH  14  15
ATOM     15  C   UNL     1       7.741 -36.100  13.023  0.00  0.00    +0.037 A 
ATOM     16  C   UNL     1       6.720 -35.441  12.205  0.00  0.00    +0.013 A 
ATOM     17  C   UNL     1       5.322 -35.646  12.489  0.00  0.00    +0.005 A 
ATOM     18  C   UNL     1       4.937 -36.516  13.598  0.00  0.00    -0.033 A 
ATOM     28  C   UNL     1       5.970 -37.161  14.391  0.00  0.00    +0.005 A 
ATOM     29  C   UNL     1       7.342 -36.962  14.116  0.00  0.00    +0.013 A 
BRANCH  18  19
ATOM     19  C   UNL     1       3.469 -36.774  13.987  0.00  0.00    +0.119 C 
BRANCH  19  20
ATOM     20  N   UNL     1       2.933 -38.149  13.756  0.00  0.00    -0.302 NA
ATOM     21  C   UNL     1       2.469 -38.349  12.310  0.00  0.00    +0.066 C 
ATOM     22  C   UNL     1       1.931 -39.799  12.081  0.00  0.00    -0.064 C 
ATOM     23  N   UNL     1       0.790 -40.078  13.059  0.00  0.00    +0.379 N 
ATOM     24  C   UNL     1       0.244 -41.420  12.807  0.00  0.00    -0.096 C 
ATOM     25  H   UNL     1      -0.020 -39.339  12.854  0.00  0.00    -0.082 HD
ATOM     26  C   UNL     1       1.242 -39.879  14.499  0.00  0.00    -0.064 C 
ATOM     27  C   UNL     1       1.801 -38.444  14.709  0.00  0.00    +0.066 C 
ENDBRANCH  19  20
ENDBRANCH  18  19
ENDBRANCH  14  15
ENDBRANCH  12  13
TORSDOF 6
ENDMDL
MODEL 3
REMARK VINA RESULT:      -9.0     23.751     26.684
REMARK  Name = C:\Users\Docking\Desktop\test protocol\1iep_ligandH.pdb
REMARK  8 active torsions:
REMARK  status: ('A' for Active; 'I' for Inactive)
REMARK    1  A    between atoms: _5  and  _11
REMARK    2  A    between atoms: _19  and  _21
REMARK    3  A    between atoms: _22  and  _66
REMARK    4  A    between atoms: _27  and  _30
REMARK    5  A    between atoms: _32  and  _33
REMARK    6  A    between atoms: _38  and  _43
REMARK    7  A    between atoms: _43  and  _46
REMARK    8  A    between atoms: _53  and  _55
REMARK                            x       y       z     vdW  Elec       q    Type
REMARK                         _______ _______ _______ _____ _____    ______ ____
ROOT
ATOM     10  C   UNL     1      15.748 -45.224  10.707  0.00  0.00    +0.038 A 
ATOM     11  C   UNL     1      16.969 -44.568  11.007  0.00  0.00    +0.047 A 
ATOM     12  C   UNL     1      17.735 -44.910  12.196  0.00  0.00    +0.035 A 
ATOM     32  C   UNL     1      17.229 -45.928  13.056  0.00  0.00    +0.024 A 
ATOM     33  C   UNL     1      15.989 -46.604  12.767  0.00  0.00    +0.007 A 
ATOM     34  C   UNL     1      15.228 -46.269  11.597  0.00  0.00    -0.029 A 
ATOM     35  C   UNL     1      13.902 -47.023  11.340  0.00  0.00    +0.045 C 
ENDROOT
BRANCH  10   9
ATOM      4  C   UNL     1      12.674 -42.402   8.336  0.00  0.00    +0.077 A 
ATOM      5  C   UNL     1      12.408 -41.611   9.503  0.00  0.00    +0.048 A 
ATOM      6  C   UNL     1      13.077 -41.968  10.695  0.00  0.00    +0.116 A 
ATOM      7  N   UNL     1      13.946 -43.038  10.708  0.00  0.00    -0.223 NA
ATOM      8  C   UNL     1      14.178 -43.781   9.565  0.00  0.00    +0.220 A 
ATOM      9  N   UNL     1      15.054 -44.856   9.553  0.00  0.00    -0.283 N 
ATOM     36  H   UNL     1      15.192 -45.384   8.691  0.00  0.00    +0.155 HD
ATOM     37  N   UNL     1      13.550 -43.462   8.414  0.00  0.00    -0.214 NA
BRANCH   4   3
ATOM      1  C   UNL     1      10.892 -42.912   4.891  0.00  0.00    +0.020 A 
ATOM      2  C   UNL     1      11.488 -43.210   6.173  0.00  0.00    +0.013 A 
ATOM      3  C   UNL     1      12.046 -42.149   7.001  0.00  0.00    +0.019 A 
ATOM     38  C   UNL     1      11.984 -40.784   6.499  0.00  0.00    +0.120 A 
ATOM     39  N   UNL     1      11.406 -40.527   5.260  0.00  0.00    -0.263 NA
ATOM     40  C   UNL     1      10.867 -41.541   4.454  0.00  0.00    +0.111 A 
ENDBRANCH   4   3
ENDBRANCH  10   9
BRANCH  12  13
ATOM     13  N   UNL     1      18.977 -44.272  12.556  0.00  0.00    -0.281 N 
ATOM     14  C   UNL     1      20.175 -44.288  11.862  0.00  0.00    +0.248 C 
ATOM     30  O   UNL     1      20.422 -45.034  10.926  0.00  0.00    -0.270 OA
ATOM     31  H   UNL     1      18.972 -43.745  13.430  0.00  0.00    +0.155 HD
BRANCH  14  15
ATOM     15  C   UNL     1      21.262 -43.349  12.275  0.00  0.00    +0.037 A 
ATOM     16  C   UNL     1      21.457 -42.984  13.680  0.00  0.00    +0.013 A 
ATOM     17  C   UNL     1      22.502 -42.062  14.050  0.00  0.00    +0.005 A 
ATOM     18  C   UNL     1      23.362 -41.500  13.011  0.00  0.00    -0.033 A 
ATOM     28  C   UNL     1      23.149 -41.883  11.625  0.00  0.00    +0.005 A 
ATOM     29  C   UNL     1      22.125 -42.785  11.259  0.00  0.00    +0.013 A 
BRANCH  18  19
ATOM     19  C   UNL     1      24.488 -40.493  13.311  0.00  0.00    +0.119 C 
BRANCH  19  20
ATOM     20  N   UNL     1      25.883 -41.023  13.362  0.00  0.00    -0.302 NA
ATOM     21  C   UNL     1      26.620 -40.831  12.034  0.00  0.00    +0.066 C 
ATOM     22  C   UNL     1      28.085 -41.370  12.112  0.00  0.00    -0.064 C 
ATOM     23  N   UNL     1      28.061 -42.847  12.509  0.00  0.00    +0.379 N 
ATOM     24  C   UNL     1      29.434 -43.373  12.527  0.00  0.00    -0.096 C 
ATOM     25  H   UNL     1      27.497 -43.400  11.721  0.00  0.00    -0.082 HD
ATOM     26  C   UNL     1      27.328 -43.048  13.828  0.00  0.00    -0.064 C 
ATOM     27  C   UNL     1      25.883 -42.482  13.748  0.00  0.00    +0.066 C 
ENDBRANCH  19  20
ENDBRANCH  18  19
ENDBRANCH  14  15
ENDBRANCH  12  13
TORSDOF 6
ENDMDL
MODEL 4
REMARK VINA RESULT:      -8.5     16.148     21.622
REMARK  Name = C:\Users\Docking\Desktop\test protocol\1iep_ligandH.pdb
REMARK  8 active torsions:
REMARK  status: ('A' for Active; 'I' for Inactive)
REMARK    1  A    between atoms: _5  and  _11
REMARK    2  A    between atoms: _19  and  _21
REMARK    3  A    between atoms: _22  and  _66
REMARK    4  A    between atoms: _27  and  _30
REMARK    5  A    between atoms: _32  and  _33
REMARK    6  A    between atoms: _38  and  _43
REMARK    7  A    between atoms: _43  and  _46
REMARK    8  A    between atoms: _53  and  _55
REMARK                            x       y       z     vdW  Elec       q    Type
REMARK                         _______ _______ _______ _____ _____    ______ ____
ROOT
ATOM     10  C   UNL     1      12.230 -37.102  12.854  0.00  0.00    +0.038 A 
ATOM     11  C   UNL     1      12.670 -35.783  12.575  0.00  0.00    +0.047 A 
ATOM     12  C   UNL     1      12.998 -34.856  13.647  0.00  0.00    +0.035 A 
ATOM     32  C   UNL     1      12.867 -35.306  14.993  0.00  0.00    +0.024 A 
ATOM     33  C   UNL     1      12.420 -36.643  15.295  0.00  0.00    +0.007 A 
ATOM     34  C   UNL     1      12.093 -37.561  14.242  0.00  0.00    -0.029 A 
ATOM     35  C   UNL     1      11.612 -38.980  14.625  0.00  0.00    +0.045 C 
ENDROOT
BRANCH  10   9
ATOM      4  C   UNL     1      13.400 -40.556   9.734  0.00  0.00    +0.077 A 
ATOM      5  C   UNL     1      14.731 -40.661  10.259  0.00  0.00    +0.048 A 
ATOM      6  C   UNL     1      15.077 -39.803  11.327  0.00  0.00    +0.116 A 
ATOM      7  N   UNL     1      14.153 -38.911  11.825  0.00  0.00    -0.223 NA
ATOM      8  C   UNL     1      12.878 -38.834  11.295  0.00  0.00    +0.220 A 
ATOM      9  N   UNL     1      11.929 -37.950  11.786  0.00  0.00    -0.283 N 
ATOM     36  H   UNL     1      11.002 -37.919  11.363  0.00  0.00    +0.155 HD
ATOM     37  N   UNL     1      12.523 -39.642  10.274  0.00  0.00    -0.214 NA
BRANCH   4   3
ATOM      1  C   UNL     1      11.823 -43.492   7.686  0.00  0.00    +0.020 A 
ATOM      2  C   UNL     1      12.308 -42.721   8.808  0.00  0.00    +0.013 A 
ATOM      3  C   UNL     1      12.883 -41.397   8.608  0.00  0.00    +0.019 A 
ATOM     38  C   UNL     1      12.953 -40.877   7.251  0.00  0.00    +0.120 A 
ATOM     39  N   UNL     1      12.479 -41.643   6.190  0.00  0.00    -0.263 NA
ATOM     40  C   UNL     1      11.925 -42.919   6.370  0.00  0.00    +0.111 A 
ENDBRANCH   4   3
ENDBRANCH  10   9
BRANCH  12  13
ATOM     13  N   UNL     1      13.442 -33.502  13.424  0.00  0.00    -0.281 N 
ATOM     14  C   UNL     1      14.698 -32.968  13.661  0.00  0.00    +0.248 C 
ATOM     30  O   UNL     1      15.575 -33.525  14.305  0.00  0.00    -0.270 OA
ATOM     31  H   UNL     1      12.746 -32.860  13.045  0.00  0.00    +0.155 HD
BRANCH  14  15
ATOM     15  C   UNL     1      15.022 -31.615  13.117  0.00  0.00    +0.037 A 
ATOM     16  C   UNL     1      14.430 -30.403  13.690  0.00  0.00    +0.013 A 
ATOM     17  C   UNL     1      14.746 -29.111  13.135  0.00  0.00    +0.005 A 
ATOM     18  C   UNL     1      15.661 -29.024  12.000  0.00  0.00    -0.033 A 
ATOM     28  C   UNL     1      16.238 -30.241  11.454  0.00  0.00    +0.005 A 
ATOM     29  C   UNL     1      15.930 -31.509  11.995  0.00  0.00    +0.013 A 
BRANCH  18  19
ATOM     19  C   UNL     1      16.038 -27.689  11.330  0.00  0.00    +0.119 C 
BRANCH  19  20
ATOM     20  N   UNL     1      16.162 -26.492  12.214  0.00  0.00    -0.302 NA
ATOM     21  C   UNL     1      14.877 -26.225  13.003  0.00  0.00    +0.066 C 
ATOM     22  C   UNL     1      15.031 -24.982  13.939  0.00  0.00    -0.064 C 
ATOM     23  N   UNL     1      15.416 -23.761  13.102  0.00  0.00    +0.379 N 
ATOM     24  C   UNL     1      15.505 -22.579  13.971  0.00  0.00    -0.096 C 
ATOM     25  H   UNL     1      14.595 -23.582  12.370  0.00  0.00    -0.082 HD
ATOM     26  C   UNL     1      16.691 -24.019  12.312  0.00  0.00    -0.064 C 
ATOM     27  C   UNL     1      16.537 -25.273  11.407  0.00  0.00    +0.066 C 
ENDBRANCH  19  20
ENDBRANCH  18  19
ENDBRANCH  14  15
ENDBRANCH  12  13
TORSDOF 6
ENDMDL
MODEL 5
REMARK VINA RESULT:      -8.5      3.628     13.120
REMARK  Name = C:\Users\Docking\Desktop\test protocol\1iep_ligandH.pdb
REMARK  8 active torsions:
REMARK  status: ('A' for Active; 'I' for Inactive)
REMARK    1  A    between atoms: _5  and  _11
REMARK    2  A    between atoms: _19  and  _21
REMARK    3  A    between atoms: _22  and  _66
REMARK    4  A    between atoms: _27  and  _30
REMARK    5  A    between atoms: _32  and  _33
REMARK    6  A    between atoms: _38  and  _43
REMARK    7  A    between atoms: _43  and  _46
REMARK    8  A    between atoms: _53  and  _55
REMARK                            x       y       z     vdW  Elec       q    Type
REMARK                         _______ _______ _______ _____ _____    ______ ____
ROOT
ATOM     10  C   UNL     1      24.482 -21.442  24.730  0.00  0.00    +0.038 A 
ATOM     11  C   UNL     1      23.369 -21.192  23.886  0.00  0.00    +0.047 A 
ATOM     12  C   UNL     1      23.551 -20.760  22.509  0.00  0.00    +0.035 A 
ATOM     32  C   UNL     1      24.881 -20.597  22.022  0.00  0.00    +0.024 A 
ATOM     33  C   UNL     1      26.023 -20.846  22.866  0.00  0.00    +0.007 A 
ATOM     34  C   UNL     1      25.850 -21.269  24.226  0.00  0.00    -0.029 A 
ATOM     35  C   UNL     1      27.111 -21.515  25.088  0.00  0.00    +0.045 C 
ENDROOT
BRANCH  10   9
ATOM      4  C   UNL     1      23.480 -20.536  29.335  0.00  0.00    +0.077 A 
ATOM      5  C   UNL     1      23.444 -19.120  29.110  0.00  0.00    +0.048 A 
ATOM      6  C   UNL     1      23.695 -18.665  27.796  0.00  0.00    +0.116 A 
ATOM      7  N   UNL     1      23.962 -19.568  26.790  0.00  0.00    -0.223 NA
ATOM      8  C   UNL     1      23.991 -20.928  27.042  0.00  0.00    +0.220 A 
ATOM      9  N   UNL     1      24.249 -21.854  26.044  0.00  0.00    -0.283 N 
ATOM     36  H   UNL     1      24.269 -22.848  26.271  0.00  0.00    +0.155 HD
ATOM     37  N   UNL     1      23.755 -21.387  28.288  0.00  0.00    -0.214 NA
BRANCH   4   3
ATOM      1  C   UNL     1      21.739 -21.797  32.604  0.00  0.00    +0.020 A 
ATOM      2  C   UNL     1      21.926 -21.169  31.316  0.00  0.00    +0.013 A 
ATOM      3  C   UNL     1      23.232 -21.171  30.668  0.00  0.00    +0.019 A 
ATOM     38  C   UNL     1      24.337 -21.822  31.356  0.00  0.00    +0.120 A 
ATOM     39  N   UNL     1      24.127 -22.417  32.596  0.00  0.00    -0.263 NA
ATOM     40  C   UNL     1      22.876 -22.420  33.229  0.00  0.00    +0.111 A 
ENDBRANCH   4   3
ENDBRANCH  10   9
BRANCH  12  13
ATOM     13  N   UNL     1      22.460 -20.484  21.608  0.00  0.00    -0.281 N 
ATOM     14  C   UNL     1      21.867 -21.344  20.699  0.00  0.00    +0.248 C 
ATOM     30  O   UNL     1      22.329 -22.426  20.369  0.00  0.00    -0.270 OA
ATOM     31  H   UNL     1      22.078 -19.538  21.645  0.00  0.00    +0.155 HD
BRANCH  14  15
ATOM     15  C   UNL     1      20.583 -20.937  20.051  0.00  0.00    +0.037 A 
ATOM     16  C   UNL     1      20.505 -20.686  18.609  0.00  0.00    +0.013 A 
ATOM     17  C   UNL     1      19.258 -20.278  18.013  0.00  0.00    +0.005 A 
ATOM     18  C   UNL     1      18.078 -20.119  18.858  0.00  0.00    -0.033 A 
ATOM     28  C   UNL     1      18.182 -20.380  20.284  0.00  0.00    +0.005 A 
ATOM     29  C   UNL     1      19.402 -20.779  20.873  0.00  0.00    +0.013 A 
BRANCH  18  19
ATOM     19  C   UNL     1      16.711 -19.667  18.310  0.00  0.00    +0.119 C 
BRANCH  19  20
ATOM     20  N   UNL     1      15.956 -20.641  17.467  0.00  0.00    -0.302 NA
ATOM     21  C   UNL     1      16.547 -22.052  17.550  0.00  0.00    +0.066 C 
ATOM     22  C   UNL     1      15.731 -23.062  16.680  0.00  0.00    -0.064 C 
ATOM     23  N   UNL     1      15.699 -22.573  15.231  0.00  0.00    +0.379 N 
ATOM     24  C   UNL     1      14.982 -23.551  14.399  0.00  0.00    -0.096 C 
ATOM     25  H   UNL     1      16.752 -22.526  14.866  0.00  0.00    -0.082 HD
ATOM     26  C   UNL     1      15.116 -21.170  15.139  0.00  0.00    -0.064 C 
ATOM     27  C   UNL     1      15.915 -20.180  16.031  0.00  0.00    +0.066 C 
ENDBRANCH  19  20
ENDBRANCH  18  19
ENDBRANCH  14  15
ENDBRANCH  12  13
TORSDOF 6
ENDMDL
