MODEL 1
REMARK VINA RESULT:     -10.4      0.000      0.000
REMARK  Name = C:\Users\Docking\Desktop\test protocol\1iep_ligandH.pdb
REMARK  8 active torsions:
REMARK  status: ('A' for Active; 'I' for Inactive)
REMARK    1  A    between atoms: _5  and  _11
REMARK    2  A    between atoms: _19  and  _21
REMARK    3  A    between atoms: _22  and  _66
REMARK    4  A    between atoms: _27  and  _30
REMARK    5  A    between atoms: _32  and  _33
REMARK    6  A    between atoms: _38  and  _43
REMARK    7  A    between atoms: _43  and  _46
REMARK    8  A    between atoms: _53  and  _55
REMARK                            x       y       z     vdW  Elec       q    Type
REMARK                         _______ _______ _______ _____ _____    ______ ____
ROOT
ATOM     10  C   UNL     1      12.746  26.068   9.829  0.00  0.00    +0.038 A 
ATOM     11  C   UNL     1      13.273  24.768  10.039  0.00  0.00    +0.047 A 
ATOM     12  C   UNL     1      12.428  23.588   9.934  0.00  0.00    +0.035 A 
ATOM     32  C   UNL     1      11.052  23.769   9.611  0.00  0.00    +0.024 A 
ATOM     33  C   UNL     1      10.500  25.084   9.396  0.00  0.00    +0.007 A 
ATOM     34  C   UNL     1      11.327  26.251   9.500  0.00  0.00    -0.029 A 
ATOM     35  C   UNL     1      10.680  27.636   9.266  0.00  0.00    +0.045 C 
ENDROOT
BRANCH  10   9
ATOM      4  C   UNL     1      16.903  28.302   8.952  0.00  0.00    +0.077 A 
ATOM      5  C   UNL     1      17.423  27.177   8.230  0.00  0.00    +0.048 A 
ATOM      6  C   UNL     1      16.592  26.040   8.113  0.00  0.00    +0.116 A 
ATOM      7  N   UNL     1      15.336  26.040   8.680  0.00  0.00    -0.223 NA
ATOM      8  C   UNL     1      14.865  27.141   9.371  0.00  0.00    +0.220 A 
ATOM      9  N   UNL     1      13.602  27.166   9.942  0.00  0.00    -0.283 N 
ATOM     36  H   UNL     1      13.295  27.995  10.450  0.00  0.00    +0.155 HD
ATOM     37  N   UNL     1      15.640  28.238   9.498  0.00  0.00    -0.214 NA
BRANCH   4   3
ATOM      1  C   UNL     1      18.814  31.654   8.312  0.00  0.00    +0.020 A 
ATOM      2  C   UNL     1      18.086  30.432   8.058  0.00  0.00    +0.013 A 
ATOM      3  C   UNL     1      17.660  29.577   9.158  0.00  0.00    +0.019 A 
ATOM     38  C   UNL     1      17.987  29.991  10.515  0.00  0.00    +0.120 A 
ATOM     39  N   UNL     1      18.691  31.172  10.728  0.00  0.00    -0.263 NA
ATOM     40  C   UNL     1      19.108  32.002   9.677  0.00  0.00    +0.111 A 
ENDBRANCH   4   3
ENDBRANCH  10   9
BRANCH  12  13
ATOM     13  N   UNL     1      12.905  22.244  10.144  0.00  0.00    -0.281 N 
ATOM     14  C   UNL     1      13.763  21.510   9.342  0.00  0.00    +0.248 C 
ATOM     30  O   UNL     1      14.085  21.823   8.205  0.00  0.00    -0.270 OA
ATOM     31  H   UNL     1      12.569  21.777  10.986  0.00  0.00    +0.155 HD
BRANCH  14  15
ATOM     15  C   UNL     1      14.336  20.236   9.874  0.00  0.00    +0.037 A 
ATOM     16  C   UNL     1      13.604  18.971   9.769  0.00  0.00    +0.013 A 
ATOM     17  C   UNL     1      14.172  17.760  10.306  0.00  0.00    +0.005 A 
ATOM     18  C   UNL     1      15.482  17.808  10.951  0.00  0.00    -0.033 A 
ATOM     28  C   UNL     1      16.189  19.075  11.037  0.00  0.00    +0.005 A 
ATOM     29  C   UNL     1      15.635  20.264  10.513  0.00  0.00    +0.013 A 
BRANCH  18  19
ATOM     19  C   UNL     1      16.155  16.569  11.571  0.00  0.00    +0.119 C 
BRANCH  19  20
ATOM     20  N   UNL     1      16.736  16.718  12.938  0.00  0.00    -0.302 NA
ATOM     21  C   UNL     1      17.736  15.605  13.262  0.00  0.00    +0.066 C 
ATOM     22  C   UNL     1      18.351  15.789  14.688  0.00  0.00    -0.064 C 
ATOM     23  N   UNL     1      17.227  15.825  15.724  0.00  0.00    +0.379 N 
ATOM     24  C   UNL     1      17.805  15.940  17.071  0.00  0.00    -0.096 C 
ATOM     25  H   UNL     1      16.686  14.852  15.670  0.00  0.00    -0.082 HD
ATOM     26  C   UNL     1      16.226  16.928  15.408  0.00  0.00    -0.064 C 
ATOM     27  C   UNL     1      15.643  16.752  13.978  0.00  0.00    +0.066 C 
ENDBRANCH  19  20
ENDBRANCH  18  19
ENDBRANCH  14  15
ENDBRANCH  12  13
TORSDOF 6
ENDMDL
MODEL 2
REMARK VINA RESULT:     -10.3      4.493     11.960
REMARK  Name = C:\Users\Docking\Desktop\test protocol\1iep_ligandH.pdb
REMARK  8 active torsions:
REMARK  status: ('A' for Active; 'I' for Inactive)
REMARK    1  A    between atoms: _5  and  _11
REMARK    2  A    between atoms: _19  and  _21
REMARK    3  A    between atoms: _22  and  _66
REMARK    4  A    between atoms: _27  and  _30
REMARK    5  A    between atoms: _32  and  _33
REMARK    6  A    between atoms: _38  and  _43
REMARK    7  A    between atoms: _43  and  _46
REMARK    8  A    between atoms: _53  and  _55
REMARK                            x       y       z     vdW  Elec       q    Type
REMARK                         _______ _______ _______ _____ _____    ______ ____
ROOT
ATOM     10  C   UNL     1      14.705  21.763   9.424  0.00  0.00    +0.038 A 
ATOM     11  C   UNL     1      13.411  22.292   9.664  0.00  0.00    +0.047 A 
ATOM     12  C   UNL     1      12.770  23.176   8.703  0.00  0.00    +0.035 A 
ATOM     32  C   UNL     1      13.475  23.499   7.507  0.00  0.00    +0.024 A 
ATOM     33  C   UNL     1      14.791  22.971   7.248  0.00  0.00    +0.007 A 
ATOM     34  C   UNL     1      15.430  22.101   8.193  0.00  0.00    -0.029 A 
ATOM     35  C   UNL     1      16.845  21.569   7.866  0.00  0.00    +0.045 C 
ENDROOT
BRANCH  10   9
ATOM      4  C   UNL     1      15.244  17.465  11.491  0.00  0.00    +0.077 A 
ATOM      5  C   UNL     1      14.293  16.855  10.607  0.00  0.00    +0.048 A 
ATOM      6  C   UNL     1      13.682  17.684   9.639  0.00  0.00    +0.116 A 
ATOM      7  N   UNL     1      14.006  19.021   9.570  0.00  0.00    -0.223 NA
ATOM      8  C   UNL     1      14.927  19.578  10.438  0.00  0.00    +0.220 A 
ATOM      9  N   UNL     1      15.274  20.919  10.381  0.00  0.00    -0.283 N 
ATOM     36  H   UNL     1      15.952  21.293  11.044  0.00  0.00    +0.155 HD
ATOM     37  N   UNL     1      15.523  18.808  11.372  0.00  0.00    -0.214 NA
BRANCH   4   3
ATOM      1  C   UNL     1      16.098  15.590  14.816  0.00  0.00    +0.020 A 
ATOM      2  C   UNL     1      15.347  16.307  13.812  0.00  0.00    +0.013 A 
ATOM      3  C   UNL     1      15.976  16.720  12.564  0.00  0.00    +0.019 A 
ATOM     38  C   UNL     1      17.378  16.387  12.360  0.00  0.00    +0.120 A 
ATOM     39  N   UNL     1      18.077  15.697  13.345  0.00  0.00    -0.263 NA
ATOM     40  C   UNL     1      17.482  15.296  14.551  0.00  0.00    +0.111 A 
ENDBRANCH   4   3
ENDBRANCH  10   9
BRANCH  12  13
ATOM     13  N   UNL     1      11.461  23.750   8.896  0.00  0.00    -0.281 N 
ATOM     14  C   UNL     1      11.139  24.947   9.514  0.00  0.00    +0.248 C 
ATOM     30  O   UNL     1      11.915  25.607  10.188  0.00  0.00    -0.270 OA
ATOM     31  H   UNL     1      10.677  23.208   8.532  0.00  0.00    +0.155 HD
BRANCH  14  15
ATOM     15  C   UNL     1       9.749  25.480   9.375  0.00  0.00    +0.037 A 
ATOM     16  C   UNL     1       8.595  24.734   9.885  0.00  0.00    +0.013 A 
ATOM     17  C   UNL     1       7.264  25.263   9.723  0.00  0.00    +0.005 A 
ATOM     18  C   UNL     1       7.080  26.546   9.049  0.00  0.00    -0.033 A 
ATOM     28  C   UNL     1       8.243  27.267   8.558  0.00  0.00    +0.005 A 
ATOM     29  C   UNL     1       9.549  26.751   8.714  0.00  0.00    +0.013 A 
BRANCH  18  19
ATOM     19  C   UNL     1       5.694  27.176   8.813  0.00  0.00    +0.119 C 
BRANCH  19  20
ATOM     20  N   UNL     1       4.761  26.453   7.899  0.00  0.00    -0.302 NA
ATOM     21  C   UNL     1       3.976  25.359   8.628  0.00  0.00    +0.066 C 
ATOM     22  C   UNL     1       2.988  24.627   7.662  0.00  0.00    -0.064 C 
ATOM     23  N   UNL     1       3.770  24.040   6.486  0.00  0.00    +0.379 N 
ATOM     24  C   UNL     1       2.852  23.302   5.606  0.00  0.00    -0.096 C 
ATOM     25  H   UNL     1       4.504  23.309   6.899  0.00  0.00    -0.082 HD
ATOM     26  C   UNL     1       4.556  25.121   5.757  0.00  0.00    -0.064 C 
ATOM     27  C   UNL     1       5.513  25.861   6.732  0.00  0.00    +0.066 C 
ENDBRANCH  19  20
ENDBRANCH  18  19
ENDBRANCH  14  15
ENDBRANCH  12  13
TORSDOF 6
ENDMDL
MODEL 3
REMARK VINA RESULT:     -10.1      4.457     12.420
REMARK  Name = C:\Users\Docking\Desktop\test protocol\1iep_ligandH.pdb
REMARK  8 active torsions:
REMARK  status: ('A' for Active; 'I' for Inactive)
REMARK    1  A    between atoms: _5  and  _11
REMARK    2  A    between atoms: _19  and  _21
REMARK    3  A    between atoms: _22  and  _66
REMARK    4  A    between atoms: _27  and  _30
REMARK    5  A    between atoms: _32  and  _33
REMARK    6  A    between atoms: _38  and  _43
REMARK    7  A    between atoms: _43  and  _46
REMARK    8  A    between atoms: _53  and  _55
REMARK                            x       y       z     vdW  Elec       q    Type
REMARK                         _______ _______ _______ _____ _____    ______ ____
ROOT
ATOM     10  C   UNL     1      14.823  21.748   9.419  0.00  0.00    +0.038 A 
ATOM     11  C   UNL     1      13.547  22.323   9.649  0.00  0.00    +0.047 A 
ATOM     12  C   UNL     1      12.932  23.206   8.671  0.00  0.00    +0.035 A 
ATOM     32  C   UNL     1      13.643  23.480   7.467  0.00  0.00    +0.024 A 
ATOM     33  C   UNL     1      14.942  22.906   7.216  0.00  0.00    +0.007 A 
ATOM     34  C   UNL     1      15.555  22.036   8.179  0.00  0.00    -0.029 A 
ATOM     35  C   UNL     1      16.951  21.453   7.861  0.00  0.00    +0.045 C 
ENDROOT
BRANCH  10   9
ATOM      4  C   UNL     1      15.309  17.456  11.511  0.00  0.00    +0.077 A 
ATOM      5  C   UNL     1      14.380  16.843  10.605  0.00  0.00    +0.048 A 
ATOM      6  C   UNL     1      13.794  17.669   9.620  0.00  0.00    +0.116 A 
ATOM      7  N   UNL     1      14.120  19.006   9.554  0.00  0.00    -0.223 NA
ATOM      8  C   UNL     1      15.018  19.566  10.445  0.00  0.00    +0.220 A 
ATOM      9  N   UNL     1      15.366  20.907  10.392  0.00  0.00    -0.283 N 
ATOM     36  H   UNL     1      16.027  21.283  11.072  0.00  0.00    +0.155 HD
ATOM     37  N   UNL     1      15.590  18.799  11.396  0.00  0.00    -0.214 NA
BRANCH   4   3
ATOM      1  C   UNL     1      16.085  15.616  14.875  0.00  0.00    +0.020 A 
ATOM      2  C   UNL     1      15.360  16.332  13.851  0.00  0.00    +0.013 A 
ATOM      3  C   UNL     1      16.013  16.714  12.605  0.00  0.00    +0.019 A 
ATOM     38  C   UNL     1      17.411  16.354  12.425  0.00  0.00    +0.120 A 
ATOM     39  N   UNL     1      18.084  15.665  13.430  0.00  0.00    -0.263 NA
ATOM     40  C   UNL     1      17.467  15.294  14.633  0.00  0.00    +0.111 A 
ENDBRANCH   4   3
ENDBRANCH  10   9
BRANCH  12  13
ATOM     13  N   UNL     1      11.642  23.825   8.853  0.00  0.00    -0.281 N 
ATOM     14  C   UNL     1      11.350  25.005   9.518  0.00  0.00    +0.248 C 
ATOM     30  O   UNL     1      12.132  25.600  10.244  0.00  0.00    -0.270 OA
ATOM     31  H   UNL     1      10.848  23.333   8.443  0.00  0.00    +0.155 HD
BRANCH  14  15
ATOM     15  C   UNL     1       9.988  25.601   9.365  0.00  0.00    +0.037 A 
ATOM     16  C   UNL     1       9.108  25.213   8.261  0.00  0.00    +0.013 A 
ATOM     17  C   UNL     1       7.805  25.816   8.128  0.00  0.00    +0.005 A 
ATOM     18  C   UNL     1       7.376  26.815   9.103  0.00  0.00    -0.033 A 
ATOM     28  C   UNL     1       8.267  27.178  10.192  0.00  0.00    +0.005 A 
ATOM     29  C   UNL     1       9.545  26.590  10.326  0.00  0.00    +0.013 A 
BRANCH  18  19
ATOM     19  C   UNL     1       6.012  27.526   9.027  0.00  0.00    +0.119 C 
BRANCH  19  20
ATOM     20  N   UNL     1       5.854  28.592   7.993  0.00  0.00    -0.302 NA
ATOM     21  C   UNL     1       5.322  28.035   6.669  0.00  0.00    +0.066 C 
ATOM     22  C   UNL     1       5.142  29.167   5.606  0.00  0.00    -0.064 C 
ATOM     23  N   UNL     1       6.477  29.882   5.395  0.00  0.00    +0.379 N 
ATOM     24  C   UNL     1       6.324  30.909   4.354  0.00  0.00    -0.096 C 
ATOM     25  H   UNL     1       7.209  29.129   5.023  0.00  0.00    -0.082 HD
ATOM     26  C   UNL     1       7.014  30.438   6.707  0.00  0.00    -0.064 C 
ATOM     27  C   UNL     1       7.162  29.309   7.766  0.00  0.00    +0.066 C 
ENDBRANCH  19  20
ENDBRANCH  18  19
ENDBRANCH  14  15
ENDBRANCH  12  13
TORSDOF 6
ENDMDL
MODEL 4
REMARK VINA RESULT:      -9.4      4.322     11.462
REMARK  Name = C:\Users\Docking\Desktop\test protocol\1iep_ligandH.pdb
REMARK  8 active torsions:
REMARK  status: ('A' for Active; 'I' for Inactive)
REMARK    1  A    between atoms: _5  and  _11
REMARK    2  A    between atoms: _19  and  _21
REMARK    3  A    between atoms: _22  and  _66
REMARK    4  A    between atoms: _27  and  _30
REMARK    5  A    between atoms: _32  and  _33
REMARK    6  A    between atoms: _38  and  _43
REMARK    7  A    between atoms: _43  and  _46
REMARK    8  A    between atoms: _53  and  _55
REMARK                            x       y       z     vdW  Elec       q    Type
REMARK                         _______ _______ _______ _____ _____    ______ ____
ROOT
ATOM     10  C   UNL     1      15.257  21.661   9.384  0.00  0.00    +0.038 A 
ATOM     11  C   UNL     1      14.031  22.352   9.556  0.00  0.00    +0.047 A 
ATOM     12  C   UNL     1      13.504  23.220   8.514  0.00  0.00    +0.035 A 
ATOM     32  C   UNL     1      14.252  23.359   7.309  0.00  0.00    +0.024 A 
ATOM     33  C   UNL     1      15.501  22.664   7.118  0.00  0.00    +0.007 A 
ATOM     34  C   UNL     1      16.026  21.809   8.143  0.00  0.00    -0.029 A 
ATOM     35  C   UNL     1      17.373  21.094   7.886  0.00  0.00    +0.045 C 
ENDROOT
BRANCH  10   9
ATOM      4  C   UNL     1      15.426  17.455  11.691  0.00  0.00    +0.077 A 
ATOM      5  C   UNL     1      14.502  16.849  10.777  0.00  0.00    +0.048 A 
ATOM      6  C   UNL     1      14.000  17.656   9.731  0.00  0.00    +0.116 A 
ATOM      7  N   UNL     1      14.401  18.970   9.617  0.00  0.00    -0.223 NA
ATOM      8  C   UNL     1      15.293  19.524  10.517  0.00  0.00    +0.220 A 
ATOM      9  N   UNL     1      15.716  20.840  10.417  0.00  0.00    -0.283 N 
ATOM     36  H   UNL     1      16.369  21.213  11.105  0.00  0.00    +0.155 HD
ATOM     37  N   UNL     1      15.785  18.774  11.526  0.00  0.00    -0.214 NA
BRANCH   4   3
ATOM      1  C   UNL     1      17.945  15.488  13.947  0.00  0.00    +0.020 A 
ATOM      2  C   UNL     1      17.393  16.177  12.803  0.00  0.00    +0.013 A 
ATOM      3  C   UNL     1      16.046  16.731  12.846  0.00  0.00    +0.019 A 
ATOM     38  C   UNL     1      15.277  16.570  14.071  0.00  0.00    +0.120 A 
ATOM     39  N   UNL     1      15.834  15.900  15.156  0.00  0.00    -0.263 NA
ATOM     40  C   UNL     1      17.129  15.361  15.126  0.00  0.00    +0.111 A 
ENDBRANCH   4   3
ENDBRANCH  10   9
BRANCH  12  13
ATOM     13  N   UNL     1      12.269  23.954   8.635  0.00  0.00    -0.281 N 
ATOM     14  C   UNL     1      11.164  23.640   9.410  0.00  0.00    +0.248 C 
ATOM     30  O   UNL     1      10.988  22.562   9.957  0.00  0.00    -0.270 OA
ATOM     31  H   UNL     1      12.200  24.808   8.082  0.00  0.00    +0.155 HD
BRANCH  14  15
ATOM     15  C   UNL     1      10.095  24.668   9.593  0.00  0.00    +0.037 A 
ATOM     16  C   UNL     1      10.388  25.970  10.197  0.00  0.00    +0.013 A 
ATOM     17  C   UNL     1       9.334  26.938  10.377  0.00  0.00    +0.005 A 
ATOM     18  C   UNL     1       7.977  26.606   9.950  0.00  0.00    -0.033 A 
ATOM     28  C   UNL     1       7.715  25.309   9.349  0.00  0.00    +0.005 A 
ATOM     29  C   UNL     1       8.745  24.358   9.172  0.00  0.00    +0.013 A 
BRANCH  18  19
ATOM     19  C   UNL     1       6.787  27.568  10.123  0.00  0.00    +0.119 C 
BRANCH  19  20
ATOM     20  N   UNL     1       5.757  27.206  11.142  0.00  0.00    -0.302 NA
ATOM     21  C   UNL     1       6.339  26.343  12.266  0.00  0.00    +0.066 C 
ATOM     22  C   UNL     1       5.253  25.993  13.335  0.00  0.00    -0.064 C 
ATOM     23  N   UNL     1       4.083  25.280  12.654  0.00  0.00    +0.379 N 
ATOM     24  C   UNL     1       3.087  24.898  13.666  0.00  0.00    -0.096 C 
ATOM     25  H   UNL     1       4.478  24.343  12.197  0.00  0.00    -0.082 HD
ATOM     26  C   UNL     1       3.500  26.130  11.534  0.00  0.00    -0.064 C 
ATOM     27  C   UNL     1       4.594  26.497  10.493  0.00  0.00    +0.066 C 
ENDBRANCH  19  20
ENDBRANCH  18  19
ENDBRANCH  14  15
ENDBRANCH  12  13
TORSDOF 6
ENDMDL
MODEL 5
REMARK VINA RESULT:      -9.0      5.044     10.912
REMARK  Name = C:\Users\Docking\Desktop\test protocol\1iep_ligandH.pdb
REMARK  8 active torsions:
REMARK  status: ('A' for Active; 'I' for Inactive)
REMARK    1  A    between atoms: _5  and  _11
REMARK    2  A    between atoms: _19  and  _21
REMARK    3  A    between atoms: _22  and  _66
REMARK    4  A    between atoms: _27  and  _30
REMARK    5  A    between atoms: _32  and  _33
REMARK    6  A    between atoms: _38  and  _43
REMARK    7  A    between atoms: _43  and  _46
REMARK    8  A    between atoms: _53  and  _55
REMARK                            x       y       z     vdW  Elec       q    Type
REMARK                         _______ _______ _______ _____ _____    ______ ____
ROOT
ATOM     10  C   UNL     1      13.780  23.575   9.212  0.00  0.00    +0.038 A 
ATOM     11  C   UNL     1      13.482  24.558  10.190  0.00  0.00    +0.047 A 
ATOM     12  C   UNL     1      13.169  25.927   9.810  0.00  0.00    +0.035 A 
ATOM     32  C   UNL     1      13.167  26.260   8.424  0.00  0.00    +0.024 A 
ATOM     33  C   UNL     1      13.468  25.274   7.417  0.00  0.00    +0.007 A 
ATOM     34  C   UNL     1      13.780  23.922   7.785  0.00  0.00    -0.029 A 
ATOM     35  C   UNL     1      14.102  22.908   6.663  0.00  0.00    +0.045 C 
ENDROOT
BRANCH  10   9
ATOM      4  C   UNL     1      16.828  19.929   9.880  0.00  0.00    +0.077 A 
ATOM      5  C   UNL     1      17.924  20.665   9.319  0.00  0.00    +0.048 A 
ATOM      6  C   UNL     1      17.660  21.976   8.863  0.00  0.00    +0.116 A 
ATOM      7  N   UNL     1      16.390  22.502   8.967  0.00  0.00    -0.223 NA
ATOM      8  C   UNL     1      15.355  21.764   9.512  0.00  0.00    +0.220 A 
ATOM      9  N   UNL     1      14.073  22.276   9.633  0.00  0.00    -0.283 N 
ATOM     36  H   UNL     1      13.335  21.698  10.033  0.00  0.00    +0.155 HD
ATOM     37  N   UNL     1      15.582  20.509   9.952  0.00  0.00    -0.214 NA
BRANCH   4   3
ATOM      1  C   UNL     1      17.728  16.139  10.241  0.00  0.00    +0.020 A 
ATOM      2  C   UNL     1      17.639  17.470   9.687  0.00  0.00    +0.013 A 
ATOM      3  C   UNL     1      16.950  18.533  10.408  0.00  0.00    +0.019 A 
ATOM     38  C   UNL     1      16.358  18.213  11.698  0.00  0.00    +0.120 A 
ATOM     39  N   UNL     1      16.458  16.922  12.206  0.00  0.00    -0.263 NA
ATOM     40  C   UNL     1      17.118  15.891  11.521  0.00  0.00    +0.111 A 
ENDBRANCH   4   3
ENDBRANCH  10   9
BRANCH  12  13
ATOM     13  N   UNL     1      12.867  26.970  10.759  0.00  0.00    -0.281 N 
ATOM     14  C   UNL     1      11.623  27.471  11.106  0.00  0.00    +0.248 C 
ATOM     30  O   UNL     1      10.590  27.244  10.492  0.00  0.00    -0.270 OA
ATOM     31  H   UNL     1      13.667  27.390  11.232  0.00  0.00    +0.155 HD
BRANCH  14  15
ATOM     15  C   UNL     1      11.511  28.365  12.299  0.00  0.00    +0.037 A 
ATOM     16  C   UNL     1      10.233  28.972  12.676  0.00  0.00    +0.013 A 
ATOM     17  C   UNL     1      10.156  29.845  13.821  0.00  0.00    +0.005 A 
ATOM     18  C   UNL     1      11.364  30.113  14.598  0.00  0.00    -0.033 A 
ATOM     28  C   UNL     1      12.618  29.494  14.204  0.00  0.00    +0.005 A 
ATOM     29  C   UNL     1      12.697  28.639  13.082  0.00  0.00    +0.013 A 
BRANCH  18  19
ATOM     19  C   UNL     1      11.380  31.048  15.822  0.00  0.00    +0.119 C 
BRANCH  19  20
ATOM     20  N   UNL     1      12.411  30.785  16.870  0.00  0.00    -0.302 NA
ATOM     21  C   UNL     1      11.787  30.306  18.184  0.00  0.00    +0.066 C 
ATOM     22  C   UNL     1      12.881  30.014  19.261  0.00  0.00    -0.064 C 
ATOM     23  N   UNL     1      13.719  31.274  19.487  0.00  0.00    +0.379 N 
ATOM     24  C   UNL     1      14.712  31.020  20.542  0.00  0.00    -0.096 C 
ATOM     25  H   UNL     1      13.034  32.074  19.853  0.00  0.00    -0.082 HD
ATOM     26  C   UNL     1      14.342  31.759  18.186  0.00  0.00    -0.064 C 
ATOM     27  C   UNL     1      13.247  32.018  17.112  0.00  0.00    +0.066 C 
ENDBRANCH  19  20
ENDBRANCH  18  19
ENDBRANCH  14  15
ENDBRANCH  12  13
TORSDOF 6
ENDMDL
