MODEL 1
REMARK VINA RESULT:      -8.5      0.000      0.000
REMARK  Name = C:\Users\Docking\Desktop\test protocol\1iep_ligandH.pdb
REMARK  8 active torsions:
REMARK  status: ('A' for Active; 'I' for Inactive)
REMARK    1  A    between atoms: _5  and  _11
REMARK    2  A    between atoms: _19  and  _21
REMARK    3  A    between atoms: _22  and  _66
REMARK    4  A    between atoms: _27  and  _30
REMARK    5  A    between atoms: _32  and  _33
REMARK    6  A    between atoms: _38  and  _43
REMARK    7  A    between atoms: _43  and  _46
REMARK    8  A    between atoms: _53  and  _55
REMARK                            x       y       z     vdW  Elec       q    Type
REMARK                         _______ _______ _______ _____ _____    ______ ____
ROOT
ATOM     10  C   UNL     1     -14.479  13.062   1.680  0.00  0.00    +0.038 A 
ATOM     11  C   UNL     1     -13.251  13.356   1.036  0.00  0.00    +0.047 A 
ATOM     12  C   UNL     1     -13.182  13.541  -0.406  0.00  0.00    +0.035 A 
ATOM     32  C   UNL     1     -14.386  13.422  -1.160  0.00  0.00    +0.024 A 
ATOM     33  C   UNL     1     -15.644  13.123  -0.521  0.00  0.00    +0.007 A 
ATOM     34  C   UNL     1     -15.717  12.937   0.900  0.00  0.00    -0.029 A 
ATOM     35  C   UNL     1     -17.091  12.612   1.531  0.00  0.00    +0.045 C 
ENDROOT
BRANCH  10   9
ATOM      4  C   UNL     1     -14.438  14.801   6.154  0.00  0.00    +0.077 A 
ATOM      5  C   UNL     1     -14.369  16.157   5.689  0.00  0.00    +0.048 A 
ATOM      6  C   UNL     1     -14.338  16.363   4.292  0.00  0.00    +0.116 A 
ATOM      7  N   UNL     1     -14.375  15.287   3.432  0.00  0.00    -0.223 NA
ATOM      8  C   UNL     1     -14.441  13.992   3.913  0.00  0.00    +0.220 A 
ATOM      9  N   UNL     1     -14.487  12.895   3.067  0.00  0.00    -0.283 N 
ATOM     36  H   UNL     1     -14.528  11.956   3.461  0.00  0.00    +0.155 HD
ATOM     37  N   UNL     1     -14.470  13.769   5.244  0.00  0.00    -0.214 NA
BRANCH   4   3
ATOM      1  C   UNL     1     -13.481  14.310   9.914  0.00  0.00    +0.020 A 
ATOM      2  C   UNL     1     -13.389  14.697   8.525  0.00  0.00    +0.013 A 
ATOM      3  C   UNL     1     -14.481  14.421   7.601  0.00  0.00    +0.019 A 
ATOM     38  C   UNL     1     -15.663  13.747   8.118  0.00  0.00    +0.120 A 
ATOM     39  N   UNL     1     -15.722  13.385   9.460  0.00  0.00    -0.263 NA
ATOM     40  C   UNL     1     -14.676  13.643  10.359  0.00  0.00    +0.111 A 
ENDBRANCH   4   3
ENDBRANCH  10   9
BRANCH  12  13
ATOM     13  N   UNL     1     -11.962  13.832  -1.116  0.00  0.00    -0.281 N 
ATOM     14  C   UNL     1     -10.707  14.081  -0.586  0.00  0.00    +0.248 C 
ATOM     30  O   UNL     1     -10.487  14.303   0.595  0.00  0.00    -0.270 OA
ATOM     31  H   UNL     1     -12.032  13.858  -2.134  0.00  0.00    +0.155 HD
BRANCH  14  15
ATOM     15  C   UNL     1      -9.527  14.101  -1.504  0.00  0.00    +0.037 A 
ATOM     16  C   UNL     1      -8.198  14.488  -1.024  0.00  0.00    +0.013 A 
ATOM     17  C   UNL     1      -7.080  14.516  -1.934  0.00  0.00    +0.005 A 
ATOM     18  C   UNL     1      -7.287  14.153  -3.334  0.00  0.00    -0.033 A 
ATOM     28  C   UNL     1      -8.615  13.768  -3.782  0.00  0.00    +0.005 A 
ATOM     29  C   UNL     1      -9.713  13.741  -2.893  0.00  0.00    +0.013 A 
BRANCH  18  19
ATOM     19  C   UNL     1      -6.156  14.175  -4.379  0.00  0.00    +0.119 C 
BRANCH  19  20
ATOM     20  N   UNL     1      -6.366  15.015  -5.596  0.00  0.00    -0.302 NA
ATOM     21  C   UNL     1      -6.717  14.169  -6.824  0.00  0.00    +0.066 C 
ATOM     22  C   UNL     1      -6.955  15.066  -8.082  0.00  0.00    -0.064 C 
ATOM     23  N   UNL     1      -5.709  15.912  -8.346  0.00  0.00    +0.379 N 
ATOM     24  C   UNL     1      -5.907  16.713  -9.563  0.00  0.00    -0.096 C 
ATOM     25  H   UNL     1      -4.860  15.213  -8.535  0.00  0.00    -0.082 HD
ATOM     26  C   UNL     1      -5.351  16.753  -7.129  0.00  0.00    -0.064 C 
ATOM     27  C   UNL     1      -5.145  15.855  -5.877  0.00  0.00    +0.066 C 
ENDBRANCH  19  20
ENDBRANCH  18  19
ENDBRANCH  14  15
ENDBRANCH  12  13
TORSDOF 6
ENDMDL
MODEL 2
REMARK VINA RESULT:      -8.0      2.346     13.427
REMARK  Name = C:\Users\Docking\Desktop\test protocol\1iep_ligandH.pdb
REMARK  8 active torsions:
REMARK  status: ('A' for Active; 'I' for Inactive)
REMARK    1  A    between atoms: _5  and  _11
REMARK    2  A    between atoms: _19  and  _21
REMARK    3  A    between atoms: _22  and  _66
REMARK    4  A    between atoms: _27  and  _30
REMARK    5  A    between atoms: _32  and  _33
REMARK    6  A    between atoms: _38  and  _43
REMARK    7  A    between atoms: _43  and  _46
REMARK    8  A    between atoms: _53  and  _55
REMARK                            x       y       z     vdW  Elec       q    Type
REMARK                         _______ _______ _______ _____ _____    ______ ____
ROOT
ATOM     10  C   UNL     1     -14.179  12.970   0.286  0.00  0.00    +0.038 A 
ATOM     11  C   UNL     1     -13.785  13.144   1.637  0.00  0.00    +0.047 A 
ATOM     12  C   UNL     1     -14.767  13.167   2.710  0.00  0.00    +0.035 A 
ATOM     32  C   UNL     1     -16.142  13.007   2.371  0.00  0.00    +0.024 A 
ATOM     33  C   UNL     1     -16.560  12.830   1.003  0.00  0.00    +0.007 A 
ATOM     34  C   UNL     1     -15.596  12.809  -0.060  0.00  0.00    -0.029 A 
ATOM     35  C   UNL     1     -16.102  12.622  -1.510  0.00  0.00    +0.045 C 
ENDROOT
BRANCH  10   9
ATOM      4  C   UNL     1     -11.179  15.190  -2.732  0.00  0.00    +0.077 A 
ATOM      5  C   UNL     1     -11.632  16.488  -2.321  0.00  0.00    +0.048 A 
ATOM      6  C   UNL     1     -12.643  16.540  -1.336  0.00  0.00    +0.116 A 
ATOM      7  N   UNL     1     -13.155  15.375  -0.807  0.00  0.00    -0.223 NA
ATOM      8  C   UNL     1     -12.698  14.140  -1.227  0.00  0.00    +0.220 A 
ATOM      9  N   UNL     1     -13.194  12.956  -0.704  0.00  0.00    -0.283 N 
ATOM     36  H   UNL     1     -12.835  12.064  -1.046  0.00  0.00    +0.155 HD
ATOM     37  N   UNL     1     -11.734  14.063  -2.168  0.00  0.00    -0.214 NA
BRANCH   4   3
ATOM      1  C   UNL     1      -7.806  14.240  -4.470  0.00  0.00    +0.020 A 
ATOM      2  C   UNL     1      -8.798  14.433  -3.438  0.00  0.00    +0.013 A 
ATOM      3  C   UNL     1     -10.114  14.970  -3.762  0.00  0.00    +0.019 A 
ATOM     38  C   UNL     1     -10.396  15.303  -5.150  0.00  0.00    +0.120 A 
ATOM     39  N   UNL     1      -9.420  15.108  -6.122  0.00  0.00    -0.263 NA
ATOM     40  C   UNL     1      -8.150  14.593  -5.822  0.00  0.00    +0.111 A 
ENDBRANCH   4   3
ENDBRANCH  10   9
BRANCH  12  13
ATOM     13  N   UNL     1     -14.427  13.349   4.100  0.00  0.00    -0.281 N 
ATOM     14  C   UNL     1     -14.613  14.478   4.881  0.00  0.00    +0.248 C 
ATOM     30  O   UNL     1     -14.906  15.581   4.444  0.00  0.00    -0.270 OA
ATOM     31  H   UNL     1     -13.998  12.548   4.564  0.00  0.00    +0.155 HD
BRANCH  14  15
ATOM     15  C   UNL     1     -14.433  14.369   6.361  0.00  0.00    +0.037 A 
ATOM     16  C   UNL     1     -15.175  13.379   7.146  0.00  0.00    +0.013 A 
ATOM     17  C   UNL     1     -14.995  13.307   8.575  0.00  0.00    +0.005 A 
ATOM     18  C   UNL     1     -14.067  14.228   9.227  0.00  0.00    -0.033 A 
ATOM     28  C   UNL     1     -13.340  15.196   8.423  0.00  0.00    +0.005 A 
ATOM     29  C   UNL     1     -13.514  15.271   7.023  0.00  0.00    +0.013 A 
BRANCH  18  19
ATOM     19  C   UNL     1     -13.829  14.236  10.749  0.00  0.00    +0.119 C 
BRANCH  19  20
ATOM     20  N   UNL     1     -14.614  13.266  11.569  0.00  0.00    -0.302 NA
ATOM     21  C   UNL     1     -15.991  13.817  11.949  0.00  0.00    +0.066 C 
ATOM     22  C   UNL     1     -16.807  12.781  12.788  0.00  0.00    -0.064 C 
ATOM     23  N   UNL     1     -16.012  12.401  14.038  0.00  0.00    +0.379 N 
ATOM     24  C   UNL     1     -16.801  11.471  14.858  0.00  0.00    -0.096 C 
ATOM     25  H   UNL     1     -15.856  13.330  14.635  0.00  0.00    -0.082 HD
ATOM     26  C   UNL     1     -14.640  11.855  13.670  0.00  0.00    -0.064 C 
ATOM     27  C   UNL     1     -13.848  12.881  12.811  0.00  0.00    +0.066 C 
ENDBRANCH  19  20
ENDBRANCH  18  19
ENDBRANCH  14  15
ENDBRANCH  12  13
TORSDOF 6
ENDMDL
MODEL 3
REMARK VINA RESULT:      -7.9      3.838      8.860
REMARK  Name = C:\Users\Docking\Desktop\test protocol\1iep_ligandH.pdb
REMARK  8 active torsions:
REMARK  status: ('A' for Active; 'I' for Inactive)
REMARK    1  A    between atoms: _5  and  _11
REMARK    2  A    between atoms: _19  and  _21
REMARK    3  A    between atoms: _22  and  _66
REMARK    4  A    between atoms: _27  and  _30
REMARK    5  A    between atoms: _32  and  _33
REMARK    6  A    between atoms: _38  and  _43
REMARK    7  A    between atoms: _43  and  _46
REMARK    8  A    between atoms: _53  and  _55
REMARK                            x       y       z     vdW  Elec       q    Type
REMARK                         _______ _______ _______ _____ _____    ______ ____
ROOT
ATOM     10  C   UNL     1     -13.763  14.028  10.834  0.00  0.00    +0.038 A 
ATOM     11  C   UNL     1     -13.913  13.734   9.455  0.00  0.00    +0.047 A 
ATOM     12  C   UNL     1     -13.594  14.721   8.436  0.00  0.00    +0.035 A 
ATOM     32  C   UNL     1     -13.122  15.999   8.857  0.00  0.00    +0.024 A 
ATOM     33  C   UNL     1     -12.964  16.315  10.255  0.00  0.00    +0.007 A 
ATOM     34  C   UNL     1     -13.280  15.345  11.265  0.00  0.00    -0.029 A 
ATOM     35  C   UNL     1     -13.098  15.741  12.748  0.00  0.00    +0.045 C 
ENDROOT
BRANCH  10   9
ATOM      4  C   UNL     1     -16.781  11.967  13.945  0.00  0.00    +0.077 A 
ATOM      5  C   UNL     1     -17.795  12.953  13.706  0.00  0.00    +0.048 A 
ATOM      6  C   UNL     1     -17.497  13.978  12.780  0.00  0.00    +0.116 A 
ATOM      7  N   UNL     1     -16.274  14.005  12.147  0.00  0.00    -0.223 NA
ATOM      8  C   UNL     1     -15.317  13.039  12.401  0.00  0.00    +0.220 A 
ATOM      9  N   UNL     1     -14.083  13.042  11.770  0.00  0.00    -0.283 N 
ATOM     36  H   UNL     1     -13.402  12.316  11.991  0.00  0.00    +0.155 HD
ATOM     37  N   UNL     1     -15.577  12.050  13.282  0.00  0.00    -0.214 NA
BRANCH   4   3
ATOM      1  C   UNL     1     -16.792   9.769  17.181  0.00  0.00    +0.020 A 
ATOM      2  C   UNL     1     -16.612  10.907  16.309  0.00  0.00    +0.013 A 
ATOM      3  C   UNL     1     -16.947  10.820  14.893  0.00  0.00    +0.019 A 
ATOM     38  C   UNL     1     -17.465   9.557  14.388  0.00  0.00    +0.120 A 
ATOM     39  N   UNL     1     -17.626   8.478  15.251  0.00  0.00    -0.263 NA
ATOM     40  C   UNL     1     -17.306   8.550  16.615  0.00  0.00    +0.111 A 
ENDBRANCH   4   3
ENDBRANCH  10   9
BRANCH  12  13
ATOM     13  N   UNL     1     -13.734  14.483   7.020  0.00  0.00    -0.281 N 
ATOM     14  C   UNL     1     -14.747  14.915   6.180  0.00  0.00    +0.248 C 
ATOM     30  O   UNL     1     -15.804  15.395   6.562  0.00  0.00    -0.270 OA
ATOM     31  H   UNL     1     -12.997  13.928   6.585  0.00  0.00    +0.155 HD
BRANCH  14  15
ATOM     15  C   UNL     1     -14.567  14.780   4.703  0.00  0.00    +0.037 A 
ATOM     16  C   UNL     1     -14.793  13.503   4.022  0.00  0.00    +0.013 A 
ATOM     17  C   UNL     1     -14.594  13.396   2.599  0.00  0.00    +0.005 A 
ATOM     18  C   UNL     1     -14.169  14.573   1.845  0.00  0.00    -0.033 A 
ATOM     28  C   UNL     1     -13.957  15.830   2.544  0.00  0.00    +0.005 A 
ATOM     29  C   UNL     1     -14.149  15.937   3.940  0.00  0.00    +0.013 A 
BRANCH  18  19
ATOM     19  C   UNL     1     -13.913  14.546   0.326  0.00  0.00    +0.119 C 
BRANCH  19  20
ATOM     20  N   UNL     1     -12.616  15.108  -0.158  0.00  0.00    -0.302 NA
ATOM     21  C   UNL     1     -12.789  15.926  -1.441  0.00  0.00    +0.066 C 
ATOM     22  C   UNL     1     -11.427  16.525  -1.922  0.00  0.00    -0.064 C 
ATOM     23  N   UNL     1     -10.421  15.392  -2.134  0.00  0.00    +0.379 N 
ATOM     24  C   UNL     1      -9.158  15.945  -2.641  0.00  0.00    -0.096 C 
ATOM     25  H   UNL     1     -10.834  14.716  -2.918  0.00  0.00    -0.082 HD
ATOM     26  C   UNL     1     -10.246  14.571  -0.864  0.00  0.00    -0.064 C 
ATOM     27  C   UNL     1     -11.610  14.005  -0.378  0.00  0.00    +0.066 C 
ENDBRANCH  19  20
ENDBRANCH  18  19
ENDBRANCH  14  15
ENDBRANCH  12  13
TORSDOF 6
ENDMDL
MODEL 4
REMARK VINA RESULT:      -7.7      3.569     14.070
REMARK  Name = C:\Users\Docking\Desktop\test protocol\1iep_ligandH.pdb
REMARK  8 active torsions:
REMARK  status: ('A' for Active; 'I' for Inactive)
REMARK    1  A    between atoms: _5  and  _11
REMARK    2  A    between atoms: _19  and  _21
REMARK    3  A    between atoms: _22  and  _66
REMARK    4  A    between atoms: _27  and  _30
REMARK    5  A    between atoms: _32  and  _33
REMARK    6  A    between atoms: _38  and  _43
REMARK    7  A    between atoms: _43  and  _46
REMARK    8  A    between atoms: _53  and  _55
REMARK                            x       y       z     vdW  Elec       q    Type
REMARK                         _______ _______ _______ _____ _____    ______ ____
ROOT
ATOM     10  C   UNL     1     -14.851  13.202   3.112  0.00  0.00    +0.038 A 
ATOM     11  C   UNL     1     -14.541  13.681   4.411  0.00  0.00    +0.047 A 
ATOM     12  C   UNL     1     -15.584  13.901   5.400  0.00  0.00    +0.035 A 
ATOM     32  C   UNL     1     -16.933  13.621   5.034  0.00  0.00    +0.024 A 
ATOM     33  C   UNL     1     -17.266  13.135   3.718  0.00  0.00    +0.007 A 
ATOM     34  C   UNL     1     -16.241  12.918   2.737  0.00  0.00    -0.029 A 
ATOM     35  C   UNL     1     -16.657  12.401   1.340  0.00  0.00    +0.045 C 
ENDROOT
BRANCH  10   9
ATOM      4  C   UNL     1     -11.936  14.743  -0.376  0.00  0.00    +0.077 A 
ATOM      5  C   UNL     1     -12.558  16.036  -0.405  0.00  0.00    +0.048 A 
ATOM      6  C   UNL     1     -13.629  16.261   0.488  0.00  0.00    +0.116 A 
ATOM      7  N   UNL     1     -14.039  15.261   1.343  0.00  0.00    -0.223 NA
ATOM      8  C   UNL     1     -13.419  14.025   1.345  0.00  0.00    +0.220 A 
ATOM      9  N   UNL     1     -13.810  13.008   2.202  0.00  0.00    -0.283 N 
ATOM     36  H   UNL     1     -13.331  12.108   2.167  0.00  0.00    +0.155 HD
ATOM     37  N   UNL     1     -12.395  13.785   0.500  0.00  0.00    -0.214 NA
BRANCH   4   3
ATOM      1  C   UNL     1      -9.823  13.562  -3.448  0.00  0.00    +0.020 A 
ATOM      2  C   UNL     1     -10.963  13.927  -2.640  0.00  0.00    +0.013 A 
ATOM      3  C   UNL     1     -10.790  14.354  -1.257  0.00  0.00    +0.019 A 
ATOM     38  C   UNL     1      -9.439  14.401  -0.719  0.00  0.00    +0.120 A 
ATOM     39  N   UNL     1      -8.360  14.042  -1.520  0.00  0.00    -0.263 NA
ATOM     40  C   UNL     1      -8.515  13.628  -2.852  0.00  0.00    +0.111 A 
ENDBRANCH   4   3
ENDBRANCH  10   9
BRANCH  12  13
ATOM     13  N   UNL     1     -15.331  14.394   6.732  0.00  0.00    -0.281 N 
ATOM     14  C   UNL     1     -15.199  13.661   7.900  0.00  0.00    +0.248 C 
ATOM     30  O   UNL     1     -15.492  12.480   8.012  0.00  0.00    -0.270 OA
ATOM     31  H   UNL     1     -15.237  15.405   6.824  0.00  0.00    +0.155 HD
BRANCH  14  15
ATOM     15  C   UNL     1     -14.679  14.342   9.124  0.00  0.00    +0.037 A 
ATOM     16  C   UNL     1     -13.539  15.260   9.058  0.00  0.00    +0.013 A 
ATOM     17  C   UNL     1     -13.047  15.890  10.257  0.00  0.00    +0.005 A 
ATOM     18  C   UNL     1     -13.696  15.606  11.534  0.00  0.00    -0.033 A 
ATOM     28  C   UNL     1     -14.829  14.695  11.571  0.00  0.00    +0.005 A 
ATOM     29  C   UNL     1     -15.313  14.074  10.398  0.00  0.00    +0.013 A 
BRANCH  18  19
ATOM     19  C   UNL     1     -13.225  16.217  12.867  0.00  0.00    +0.119 C 
BRANCH  19  20
ATOM     20  N   UNL     1     -13.842  15.686  14.119  0.00  0.00    -0.302 NA
ATOM     21  C   UNL     1     -14.468  16.796  14.967  0.00  0.00    +0.066 C 
ATOM     22  C   UNL     1     -15.128  16.220  16.261  0.00  0.00    -0.064 C 
ATOM     23  N   UNL     1     -14.080  15.451  17.066  0.00  0.00    +0.379 N 
ATOM     24  C   UNL     1     -14.683  14.957  18.313  0.00  0.00    -0.096 C 
ATOM     25  H   UNL     1     -13.272  16.168  17.342  0.00  0.00    -0.082 HD
ATOM     26  C   UNL     1     -13.450  14.346  16.230  0.00  0.00    -0.064 C 
ATOM     27  C   UNL     1     -12.822  14.926  14.931  0.00  0.00    +0.066 C 
ENDBRANCH  19  20
ENDBRANCH  18  19
ENDBRANCH  14  15
ENDBRANCH  12  13
TORSDOF 6
ENDMDL
MODEL 5
REMARK VINA RESULT:      -7.7      6.786      9.545
REMARK  Name = C:\Users\Docking\Desktop\test protocol\1iep_ligandH.pdb
REMARK  8 active torsions:
REMARK  status: ('A' for Active; 'I' for Inactive)
REMARK    1  A    between atoms: _5  and  _11
REMARK    2  A    between atoms: _19  and  _21
REMARK    3  A    between atoms: _22  and  _66
REMARK    4  A    between atoms: _27  and  _30
REMARK    5  A    between atoms: _32  and  _33
REMARK    6  A    between atoms: _38  and  _43
REMARK    7  A    between atoms: _43  and  _46
REMARK    8  A    between atoms: _53  and  _55
REMARK                            x       y       z     vdW  Elec       q    Type
REMARK                         _______ _______ _______ _____ _____    ______ ____
ROOT
ATOM     10  C   UNL     1     -14.641  13.005   1.345  0.00  0.00    +0.038 A 
ATOM     11  C   UNL     1     -14.475  11.665   0.908  0.00  0.00    +0.047 A 
ATOM     12  C   UNL     1     -14.976  11.228  -0.386  0.00  0.00    +0.035 A 
ATOM     32  C   UNL     1     -15.638  12.183  -1.211  0.00  0.00    +0.024 A 
ATOM     33  C   UNL     1     -15.816  13.548  -0.783  0.00  0.00    +0.007 A 
ATOM     34  C   UNL     1     -15.327  13.984   0.494  0.00  0.00    -0.029 A 
ATOM     35  C   UNL     1     -15.552  15.458   0.904  0.00  0.00    +0.045 C 
ENDROOT
BRANCH  10   9
ATOM      4  C   UNL     1     -15.174  13.798   6.049  0.00  0.00    +0.077 A 
ATOM      5  C   UNL     1     -16.573  13.484   6.003  0.00  0.00    +0.048 A 
ATOM      6  C   UNL     1     -17.118  13.130   4.749  0.00  0.00    +0.116 A 
ATOM      7  N   UNL     1     -16.315  13.096   3.630  0.00  0.00    -0.223 NA
ATOM      8  C   UNL     1     -14.969  13.406   3.708  0.00  0.00    +0.220 A 
ATOM      9  N   UNL     1     -14.141  13.370   2.597  0.00  0.00    -0.283 N 
ATOM     36  H   UNL     1     -13.155  13.612   2.695  0.00  0.00    +0.155 HD
ATOM     37  N   UNL     1     -14.425  13.748   4.894  0.00  0.00    -0.214 NA
BRANCH   4   3
ATOM      1  C   UNL     1     -12.733  15.534   8.564  0.00  0.00    +0.020 A 
ATOM      2  C   UNL     1     -13.400  15.195   7.328  0.00  0.00    +0.013 A 
ATOM      3  C   UNL     1     -14.451  14.186   7.301  0.00  0.00    +0.019 A 
ATOM     38  C   UNL     1     -14.807  13.534   8.552  0.00  0.00    +0.120 A 
ATOM     39  N   UNL     1     -14.147  13.880   9.727  0.00  0.00    -0.263 NA
ATOM     40  C   UNL     1     -13.133  14.848   9.765  0.00  0.00    +0.111 A 
ENDBRANCH   4   3
ENDBRANCH  10   9
BRANCH  12  13
ATOM     13  N   UNL     1     -14.844   9.880  -0.879  0.00  0.00    -0.281 N 
ATOM     14  C   UNL     1     -15.854   8.989  -1.204  0.00  0.00    +0.248 C 
ATOM     30  O   UNL     1     -17.031   9.145  -0.915  0.00  0.00    -0.270 OA
ATOM     31  H   UNL     1     -13.890   9.541  -1.004  0.00  0.00    +0.155 HD
BRANCH  14  15
ATOM     15  C   UNL     1     -15.504   7.739  -1.943  0.00  0.00    +0.037 A 
ATOM     16  C   UNL     1     -15.510   7.695  -3.408  0.00  0.00    +0.013 A 
ATOM     17  C   UNL     1     -15.185   6.471  -4.096  0.00  0.00    +0.005 A 
ATOM     18  C   UNL     1     -14.849   5.280  -3.319  0.00  0.00    -0.033 A 
ATOM     28  C   UNL     1     -14.845   5.353  -1.867  0.00  0.00    +0.005 A 
ATOM     29  C   UNL     1     -15.164   6.551  -1.189  0.00  0.00    +0.013 A 
BRANCH  18  19
ATOM     19  C   UNL     1     -14.509   3.925  -3.969  0.00  0.00    +0.119 C 
BRANCH  19  20
ATOM     20  N   UNL     1     -14.707   2.700  -3.139  0.00  0.00    -0.302 NA
ATOM     21  C   UNL     1     -13.755   1.571  -3.545  0.00  0.00    +0.066 C 
ATOM     22  C   UNL     1     -13.960   0.305  -2.652  0.00  0.00    -0.064 C 
ATOM     23  N   UNL     1     -15.416  -0.154  -2.748  0.00  0.00    +0.379 N 
ATOM     24  C   UNL     1     -15.599  -1.378  -1.955  0.00  0.00    -0.096 C 
ATOM     25  H   UNL     1     -15.621  -0.407  -3.814  0.00  0.00    -0.082 HD
ATOM     26  C   UNL     1     -16.370   0.963  -2.349  0.00  0.00    -0.064 C 
ATOM     27  C   UNL     1     -16.138   2.227  -3.223  0.00  0.00    +0.066 C 
ENDBRANCH  19  20
ENDBRANCH  18  19
ENDBRANCH  14  15
ENDBRANCH  12  13
TORSDOF 6
ENDMDL
