MODEL 1
REMARK VINA RESULT:      -8.4      0.000      0.000
REMARK  Name = C:\Users\Docking\Desktop\test protocol\1iep_ligandH.pdb
REMARK  8 active torsions:
REMARK  status: ('A' for Active; 'I' for Inactive)
REMARK    1  A    between atoms: _5  and  _11
REMARK    2  A    between atoms: _19  and  _21
REMARK    3  A    between atoms: _22  and  _66
REMARK    4  A    between atoms: _27  and  _30
REMARK    5  A    between atoms: _32  and  _33
REMARK    6  A    between atoms: _38  and  _43
REMARK    7  A    between atoms: _43  and  _46
REMARK    8  A    between atoms: _53  and  _55
REMARK                            x       y       z     vdW  Elec       q    Type
REMARK                         _______ _______ _______ _____ _____    ______ ____
ROOT
ATOM     10  C   UNL     1       3.776  -8.759  31.001  0.00  0.00    +0.038 A 
ATOM     11  C   UNL     1       4.803  -9.703  31.257  0.00  0.00    +0.047 A 
ATOM     12  C   UNL     1       6.206  -9.333  31.154  0.00  0.00    +0.035 A 
ATOM     32  C   UNL     1       6.527  -7.993  30.790  0.00  0.00    +0.024 A 
ATOM     33  C   UNL     1       5.496  -7.021  30.526  0.00  0.00    +0.007 A 
ATOM     34  C   UNL     1       4.110  -7.380  30.624  0.00  0.00    -0.029 A 
ATOM     35  C   UNL     1       3.046  -6.299  30.323  0.00  0.00    +0.045 C 
ENDROOT
BRANCH  10   9
ATOM      4  C   UNL     1      -0.270 -10.564  29.155  0.00  0.00    +0.077 A 
ATOM      5  C   UNL     1       0.307 -10.677  27.846  0.00  0.00    +0.048 A 
ATOM      6  C   UNL     1       1.646 -10.253  27.689  0.00  0.00    +0.116 A 
ATOM      7  N   UNL     1       2.345  -9.755  28.767  0.00  0.00    -0.223 NA
ATOM      8  C   UNL     1       1.758  -9.658  30.015  0.00  0.00    +0.220 A 
ATOM      9  N   UNL     1       2.445  -9.168  31.115  0.00  0.00    -0.283 N 
ATOM     36  H   UNL     1       1.974  -9.105  32.017  0.00  0.00    +0.155 HD
ATOM     37  N   UNL     1       0.480 -10.055  30.191  0.00  0.00    -0.214 NA
BRANCH   4   3
ATOM      1  C   UNL     1      -4.089 -11.360  28.866  0.00  0.00    +0.020 A 
ATOM      2  C   UNL     1      -2.752 -10.955  28.500  0.00  0.00    +0.013 A 
ATOM      3  C   UNL     1      -1.673 -10.973  29.480  0.00  0.00    +0.019 A 
ATOM     38  C   UNL     1      -1.984 -11.412  30.833  0.00  0.00    +0.120 A 
ATOM     39  N   UNL     1      -3.281 -11.795  31.157  0.00  0.00    -0.263 NA
ATOM     40  C   UNL     1      -4.328 -11.780  30.222  0.00  0.00    +0.111 A 
ENDBRANCH   4   3
ENDBRANCH  10   9
BRANCH  12  13
ATOM     13  N   UNL     1       7.293 -10.250  31.394  0.00  0.00    -0.281 N 
ATOM     14  C   UNL     1       7.302 -11.362  32.219  0.00  0.00    +0.248 C 
ATOM     30  O   UNL     1       6.439 -11.617  33.046  0.00  0.00    -0.270 OA
ATOM     31  H   UNL     1       8.161 -10.056  30.894  0.00  0.00    +0.155 HD
BRANCH  14  15
ATOM     15  C   UNL     1       8.443 -12.324  32.123  0.00  0.00    +0.037 A 
ATOM     16  C   UNL     1       9.121 -12.821  33.323  0.00  0.00    +0.013 A 
ATOM     17  C   UNL     1      10.230 -13.734  33.201  0.00  0.00    +0.005 A 
ATOM     18  C   UNL     1      10.665 -14.158  31.872  0.00  0.00    -0.033 A 
ATOM     28  C   UNL     1       9.971 -13.654  30.699  0.00  0.00    +0.005 A 
ATOM     29  C   UNL     1       8.885 -12.758  30.815  0.00  0.00    +0.013 A 
BRANCH  18  19
ATOM     19  C   UNL     1      11.852 -15.114  31.647  0.00  0.00    +0.119 C 
BRANCH  19  20
ATOM     20  N   UNL     1      13.222 -14.572  31.890  0.00  0.00    -0.302 NA
ATOM     21  C   UNL     1      13.190 -13.108  32.338  0.00  0.00    +0.066 C 
ATOM     22  C   UNL     1      14.630 -12.563  32.609  0.00  0.00    -0.064 C 
ATOM     23  N   UNL     1      15.479 -12.725  31.347  0.00  0.00    +0.379 N 
ATOM     24  C   UNL     1      16.817 -12.161  31.580  0.00  0.00    -0.096 C 
ATOM     25  H   UNL     1      14.997 -12.129  30.537  0.00  0.00    -0.082 HD
ATOM     26  C   UNL     1      15.515 -14.177  30.893  0.00  0.00    -0.064 C 
ATOM     27  C   UNL     1      14.077 -14.717  30.654  0.00  0.00    +0.066 C 
ENDBRANCH  19  20
ENDBRANCH  18  19
ENDBRANCH  14  15
ENDBRANCH  12  13
TORSDOF 6
ENDMDL
MODEL 2
REMARK VINA RESULT:      -8.4     22.374     28.292
REMARK  Name = C:\Users\Docking\Desktop\test protocol\1iep_ligandH.pdb
REMARK  8 active torsions:
REMARK  status: ('A' for Active; 'I' for Inactive)
REMARK    1  A    between atoms: _5  and  _11
REMARK    2  A    between atoms: _19  and  _21
REMARK    3  A    between atoms: _22  and  _66
REMARK    4  A    between atoms: _27  and  _30
REMARK    5  A    between atoms: _32  and  _33
REMARK    6  A    between atoms: _38  and  _43
REMARK    7  A    between atoms: _43  and  _46
REMARK    8  A    between atoms: _53  and  _55
REMARK                            x       y       z     vdW  Elec       q    Type
REMARK                         _______ _______ _______ _____ _____    ______ ____
ROOT
ATOM     10  C   UNL     1       9.814  10.776  29.434  0.00  0.00    +0.038 A 
ATOM     11  C   UNL     1       9.129  11.851  28.813  0.00  0.00    +0.047 A 
ATOM     12  C   UNL     1       7.762  12.184  29.182  0.00  0.00    +0.035 A 
ATOM     32  C   UNL     1       7.124  11.403  30.189  0.00  0.00    +0.024 A 
ATOM     33  C   UNL     1       7.806  10.306  30.830  0.00  0.00    +0.007 A 
ATOM     34  C   UNL     1       9.153   9.971  30.468  0.00  0.00    -0.029 A 
ATOM     35  C   UNL     1       9.833   8.780  31.183  0.00  0.00    +0.045 C 
ENDROOT
BRANCH  10   9
ATOM      4  C   UNL     1      14.567  11.174  29.973  0.00  0.00    +0.077 A 
ATOM      5  C   UNL     1      14.425  12.027  31.118  0.00  0.00    +0.048 A 
ATOM      6  C   UNL     1      13.112  12.344  31.532  0.00  0.00    +0.116 A 
ATOM      7  N   UNL     1      12.029  11.841  30.844  0.00  0.00    -0.223 NA
ATOM      8  C   UNL     1      12.201  11.023  29.743  0.00  0.00    +0.220 A 
ATOM      9  N   UNL     1      11.126  10.500  29.041  0.00  0.00    -0.283 N 
ATOM     36  H   UNL     1      11.295   9.906  28.229  0.00  0.00    +0.155 HD
ATOM     37  N   UNL     1      13.445  10.706  29.327  0.00  0.00    -0.214 NA
BRANCH   4   3
ATOM      1  C   UNL     1      17.604   8.993  28.825  0.00  0.00    +0.020 A 
ATOM      2  C   UNL     1      16.317   9.354  29.373  0.00  0.00    +0.013 A 
ATOM      3  C   UNL     1      15.889  10.746  29.416  0.00  0.00    +0.019 A 
ATOM     38  C   UNL     1      16.794  11.758  28.891  0.00  0.00    +0.120 A 
ATOM     39  N   UNL     1      18.028  11.381  28.370  0.00  0.00    -0.263 NA
ATOM     40  C   UNL     1      18.451  10.044  28.325  0.00  0.00    +0.111 A 
ENDBRANCH   4   3
ENDBRANCH  10   9
BRANCH  12  13
ATOM     13  N   UNL     1       7.012  13.260  28.581  0.00  0.00    -0.281 N 
ATOM     14  C   UNL     1       6.980  14.591  28.961  0.00  0.00    +0.248 C 
ATOM     30  O   UNL     1       7.428  15.021  30.014  0.00  0.00    -0.270 OA
ATOM     31  H   UNL     1       6.435  13.008  27.778  0.00  0.00    +0.155 HD
BRANCH  14  15
ATOM     15  C   UNL     1       6.345  15.588  28.046  0.00  0.00    +0.037 A 
ATOM     16  C   UNL     1       7.060  16.795  27.623  0.00  0.00    +0.013 A 
ATOM     17  C   UNL     1       6.417  17.749  26.754  0.00  0.00    +0.005 A 
ATOM     18  C   UNL     1       5.052  17.498  26.299  0.00  0.00    -0.033 A 
ATOM     28  C   UNL     1       4.368  16.289  26.730  0.00  0.00    +0.005 A 
ATOM     29  C   UNL     1       4.994  15.353  27.583  0.00  0.00    +0.013 A 
BRANCH  18  19
ATOM     19  C   UNL     1       4.281  18.471  25.387  0.00  0.00    +0.119 C 
BRANCH  19  20
ATOM     20  N   UNL     1       3.209  17.894  24.523  0.00  0.00    -0.302 NA
ATOM     21  C   UNL     1       3.489  18.117  23.034  0.00  0.00    +0.066 C 
ATOM     22  C   UNL     1       2.369  17.488  22.144  0.00  0.00    -0.064 C 
ATOM     23  N   UNL     1       1.015  18.083  22.536  0.00  0.00    +0.379 N 
ATOM     24  C   UNL     1      -0.033  17.536  21.661  0.00  0.00    -0.096 C 
ATOM     25  H   UNL     1       1.065  19.182  22.357  0.00  0.00    -0.082 HD
ATOM     26  C   UNL     1       0.730  17.868  24.015  0.00  0.00    -0.064 C 
ATOM     27  C   UNL     1       1.864  18.471  24.890  0.00  0.00    +0.066 C 
ENDBRANCH  19  20
ENDBRANCH  18  19
ENDBRANCH  14  15
ENDBRANCH  12  13
TORSDOF 6
ENDMDL
MODEL 3
REMARK VINA RESULT:      -8.3      2.265     13.683
REMARK  Name = C:\Users\Docking\Desktop\test protocol\1iep_ligandH.pdb
REMARK  8 active torsions:
REMARK  status: ('A' for Active; 'I' for Inactive)
REMARK    1  A    between atoms: _5  and  _11
REMARK    2  A    between atoms: _19  and  _21
REMARK    3  A    between atoms: _22  and  _66
REMARK    4  A    between atoms: _27  and  _30
REMARK    5  A    between atoms: _32  and  _33
REMARK    6  A    between atoms: _38  and  _43
REMARK    7  A    between atoms: _43  and  _46
REMARK    8  A    between atoms: _53  and  _55
REMARK                            x       y       z     vdW  Elec       q    Type
REMARK                         _______ _______ _______ _____ _____    ______ ____
ROOT
ATOM     10  C   UNL     1      12.528 -14.472  29.720  0.00  0.00    +0.038 A 
ATOM     11  C   UNL     1      11.476 -13.615  30.133  0.00  0.00    +0.047 A 
ATOM     12  C   UNL     1      10.085 -13.953  29.874  0.00  0.00    +0.035 A 
ATOM     32  C   UNL     1       9.801 -15.173  29.193  0.00  0.00    +0.024 A 
ATOM     33  C   UNL     1      10.859 -16.055  28.765  0.00  0.00    +0.007 A 
ATOM     34  C   UNL     1      12.233 -15.726  29.016  0.00  0.00    -0.029 A 
ATOM     35  C   UNL     1      13.326 -16.705  28.529  0.00  0.00    +0.045 C 
ENDROOT
BRANCH  10   9
ATOM      4  C   UNL     1      16.310 -14.147  32.657  0.00  0.00    +0.077 A 
ATOM      5  C   UNL     1      15.592 -14.748  33.744  0.00  0.00    +0.048 A 
ATOM      6  C   UNL     1      14.250 -15.120  33.508  0.00  0.00    +0.116 A 
ATOM      7  N   UNL     1      13.678 -14.903  32.273  0.00  0.00    -0.223 NA
ATOM      8  C   UNL     1      14.398 -14.319  31.247  0.00  0.00    +0.220 A 
ATOM      9  N   UNL     1      13.845 -14.098  29.995  0.00  0.00    -0.283 N 
ATOM     36  H   UNL     1      14.407 -13.658  29.266  0.00  0.00    +0.155 HD
ATOM     37  N   UNL     1      15.681 -13.953  31.447  0.00  0.00    -0.214 NA
BRANCH   4   3
ATOM      1  C   UNL     1      19.594 -12.350  33.791  0.00  0.00    +0.020 A 
ATOM      2  C   UNL     1      18.205 -12.745  33.744  0.00  0.00    +0.013 A 
ATOM      3  C   UNL     1      17.737 -13.702  32.750  0.00  0.00    +0.019 A 
ATOM     38  C   UNL     1      18.707 -14.246  31.811  0.00  0.00    +0.120 A 
ATOM     39  N   UNL     1      20.038 -13.846  31.879  0.00  0.00    -0.263 NA
ATOM     40  C   UNL     1      20.500 -12.924  32.830  0.00  0.00    +0.111 A 
ENDBRANCH   4   3
ENDBRANCH  10   9
BRANCH  12  13
ATOM     13  N   UNL     1       8.975 -13.119  30.262  0.00  0.00    -0.281 N 
ATOM     14  C   UNL     1       8.737 -12.538  31.497  0.00  0.00    +0.248 C 
ATOM     30  O   UNL     1       9.338 -12.823  32.522  0.00  0.00    -0.270 OA
ATOM     31  H   UNL     1       8.279 -12.935  29.539  0.00  0.00    +0.155 HD
BRANCH  14  15
ATOM     15  C   UNL     1       7.669 -11.499  31.613  0.00  0.00    +0.037 A 
ATOM     16  C   UNL     1       7.866 -10.145  31.090  0.00  0.00    +0.013 A 
ATOM     17  C   UNL     1       6.825  -9.157  31.230  0.00  0.00    +0.005 A 
ATOM     18  C   UNL     1       5.577  -9.522  31.895  0.00  0.00    -0.033 A 
ATOM     28  C   UNL     1       5.406 -10.874  32.400  0.00  0.00    +0.005 A 
ATOM     29  C   UNL     1       6.424 -11.844  32.266  0.00  0.00    +0.013 A 
BRANCH  18  19
ATOM     19  C   UNL     1       4.421  -8.526  32.108  0.00  0.00    +0.119 C 
BRANCH  19  20
ATOM     20  N   UNL     1       3.222  -8.673  31.230  0.00  0.00    -0.302 NA
ATOM     21  C   UNL     1       2.222  -9.690  31.788  0.00  0.00    +0.066 C 
ATOM     22  C   UNL     1       0.964  -9.814  30.868  0.00  0.00    -0.064 C 
ATOM     23  N   UNL     1       1.404 -10.206  29.457  0.00  0.00    +0.379 N 
ATOM     24  C   UNL     1       0.219 -10.380  28.604  0.00  0.00    -0.096 C 
ATOM     25  H   UNL     1       1.920 -11.192  29.525  0.00  0.00    -0.082 HD
ATOM     26  C   UNL     1       2.400  -9.201  28.895  0.00  0.00    -0.064 C 
ATOM     27  C   UNL     1       3.633  -9.064  29.832  0.00  0.00    +0.066 C 
ENDBRANCH  19  20
ENDBRANCH  18  19
ENDBRANCH  14  15
ENDBRANCH  12  13
TORSDOF 6
ENDMDL
MODEL 4
REMARK VINA RESULT:      -8.2     16.547     21.018
REMARK  Name = C:\Users\Docking\Desktop\test protocol\1iep_ligandH.pdb
REMARK  8 active torsions:
REMARK  status: ('A' for Active; 'I' for Inactive)
REMARK    1  A    between atoms: _5  and  _11
REMARK    2  A    between atoms: _19  and  _21
REMARK    3  A    between atoms: _22  and  _66
REMARK    4  A    between atoms: _27  and  _30
REMARK    5  A    between atoms: _32  and  _33
REMARK    6  A    between atoms: _38  and  _43
REMARK    7  A    between atoms: _43  and  _46
REMARK    8  A    between atoms: _53  and  _55
REMARK                            x       y       z     vdW  Elec       q    Type
REMARK                         _______ _______ _______ _____ _____    ______ ____
ROOT
ATOM     10  C   UNL     1      -6.284   0.721  16.791  0.00  0.00    +0.038 A 
ATOM     11  C   UNL     1      -5.517   1.139  17.909  0.00  0.00    +0.047 A 
ATOM     12  C   UNL     1      -5.863   2.341  18.652  0.00  0.00    +0.035 A 
ATOM     32  C   UNL     1      -6.997   3.094  18.229  0.00  0.00    +0.024 A 
ATOM     33  C   UNL     1      -7.786   2.684  17.094  0.00  0.00    +0.007 A 
ATOM     34  C   UNL     1      -7.449   1.501  16.356  0.00  0.00    -0.029 A 
ATOM     35  C   UNL     1      -8.327   1.113  15.144  0.00  0.00    +0.045 C 
ENDROOT
BRANCH  10   9
ATOM      4  C   UNL     1      -3.575  -1.633  13.604  0.00  0.00    +0.077 A 
ATOM      5  C   UNL     1      -2.869  -0.440  13.234  0.00  0.00    +0.048 A 
ATOM      6  C   UNL     1      -3.238   0.760  13.883  0.00  0.00    +0.116 A 
ATOM      7  N   UNL     1      -4.239   0.755  14.829  0.00  0.00    -0.223 NA
ATOM      8  C   UNL     1      -4.902  -0.412  15.161  0.00  0.00    +0.220 A 
ATOM      9  N   UNL     1      -5.907  -0.442  16.115  0.00  0.00    -0.283 N 
ATOM     36  H   UNL     1      -6.377  -1.322  16.326  0.00  0.00    +0.155 HD
ATOM     37  N   UNL     1      -4.569  -1.571  14.555  0.00  0.00    -0.214 NA
BRANCH   4   3
ATOM      1  C   UNL     1      -2.423  -5.341  13.136  0.00  0.00    +0.020 A 
ATOM      2  C   UNL     1      -2.668  -4.060  13.757  0.00  0.00    +0.013 A 
ATOM      3  C   UNL     1      -3.298  -2.979  13.009  0.00  0.00    +0.019 A 
ATOM     38  C   UNL     1      -3.671  -3.229  11.625  0.00  0.00    +0.120 A 
ATOM     39  N   UNL     1      -3.421  -4.472  11.054  0.00  0.00    -0.263 NA
ATOM     40  C   UNL     1      -2.814  -5.520  11.763  0.00  0.00    +0.111 A 
ENDBRANCH   4   3
ENDBRANCH  10   9
BRANCH  12  13
ATOM     13  N   UNL     1      -5.117   2.818  19.790  0.00  0.00    -0.281 N 
ATOM     14  C   UNL     1      -5.322   2.522  21.127  0.00  0.00    +0.248 C 
ATOM     30  O   UNL     1      -6.318   1.965  21.567  0.00  0.00    -0.270 OA
ATOM     31  H   UNL     1      -4.345   3.452  19.585  0.00  0.00    +0.155 HD
BRANCH  14  15
ATOM     15  C   UNL     1      -4.278   2.912  22.122  0.00  0.00    +0.037 A 
ATOM     16  C   UNL     1      -4.446   2.633  23.550  0.00  0.00    +0.013 A 
ATOM     17  C   UNL     1      -3.430   3.036  24.491  0.00  0.00    +0.005 A 
ATOM     18  C   UNL     1      -2.235   3.721  24.004  0.00  0.00    -0.033 A 
ATOM     28  C   UNL     1      -2.092   3.981  22.581  0.00  0.00    +0.005 A 
ATOM     29  C   UNL     1      -3.086   3.589  21.657  0.00  0.00    +0.013 A 
BRANCH  18  19
ATOM     19  C   UNL     1      -1.111   4.206  24.938  0.00  0.00    +0.119 C 
BRANCH  19  20
ATOM     20  N   UNL     1      -1.068   3.628  26.315  0.00  0.00    -0.302 NA
ATOM     21  C   UNL     1      -1.114   4.712  27.395  0.00  0.00    +0.066 C 
ATOM     22  C   UNL     1      -1.091   4.089  28.828  0.00  0.00    -0.064 C 
ATOM     23  N   UNL     1       0.158   3.221  28.985  0.00  0.00    +0.379 N 
ATOM     24  C   UNL     1       0.212   2.680  30.351  0.00  0.00    -0.096 C 
ATOM     25  H   UNL     1       1.047   3.880  28.846  0.00  0.00    -0.082 HD
ATOM     26  C   UNL     1       0.213   2.142  27.913  0.00  0.00    -0.064 C 
ATOM     27  C   UNL     1       0.160   2.770  26.492  0.00  0.00    +0.066 C 
ENDBRANCH  19  20
ENDBRANCH  18  19
ENDBRANCH  14  15
ENDBRANCH  12  13
TORSDOF 6
ENDMDL
MODEL 5
REMARK VINA RESULT:      -8.2      3.852     13.610
REMARK  Name = C:\Users\Docking\Desktop\test protocol\1iep_ligandH.pdb
REMARK  8 active torsions:
REMARK  status: ('A' for Active; 'I' for Inactive)
REMARK    1  A    between atoms: _5  and  _11
REMARK    2  A    between atoms: _19  and  _21
REMARK    3  A    between atoms: _22  and  _66
REMARK    4  A    between atoms: _27  and  _30
REMARK    5  A    between atoms: _32  and  _33
REMARK    6  A    between atoms: _38  and  _43
REMARK    7  A    between atoms: _43  and  _46
REMARK    8  A    between atoms: _53  and  _55
REMARK                            x       y       z     vdW  Elec       q    Type
REMARK                         _______ _______ _______ _____ _____    ______ ____
ROOT
ATOM     10  C   UNL     1      12.713 -14.736  29.507  0.00  0.00    +0.038 A 
ATOM     11  C   UNL     1      11.629 -13.964  29.998  0.00  0.00    +0.047 A 
ATOM     12  C   UNL     1      10.251 -14.359  29.751  0.00  0.00    +0.035 A 
ATOM     32  C   UNL     1      10.013 -15.548  29.001  0.00  0.00    +0.024 A 
ATOM     33  C   UNL     1      11.103 -16.343  28.493  0.00  0.00    +0.007 A 
ATOM     34  C   UNL     1      12.464 -15.957  28.732  0.00  0.00    -0.029 A 
ATOM     35  C   UNL     1      13.593 -16.845  28.158  0.00  0.00    +0.045 C 
ENDROOT
BRANCH  10   9
ATOM      4  C   UNL     1      16.476 -14.208  32.439  0.00  0.00    +0.077 A 
ATOM      5  C   UNL     1      15.777 -14.807  33.540  0.00  0.00    +0.048 A 
ATOM      6  C   UNL     1      14.449 -15.231  33.312  0.00  0.00    +0.116 A 
ATOM      7  N   UNL     1      13.872 -15.064  32.071  0.00  0.00    -0.223 NA
ATOM      8  C   UNL     1      14.573 -14.481  31.032  0.00  0.00    +0.220 A 
ATOM      9  N   UNL     1      14.016 -14.310  29.774  0.00  0.00    -0.283 N 
ATOM     36  H   UNL     1      14.563 -13.869  29.035  0.00  0.00    +0.155 HD
ATOM     37  N   UNL     1      15.843 -14.066  31.225  0.00  0.00    -0.214 NA
BRANCH   4   3
ATOM      1  C   UNL     1      19.881 -12.851  33.803  0.00  0.00    +0.020 A 
ATOM      2  C   UNL     1      18.515 -13.322  33.778  0.00  0.00    +0.013 A 
ATOM      3  C   UNL     1      17.886 -13.713  32.523  0.00  0.00    +0.019 A 
ATOM     38  C   UNL     1      18.672 -13.614  31.302  0.00  0.00    +0.120 A 
ATOM     39  N   UNL     1      19.984 -13.155  31.357  0.00  0.00    -0.263 NA
ATOM     40  C   UNL     1      20.600 -12.775  32.559  0.00  0.00    +0.111 A 
ENDBRANCH   4   3
ENDBRANCH  10   9
BRANCH  12  13
ATOM     13  N   UNL     1       9.110 -13.611  30.217  0.00  0.00    -0.281 N 
ATOM     14  C   UNL     1       8.689 -13.427  31.524  0.00  0.00    +0.248 C 
ATOM     30  O   UNL     1       9.111 -14.058  32.482  0.00  0.00    -0.270 OA
ATOM     31  H   UNL     1       8.543 -13.164  29.497  0.00  0.00    +0.155 HD
BRANCH  14  15
ATOM     15  C   UNL     1       7.637 -12.404  31.807  0.00  0.00    +0.037 A 
ATOM     16  C   UNL     1       6.348 -12.781  32.392  0.00  0.00    +0.013 A 
ATOM     17  C   UNL     1       5.344 -11.776  32.639  0.00  0.00    +0.005 A 
ATOM     18  C   UNL     1       5.627 -10.383  32.300  0.00  0.00    -0.033 A 
ATOM     28  C   UNL     1       6.916 -10.036  31.725  0.00  0.00    +0.005 A 
ATOM     29  C   UNL     1       7.902 -11.018  31.481  0.00  0.00    +0.013 A 
BRANCH  18  19
ATOM     19  C   UNL     1       4.607  -9.248  32.509  0.00  0.00    +0.119 C 
BRANCH  19  20
ATOM     20  N   UNL     1       4.632  -8.118  31.534  0.00  0.00    -0.302 NA
ATOM     21  C   UNL     1       5.227  -6.846  32.144  0.00  0.00    +0.066 C 
ATOM     22  C   UNL     1       5.267  -5.680  31.103  0.00  0.00    -0.064 C 
ATOM     23  N   UNL     1       3.854  -5.419  30.579  0.00  0.00    +0.379 N 
ATOM     24  C   UNL     1       3.878  -4.286  29.643  0.00  0.00    -0.096 C 
ATOM     25  H   UNL     1       3.219  -5.127  31.448  0.00  0.00    -0.082 HD
ATOM     26  C   UNL     1       3.253  -6.680  29.973  0.00  0.00    -0.064 C 
ATOM     27  C   UNL     1       3.246  -7.841  31.006  0.00  0.00    +0.066 C 
ENDBRANCH  19  20
ENDBRANCH  18  19
ENDBRANCH  14  15
ENDBRANCH  12  13
TORSDOF 6
ENDMDL
