MODEL 1
REMARK VINA RESULT:      -8.7      0.000      0.000
REMARK  Name = C:\Users\Docking\Desktop\test protocol\1iep_ligandH.pdb
REMARK  8 active torsions:
REMARK  status: ('A' for Active; 'I' for Inactive)
REMARK    1  A    between atoms: _5  and  _11
REMARK    2  A    between atoms: _19  and  _21
REMARK    3  A    between atoms: _22  and  _66
REMARK    4  A    between atoms: _27  and  _30
REMARK    5  A    between atoms: _32  and  _33
REMARK    6  A    between atoms: _38  and  _43
REMARK    7  A    between atoms: _43  and  _46
REMARK    8  A    between atoms: _53  and  _55
REMARK                            x       y       z     vdW  Elec       q    Type
REMARK                         _______ _______ _______ _____ _____    ______ ____
ROOT
ATOM     10  C   UNL     1      -7.282  34.330 -21.402  0.00  0.00    +0.038 A 
ATOM     11  C   UNL     1      -8.214  33.841 -22.352  0.00  0.00    +0.047 A 
ATOM     12  C   UNL     1      -8.718  34.692 -23.419  0.00  0.00    +0.035 A 
ATOM     32  C   UNL     1      -8.249  36.037 -23.488  0.00  0.00    +0.024 A 
ATOM     33  C   UNL     1      -7.303  36.550 -22.530  0.00  0.00    +0.007 A 
ATOM     34  C   UNL     1      -6.804  35.716 -21.474  0.00  0.00    -0.029 A 
ATOM     35  C   UNL     1      -5.795  36.321 -20.471  0.00  0.00    +0.045 C 
ENDROOT
BRANCH  10   9
ATOM      4  C   UNL     1      -4.161  31.125 -19.663  0.00  0.00    +0.077 A 
ATOM      5  C   UNL     1      -3.377  31.148 -20.864  0.00  0.00    +0.048 A 
ATOM      6  C   UNL     1      -3.815  31.992 -21.909  0.00  0.00    +0.116 A 
ATOM      7  N   UNL     1      -4.954  32.753 -21.752  0.00  0.00    -0.223 NA
ATOM      8  C   UNL     1      -5.687  32.706 -20.581  0.00  0.00    +0.220 A 
ATOM      9  N   UNL     1      -6.831  33.469 -20.399  0.00  0.00    -0.283 N 
ATOM     36  H   UNL     1      -7.348  33.400 -19.523  0.00  0.00    +0.155 HD
ATOM     37  N   UNL     1      -5.291  31.906 -19.570  0.00  0.00    -0.214 NA
BRANCH   4   3
ATOM      1  C   UNL     1      -2.210  28.981 -17.036  0.00  0.00    +0.020 A 
ATOM      2  C   UNL     1      -2.481  29.787 -18.204  0.00  0.00    +0.013 A 
ATOM      3  C   UNL     1      -3.825  30.285 -18.469  0.00  0.00    +0.019 A 
ATOM     38  C   UNL     1      -4.880  29.947 -17.526  0.00  0.00    +0.120 A 
ATOM     39  N   UNL     1      -4.590  29.167 -16.411  0.00  0.00    -0.263 NA
ATOM     40  C   UNL     1      -3.301  28.681 -16.146  0.00  0.00    +0.111 A 
ENDBRANCH   4   3
ENDBRANCH  10   9
BRANCH  12  13
ATOM     13  N   UNL     1      -9.671  34.254 -24.407  0.00  0.00    -0.281 N 
ATOM     14  C   UNL     1     -10.979  33.844 -24.207  0.00  0.00    +0.248 C 
ATOM     30  O   UNL     1     -11.463  33.587 -23.114  0.00  0.00    -0.270 OA
ATOM     31  H   UNL     1      -9.342  34.245 -25.373  0.00  0.00    +0.155 HD
BRANCH  14  15
ATOM     15  C   UNL     1     -11.875  33.681 -25.392  0.00  0.00    +0.037 A 
ATOM     16  C   UNL     1     -12.125  34.792 -26.314  0.00  0.00    +0.013 A 
ATOM     17  C   UNL     1     -13.007  34.613 -27.440  0.00  0.00    +0.005 A 
ATOM     18  C   UNL     1     -13.645  33.316 -27.651  0.00  0.00    -0.033 A 
ATOM     28  C   UNL     1     -13.375  32.229 -26.724  0.00  0.00    +0.005 A 
ATOM     29  C   UNL     1     -12.512  32.401 -25.618  0.00  0.00    +0.013 A 
BRANCH  18  19
ATOM     19  C   UNL     1     -14.617  33.041 -28.813  0.00  0.00    +0.119 C 
BRANCH  19  20
ATOM     20  N   UNL     1     -15.228  31.680 -28.887  0.00  0.00    -0.302 NA
ATOM     21  C   UNL     1     -14.469  30.761 -29.848  0.00  0.00    +0.066 C 
ATOM     22  C   UNL     1     -15.108  29.335 -29.896  0.00  0.00    -0.064 C 
ATOM     23  N   UNL     1     -16.578  29.451 -30.304  0.00  0.00    +0.379 N 
ATOM     24  C   UNL     1     -17.166  28.108 -30.406  0.00  0.00    -0.096 C 
ATOM     25  H   UNL     1     -16.611  29.913 -31.318  0.00  0.00    -0.082 HD
ATOM     26  C   UNL     1     -17.339  30.366 -29.355  0.00  0.00    -0.064 C 
ATOM     27  C   UNL     1     -16.678  31.771 -29.292  0.00  0.00    +0.066 C 
ENDBRANCH  19  20
ENDBRANCH  18  19
ENDBRANCH  14  15
ENDBRANCH  12  13
TORSDOF 6
ENDMDL
MODEL 2
REMARK VINA RESULT:      -8.5      3.974     14.071
REMARK  Name = C:\Users\Docking\Desktop\test protocol\1iep_ligandH.pdb
REMARK  8 active torsions:
REMARK  status: ('A' for Active; 'I' for Inactive)
REMARK    1  A    between atoms: _5  and  _11
REMARK    2  A    between atoms: _19  and  _21
REMARK    3  A    between atoms: _22  and  _66
REMARK    4  A    between atoms: _27  and  _30
REMARK    5  A    between atoms: _32  and  _33
REMARK    6  A    between atoms: _38  and  _43
REMARK    7  A    between atoms: _43  and  _46
REMARK    8  A    between atoms: _53  and  _55
REMARK                            x       y       z     vdW  Elec       q    Type
REMARK                         _______ _______ _______ _____ _____    ______ ____
ROOT
ATOM     10  C   UNL     1      -5.121  34.670 -20.857  0.00  0.00    +0.038 A 
ATOM     11  C   UNL     1      -4.819  33.411 -20.278  0.00  0.00    +0.047 A 
ATOM     12  C   UNL     1      -3.784  33.279 -19.264  0.00  0.00    +0.035 A 
ATOM     32  C   UNL     1      -3.079  34.450 -18.862  0.00  0.00    +0.024 A 
ATOM     33  C   UNL     1      -3.373  35.737 -19.441  0.00  0.00    +0.007 A 
ATOM     34  C   UNL     1      -4.390  35.874 -20.443  0.00  0.00    -0.029 A 
ATOM     35  C   UNL     1      -4.659  37.277 -21.034  0.00  0.00    +0.045 C 
ENDROOT
BRANCH  10   9
ATOM      4  C   UNL     1      -9.481  33.552 -22.525  0.00  0.00    +0.077 A 
ATOM      5  C   UNL     1      -9.775  32.738 -21.380  0.00  0.00    +0.048 A 
ATOM      6  C   UNL     1      -8.775  32.628 -20.388  0.00  0.00    +0.116 A 
ATOM      7  N   UNL     1      -7.574  33.287 -20.540  0.00  0.00    -0.223 NA
ATOM      8  C   UNL     1      -7.322  34.062 -21.657  0.00  0.00    +0.220 A 
ATOM      9  N   UNL     1      -6.125  34.740 -21.827  0.00  0.00    -0.283 N 
ATOM     36  H   UNL     1      -5.975  35.295 -22.668  0.00  0.00    +0.155 HD
ATOM     37  N   UNL     1      -8.261  34.182 -22.619  0.00  0.00    -0.214 NA
BRANCH   4   3
ATOM      1  C   UNL     1     -12.601  33.318 -24.872  0.00  0.00    +0.020 A 
ATOM      2  C   UNL     1     -11.713  33.072 -23.759  0.00  0.00    +0.013 A 
ATOM      3  C   UNL     1     -10.438  33.769 -23.656  0.00  0.00    +0.019 A 
ATOM     38  C   UNL     1     -10.088  34.718 -24.702  0.00  0.00    +0.120 A 
ATOM     39  N   UNL     1     -10.963  34.934 -25.763  0.00  0.00    -0.263 NA
ATOM     40  C   UNL     1     -12.192  34.267 -25.874  0.00  0.00    +0.111 A 
ENDBRANCH   4   3
ENDBRANCH  10   9
BRANCH  12  13
ATOM     13  N   UNL     1      -3.428  32.025 -18.646  0.00  0.00    -0.281 N 
ATOM     14  C   UNL     1      -2.457  31.123 -19.049  0.00  0.00    +0.248 C 
ATOM     30  O   UNL     1      -1.891  31.155 -20.132  0.00  0.00    -0.270 OA
ATOM     31  H   UNL     1      -3.955  31.773 -17.810  0.00  0.00    +0.155 HD
BRANCH  14  15
ATOM     15  C   UNL     1      -2.071  30.016 -18.122  0.00  0.00    +0.037 A 
ATOM     16  C   UNL     1      -0.845  29.243 -18.332  0.00  0.00    +0.013 A 
ATOM     17  C   UNL     1      -0.504  28.169 -17.432  0.00  0.00    +0.005 A 
ATOM     18  C   UNL     1      -1.392  27.864 -16.313  0.00  0.00    -0.033 A 
ATOM     28  C   UNL     1      -2.600  28.650 -16.126  0.00  0.00    +0.005 A 
ATOM     29  C   UNL     1      -2.937  29.703 -17.006  0.00  0.00    +0.013 A 
BRANCH  18  19
ATOM     19  C   UNL     1      -1.119  26.722 -15.316  0.00  0.00    +0.119 C 
BRANCH  19  20
ATOM     20  N   UNL     1      -0.789  27.106 -13.911  0.00  0.00    -0.302 NA
ATOM     21  C   UNL     1       0.707  26.968 -13.614  0.00  0.00    +0.066 C 
ATOM     22  C   UNL     1       1.038  27.395 -12.147  0.00  0.00    -0.064 C 
ATOM     23  N   UNL     1       0.213  26.551 -11.174  0.00  0.00    +0.379 N 
ATOM     24  C   UNL     1       0.565  26.910  -9.793  0.00  0.00    -0.096 C 
ATOM     25  H   UNL     1       0.496  25.484 -11.329  0.00  0.00    -0.082 HD
ATOM     26  C   UNL     1      -1.276  26.680 -11.464  0.00  0.00    -0.064 C 
ATOM     27  C   UNL     1      -1.589  26.281 -12.933  0.00  0.00    +0.066 C 
ENDBRANCH  19  20
ENDBRANCH  18  19
ENDBRANCH  14  15
ENDBRANCH  12  13
TORSDOF 6
ENDMDL
MODEL 3
REMARK VINA RESULT:      -8.3      7.083     11.914
REMARK  Name = C:\Users\Docking\Desktop\test protocol\1iep_ligandH.pdb
REMARK  8 active torsions:
REMARK  status: ('A' for Active; 'I' for Inactive)
REMARK    1  A    between atoms: _5  and  _11
REMARK    2  A    between atoms: _19  and  _21
REMARK    3  A    between atoms: _22  and  _66
REMARK    4  A    between atoms: _27  and  _30
REMARK    5  A    between atoms: _32  and  _33
REMARK    6  A    between atoms: _38  and  _43
REMARK    7  A    between atoms: _43  and  _46
REMARK    8  A    between atoms: _53  and  _55
REMARK                            x       y       z     vdW  Elec       q    Type
REMARK                         _______ _______ _______ _____ _____    ______ ____
ROOT
ATOM     10  C   UNL     1      -5.645  30.710 -25.098  0.00  0.00    +0.038 A 
ATOM     11  C   UNL     1      -4.838  29.545 -25.045  0.00  0.00    +0.047 A 
ATOM     12  C   UNL     1      -5.207  28.339 -25.770  0.00  0.00    +0.035 A 
ATOM     32  C   UNL     1      -6.405  28.356 -26.543  0.00  0.00    +0.024 A 
ATOM     33  C   UNL     1      -7.238  29.531 -26.608  0.00  0.00    +0.007 A 
ATOM     34  C   UNL     1      -6.880  30.723 -25.892  0.00  0.00    -0.029 A 
ATOM     35  C   UNL     1      -7.814  31.951 -25.993  0.00  0.00    +0.045 C 
ENDROOT
BRANCH  10   9
ATOM      4  C   UNL     1      -5.437  33.317 -21.074  0.00  0.00    +0.077 A 
ATOM      5  C   UNL     1      -6.219  32.362 -20.344  0.00  0.00    +0.048 A 
ATOM      6  C   UNL     1      -6.661  31.216 -21.043  0.00  0.00    +0.116 A 
ATOM      7  N   UNL     1      -6.339  31.049 -22.372  0.00  0.00    -0.223 NA
ATOM      8  C   UNL     1      -5.585  31.991 -23.047  0.00  0.00    +0.220 A 
ATOM      9  N   UNL     1      -5.243  31.839 -24.382  0.00  0.00    -0.283 N 
ATOM     36  H   UNL     1      -4.691  32.560 -24.846  0.00  0.00    +0.155 HD
ATOM     37  N   UNL     1      -5.151  33.094 -22.403  0.00  0.00    -0.214 NA
BRANCH   4   3
ATOM      1  C   UNL     1      -3.199  35.854 -19.110  0.00  0.00    +0.020 A 
ATOM      2  C   UNL     1      -3.681  34.611 -19.666  0.00  0.00    +0.013 A 
ATOM      3  C   UNL     1      -4.893  34.577 -20.474  0.00  0.00    +0.019 A 
ATOM     38  C   UNL     1      -5.600  35.828 -20.703  0.00  0.00    +0.120 A 
ATOM     39  N   UNL     1      -5.112  37.010 -20.153  0.00  0.00    -0.263 NA
ATOM     40  C   UNL     1      -3.947  37.055 -19.373  0.00  0.00    +0.111 A 
ENDBRANCH   4   3
ENDBRANCH  10   9
BRANCH  12  13
ATOM     13  N   UNL     1      -4.432  27.124 -25.748  0.00  0.00    -0.281 N 
ATOM     14  C   UNL     1      -3.384  26.767 -26.580  0.00  0.00    +0.248 C 
ATOM     30  O   UNL     1      -3.092  27.350 -27.613  0.00  0.00    -0.270 OA
ATOM     31  H   UNL     1      -4.686  26.445 -25.030  0.00  0.00    +0.155 HD
BRANCH  14  15
ATOM     15  C   UNL     1      -2.548  25.581 -26.220  0.00  0.00    +0.037 A 
ATOM     16  C   UNL     1      -1.399  25.707 -25.319  0.00  0.00    +0.013 A 
ATOM     17  C   UNL     1      -0.599  24.550 -25.002  0.00  0.00    +0.005 A 
ATOM     18  C   UNL     1      -0.947  23.257 -25.586  0.00  0.00    -0.033 A 
ATOM     28  C   UNL     1      -2.094  23.160 -26.473  0.00  0.00    +0.005 A 
ATOM     29  C   UNL     1      -2.880  24.291 -26.787  0.00  0.00    +0.013 A 
BRANCH  18  19
ATOM     19  C   UNL     1      -0.136  21.974 -25.320  0.00  0.00    +0.119 C 
BRANCH  19  20
ATOM     20  N   UNL     1      -0.318  21.314 -23.993  0.00  0.00    -0.302 NA
ATOM     21  C   UNL     1      -0.478  19.796 -24.124  0.00  0.00    +0.066 C 
ATOM     22  C   UNL     1      -0.645  19.119 -22.725  0.00  0.00    -0.064 C 
ATOM     23  N   UNL     1      -1.848  19.731 -22.005  0.00  0.00    +0.379 N 
ATOM     24  C   UNL     1      -2.043  19.056 -20.714  0.00  0.00    -0.096 C 
ATOM     25  H   UNL     1      -2.751  19.534 -22.629  0.00  0.00    -0.082 HD
ATOM     26  C   UNL     1      -1.698  21.240 -21.873  0.00  0.00    -0.064 C 
ATOM     27  C   UNL     1      -1.504  21.900 -23.267  0.00  0.00    +0.066 C 
ENDBRANCH  19  20
ENDBRANCH  18  19
ENDBRANCH  14  15
ENDBRANCH  12  13
TORSDOF 6
ENDMDL
MODEL 4
REMARK VINA RESULT:      -8.3      7.677     12.948
REMARK  Name = C:\Users\Docking\Desktop\test protocol\1iep_ligandH.pdb
REMARK  8 active torsions:
REMARK  status: ('A' for Active; 'I' for Inactive)
REMARK    1  A    between atoms: _5  and  _11
REMARK    2  A    between atoms: _19  and  _21
REMARK    3  A    between atoms: _22  and  _66
REMARK    4  A    between atoms: _27  and  _30
REMARK    5  A    between atoms: _32  and  _33
REMARK    6  A    between atoms: _38  and  _43
REMARK    7  A    between atoms: _43  and  _46
REMARK    8  A    between atoms: _53  and  _55
REMARK                            x       y       z     vdW  Elec       q    Type
REMARK                         _______ _______ _______ _____ _____    ______ ____
ROOT
ATOM     10  C   UNL     1      -4.600  40.010 -21.494  0.00  0.00    +0.038 A 
ATOM     11  C   UNL     1      -4.931  38.774 -20.881  0.00  0.00    +0.047 A 
ATOM     12  C   UNL     1      -4.221  37.551 -21.222  0.00  0.00    +0.035 A 
ATOM     32  C   UNL     1      -3.177  37.623 -22.190  0.00  0.00    +0.024 A 
ATOM     33  C   UNL     1      -2.829  38.871 -22.823  0.00  0.00    +0.007 A 
ATOM     34  C   UNL     1      -3.527  40.080 -22.493  0.00  0.00    -0.029 A 
ATOM     35  C   UNL     1      -3.115  41.387 -23.209  0.00  0.00    +0.045 C 
ENDROOT
BRANCH  10   9
ATOM      4  C   UNL     1      -8.520  42.777 -21.637  0.00  0.00    +0.077 A 
ATOM      5  C   UNL     1      -9.191  41.882 -22.536  0.00  0.00    +0.048 A 
ATOM      6  C   UNL     1      -8.490  40.725 -22.943  0.00  0.00    +0.116 A 
ATOM      7  N   UNL     1      -7.214  40.490 -22.479  0.00  0.00    -0.223 NA
ATOM      8  C   UNL     1      -6.595  41.374 -21.614  0.00  0.00    +0.220 A 
ATOM      9  N   UNL     1      -5.315  41.153 -21.129  0.00  0.00    -0.283 N 
ATOM     36  H   UNL     1      -4.890  41.833 -20.499  0.00  0.00    +0.155 HD
ATOM     37  N   UNL     1      -7.242  42.487 -21.212  0.00  0.00    -0.214 NA
BRANCH   4   3
ATOM      1  C   UNL     1      -9.677  45.656 -19.256  0.00  0.00    +0.020 A 
ATOM      2  C   UNL     1      -9.072  44.426 -19.710  0.00  0.00    +0.013 A 
ATOM      3  C   UNL     1      -9.130  44.040 -21.114  0.00  0.00    +0.019 A 
ATOM     38  C   UNL     1      -9.813  44.929 -22.041  0.00  0.00    +0.120 A 
ATOM     39  N   UNL     1     -10.388  46.108 -21.576  0.00  0.00    -0.263 NA
ATOM     40  C   UNL     1     -10.340  46.488 -20.226  0.00  0.00    +0.111 A 
ENDBRANCH   4   3
ENDBRANCH  10   9
BRANCH  12  13
ATOM     13  N   UNL     1      -4.518  36.266 -20.638  0.00  0.00    -0.281 N 
ATOM     14  C   UNL     1      -5.512  35.374 -21.005  0.00  0.00    +0.248 C 
ATOM     30  O   UNL     1      -6.438  35.641 -21.757  0.00  0.00    -0.270 OA
ATOM     31  H   UNL     1      -3.923  35.980 -19.861  0.00  0.00    +0.155 HD
BRANCH  14  15
ATOM     15  C   UNL     1      -5.481  33.989 -20.444  0.00  0.00    +0.037 A 
ATOM     16  C   UNL     1      -6.671  33.133 -20.467  0.00  0.00    +0.013 A 
ATOM     17  C   UNL     1      -6.619  31.807 -19.904  0.00  0.00    +0.005 A 
ATOM     18  C   UNL     1      -5.371  31.328 -19.314  0.00  0.00    -0.033 A 
ATOM     28  C   UNL     1      -4.204  32.196 -19.310  0.00  0.00    +0.005 A 
ATOM     29  C   UNL     1      -4.252  33.496 -19.860  0.00  0.00    +0.013 A 
BRANCH  18  19
ATOM     19  C   UNL     1      -5.230  29.935 -18.672  0.00  0.00    +0.119 C 
BRANCH  19  20
ATOM     20  N   UNL     1      -4.174  29.767 -17.629  0.00  0.00    -0.302 NA
ATOM     21  C   UNL     1      -3.155  28.691 -18.012  0.00  0.00    +0.066 C 
ATOM     22  C   UNL     1      -2.045  28.544 -16.920  0.00  0.00    -0.064 C 
ATOM     23  N   UNL     1      -2.697  28.218 -15.575  0.00  0.00    +0.379 N 
ATOM     24  C   UNL     1      -1.653  28.022 -14.559  0.00  0.00    -0.096 C 
ATOM     25  H   UNL     1      -3.244  27.253 -15.690  0.00  0.00    -0.082 HD
ATOM     26  C   UNL     1      -3.714  29.282 -15.188  0.00  0.00    -0.064 C 
ATOM     27  C   UNL     1      -4.796  29.441 -16.293  0.00  0.00    +0.066 C 
ENDBRANCH  19  20
ENDBRANCH  18  19
ENDBRANCH  14  15
ENDBRANCH  12  13
TORSDOF 6
ENDMDL
MODEL 5
REMARK VINA RESULT:      -8.2      7.166     13.108
REMARK  Name = C:\Users\Docking\Desktop\test protocol\1iep_ligandH.pdb
REMARK  8 active torsions:
REMARK  status: ('A' for Active; 'I' for Inactive)
REMARK    1  A    between atoms: _5  and  _11
REMARK    2  A    between atoms: _19  and  _21
REMARK    3  A    between atoms: _22  and  _66
REMARK    4  A    between atoms: _27  and  _30
REMARK    5  A    between atoms: _32  and  _33
REMARK    6  A    between atoms: _38  and  _43
REMARK    7  A    between atoms: _43  and  _46
REMARK    8  A    between atoms: _53  and  _55
REMARK                            x       y       z     vdW  Elec       q    Type
REMARK                         _______ _______ _______ _____ _____    ______ ____
ROOT
ATOM     10  C   UNL     1      -7.443  39.853 -21.905  0.00  0.00    +0.038 A 
ATOM     11  C   UNL     1      -7.502  38.503 -21.474  0.00  0.00    +0.047 A 
ATOM     12  C   UNL     1      -6.346  37.854 -20.874  0.00  0.00    +0.035 A 
ATOM     32  C   UNL     1      -5.148  38.610 -20.725  0.00  0.00    +0.024 A 
ATOM     33  C   UNL     1      -5.070  39.983 -21.159  0.00  0.00    +0.007 A 
ATOM     34  C   UNL     1      -6.206  40.628 -21.753  0.00  0.00    -0.029 A 
ATOM     35  C   UNL     1      -6.064  42.100 -22.205  0.00  0.00    +0.045 C 
ENDROOT
BRANCH  10   9
ATOM      4  C   UNL     1     -11.581  42.264 -21.581  0.00  0.00    +0.077 A 
ATOM      5  C   UNL     1     -11.477  42.367 -20.154  0.00  0.00    +0.048 A 
ATOM      6  C   UNL     1     -10.348  41.780 -19.541  0.00  0.00    +0.116 A 
ATOM      7  N   UNL     1      -9.398  41.140 -20.308  0.00  0.00    -0.223 NA
ATOM      8  C   UNL     1      -9.529  41.057 -21.682  0.00  0.00    +0.220 A 
ATOM      9  N   UNL     1      -8.582  40.426 -22.474  0.00  0.00    -0.283 N 
ATOM     36  H   UNL     1      -8.719  40.380 -23.483  0.00  0.00    +0.155 HD
ATOM     37  N   UNL     1     -10.600  41.609 -22.291  0.00  0.00    -0.214 NA
BRANCH   4   3
ATOM      1  C   UNL     1     -14.599  44.478 -22.717  0.00  0.00    +0.020 A 
ATOM      2  C   UNL     1     -13.516  43.962 -21.912  0.00  0.00    +0.013 A 
ATOM      3  C   UNL     1     -12.714  42.836 -22.374  0.00  0.00    +0.019 A 
ATOM     38  C   UNL     1     -13.037  42.250 -23.666  0.00  0.00    +0.120 A 
ATOM     39  N   UNL     1     -14.087  42.767 -24.419  0.00  0.00    -0.263 NA
ATOM     40  C   UNL     1     -14.866  43.849 -23.983  0.00  0.00    +0.111 A 
ENDBRANCH   4   3
ENDBRANCH  10   9
BRANCH  12  13
ATOM     13  N   UNL     1      -6.344  36.483 -20.425  0.00  0.00    -0.281 N 
ATOM     14  C   UNL     1      -6.821  35.367 -21.093  0.00  0.00    +0.248 C 
ATOM     30  O   UNL     1      -7.520  35.408 -22.095  0.00  0.00    -0.270 OA
ATOM     31  H   UNL     1      -5.942  36.315 -19.503  0.00  0.00    +0.155 HD
BRANCH  14  15
ATOM     15  C   UNL     1      -6.485  34.011 -20.565  0.00  0.00    +0.037 A 
ATOM     16  C   UNL     1      -7.527  33.008 -20.328  0.00  0.00    +0.013 A 
ATOM     17  C   UNL     1      -7.177  31.712 -19.801  0.00  0.00    +0.005 A 
ATOM     18  C   UNL     1      -5.778  31.412 -19.508  0.00  0.00    -0.033 A 
ATOM     28  C   UNL     1      -4.764  32.424 -19.757  0.00  0.00    +0.005 A 
ATOM     29  C   UNL     1      -5.103  33.695 -20.273  0.00  0.00    +0.013 A 
BRANCH  18  19
ATOM     19  C   UNL     1      -5.316  30.064 -18.924  0.00  0.00    +0.119 C 
BRANCH  19  20
ATOM     20  N   UNL     1      -4.280  30.103 -17.850  0.00  0.00    -0.302 NA
ATOM     21  C   UNL     1      -2.972  29.438 -18.288  0.00  0.00    +0.066 C 
ATOM     22  C   UNL     1      -1.892  29.508 -17.160  0.00  0.00    -0.064 C 
ATOM     23  N   UNL     1      -2.438  28.846 -15.893  0.00  0.00    +0.379 N 
ATOM     24  C   UNL     1      -1.404  28.859 -14.848  0.00  0.00    -0.096 C 
ATOM     25  H   UNL     1      -2.660  27.781 -16.137  0.00  0.00    -0.082 HD
ATOM     26  C   UNL     1      -3.740  29.500 -15.452  0.00  0.00    -0.064 C 
ATOM     27  C   UNL     1      -4.797  29.451 -16.591  0.00  0.00    +0.066 C 
ENDBRANCH  19  20
ENDBRANCH  18  19
ENDBRANCH  14  15
ENDBRANCH  12  13
TORSDOF 6
ENDMDL
