MODEL 1
REMARK VINA RESULT:      -9.9      0.000      0.000
REMARK  Name = C:\Users\Docking\Desktop\test protocol\1iep_ligandH.pdb
REMARK  8 active torsions:
REMARK  status: ('A' for Active; 'I' for Inactive)
REMARK    1  A    between atoms: _5  and  _11
REMARK    2  A    between atoms: _19  and  _21
REMARK    3  A    between atoms: _22  and  _66
REMARK    4  A    between atoms: _27  and  _30
REMARK    5  A    between atoms: _32  and  _33
REMARK    6  A    between atoms: _38  and  _43
REMARK    7  A    between atoms: _43  and  _46
REMARK    8  A    between atoms: _53  and  _55
REMARK                            x       y       z     vdW  Elec       q    Type
REMARK                         _______ _______ _______ _____ _____    ______ ____
ROOT
ATOM     10  C   UNL     1      -5.416 113.266  16.881  0.00  0.00    +0.038 A 
ATOM     11  C   UNL     1      -5.996 112.050  16.439  0.00  0.00    +0.047 A 
ATOM     12  C   UNL     1      -6.304 111.829  15.035  0.00  0.00    +0.035 A 
ATOM     32  C   UNL     1      -6.005 112.869  14.106  0.00  0.00    +0.024 A 
ATOM     33  C   UNL     1      -5.417 114.112  14.539  0.00  0.00    +0.007 A 
ATOM     34  C   UNL     1      -5.114 114.336  15.923  0.00  0.00    -0.029 A 
ATOM     35  C   UNL     1      -4.489 115.691  16.330  0.00  0.00    +0.045 C 
ENDROOT
BRANCH  10   9
ATOM      4  C   UNL     1      -2.585 112.722  20.718  0.00  0.00    +0.077 A 
ATOM      5  C   UNL     1      -1.580 112.042  19.954  0.00  0.00    +0.048 A 
ATOM      6  C   UNL     1      -1.833 111.845  18.578  0.00  0.00    +0.116 A 
ATOM      7  N   UNL     1      -3.008 112.300  18.018  0.00  0.00    -0.223 NA
ATOM      8  C   UNL     1      -3.957 112.951  18.784  0.00  0.00    +0.220 A 
ATOM      9  N   UNL     1      -5.142 113.424  18.241  0.00  0.00    -0.283 N 
ATOM     36  H   UNL     1      -5.820 113.893  18.842  0.00  0.00    +0.155 HD
ATOM     37  N   UNL     1      -3.739 113.150  20.101  0.00  0.00    -0.214 NA
BRANCH   4   3
ATOM      1  C   UNL     1      -2.421 112.298  24.603  0.00  0.00    +0.020 A 
ATOM      2  C   UNL     1      -2.547 111.969  23.202  0.00  0.00    +0.013 A 
ATOM      3  C   UNL     1      -2.462 113.008  22.183  0.00  0.00    +0.019 A 
ATOM     38  C   UNL     1      -2.246 114.379  22.618  0.00  0.00    +0.120 A 
ATOM     39  N   UNL     1      -2.130 114.666  23.974  0.00  0.00    -0.263 NA
ATOM     40  C   UNL     1      -2.212 113.676  24.965  0.00  0.00    +0.111 A 
ENDBRANCH   4   3
ENDBRANCH  10   9
BRANCH  12  13
ATOM     13  N   UNL     1      -6.900 110.618  14.528  0.00  0.00    -0.281 N 
ATOM     14  C   UNL     1      -8.215 110.200  14.651  0.00  0.00    +0.248 C 
ATOM     30  O   UNL     1      -9.034 110.707  15.403  0.00  0.00    -0.270 OA
ATOM     31  H   UNL     1      -6.277 109.992  14.017  0.00  0.00    +0.155 HD
BRANCH  14  15
ATOM     15  C   UNL     1      -8.685 109.043  13.830  0.00  0.00    +0.037 A 
ATOM     16  C   UNL     1      -9.415 107.927  14.437  0.00  0.00    +0.013 A 
ATOM     17  C   UNL     1      -9.842 106.815  13.625  0.00  0.00    +0.005 A 
ATOM     18  C   UNL     1      -9.540 106.814  12.196  0.00  0.00    -0.033 A 
ATOM     28  C   UNL     1      -8.818 107.936  11.619  0.00  0.00    +0.005 A 
ATOM     29  C   UNL     1      -8.397 109.027  12.411  0.00  0.00    +0.013 A 
BRANCH  18  19
ATOM     19  C   UNL     1      -9.938 105.659  11.257  0.00  0.00    +0.119 C 
BRANCH  19  20
ATOM     20  N   UNL     1      -8.869 104.687  10.878  0.00  0.00    -0.302 NA
ATOM     21  C   UNL     1      -8.098 104.177  12.099  0.00  0.00    +0.066 C 
ATOM     22  C   UNL     1      -6.999 103.144  11.686  0.00  0.00    -0.064 C 
ATOM     23  N   UNL     1      -6.049 103.790  10.676  0.00  0.00    +0.379 N 
ATOM     24  C   UNL     1      -4.981 102.840  10.330  0.00  0.00    -0.096 C 
ATOM     25  H   UNL     1      -5.574 104.667  11.172  0.00  0.00    -0.082 HD
ATOM     26  C   UNL     1      -6.809 104.302   9.460  0.00  0.00    -0.064 C 
ATOM     27  C   UNL     1      -7.917 105.306   9.884  0.00  0.00    +0.066 C 
ENDBRANCH  19  20
ENDBRANCH  18  19
ENDBRANCH  14  15
ENDBRANCH  12  13
TORSDOF 6
ENDMDL
MODEL 2
REMARK VINA RESULT:      -9.6      1.333      2.017
REMARK  Name = C:\Users\Docking\Desktop\test protocol\1iep_ligandH.pdb
REMARK  8 active torsions:
REMARK  status: ('A' for Active; 'I' for Inactive)
REMARK    1  A    between atoms: _5  and  _11
REMARK    2  A    between atoms: _19  and  _21
REMARK    3  A    between atoms: _22  and  _66
REMARK    4  A    between atoms: _27  and  _30
REMARK    5  A    between atoms: _32  and  _33
REMARK    6  A    between atoms: _38  and  _43
REMARK    7  A    between atoms: _43  and  _46
REMARK    8  A    between atoms: _53  and  _55
REMARK                            x       y       z     vdW  Elec       q    Type
REMARK                         _______ _______ _______ _____ _____    ______ ____
ROOT
ATOM     10  C   UNL     1      -5.406 113.256  16.926  0.00  0.00    +0.038 A 
ATOM     11  C   UNL     1      -5.977 112.030  16.501  0.00  0.00    +0.047 A 
ATOM     12  C   UNL     1      -6.285 111.788  15.100  0.00  0.00    +0.035 A 
ATOM     32  C   UNL     1      -5.994 112.817  14.158  0.00  0.00    +0.024 A 
ATOM     33  C   UNL     1      -5.413 114.070  14.572  0.00  0.00    +0.007 A 
ATOM     34  C   UNL     1      -5.111 114.315  15.953  0.00  0.00    -0.029 A 
ATOM     35  C   UNL     1      -4.495 115.680  16.342  0.00  0.00    +0.045 C 
ENDROOT
BRANCH  10   9
ATOM      4  C   UNL     1      -2.583 112.752  20.775  0.00  0.00    +0.077 A 
ATOM      5  C   UNL     1      -1.583 112.050  20.023  0.00  0.00    +0.048 A 
ATOM      6  C   UNL     1      -1.836 111.834  18.650  0.00  0.00    +0.116 A 
ATOM      7  N   UNL     1      -3.006 112.289  18.082  0.00  0.00    -0.223 NA
ATOM      8  C   UNL     1      -3.951 112.961  18.836  0.00  0.00    +0.220 A 
ATOM      9  N   UNL     1      -5.131 113.434  18.284  0.00  0.00    -0.283 N 
ATOM     36  H   UNL     1      -5.806 113.919  18.875  0.00  0.00    +0.155 HD
ATOM     37  N   UNL     1      -3.733 113.179  20.150  0.00  0.00    -0.214 NA
BRANCH   4   3
ATOM      1  C   UNL     1      -2.434 112.393  24.668  0.00  0.00    +0.020 A 
ATOM      2  C   UNL     1      -2.562 112.042  23.272  0.00  0.00    +0.013 A 
ATOM      3  C   UNL     1      -2.459 113.061  22.235  0.00  0.00    +0.019 A 
ATOM     38  C   UNL     1      -2.225 114.437  22.647  0.00  0.00    +0.120 A 
ATOM     39  N   UNL     1      -2.108 114.745  23.999  0.00  0.00    -0.263 NA
ATOM     40  C   UNL     1      -2.206 113.773  25.006  0.00  0.00    +0.111 A 
ENDBRANCH   4   3
ENDBRANCH  10   9
BRANCH  12  13
ATOM     13  N   UNL     1      -6.873 110.566  14.611  0.00  0.00    -0.281 N 
ATOM     14  C   UNL     1      -8.184 110.139  14.745  0.00  0.00    +0.248 C 
ATOM     30  O   UNL     1      -9.003 110.648  15.495  0.00  0.00    -0.270 OA
ATOM     31  H   UNL     1      -6.247 109.940  14.104  0.00  0.00    +0.155 HD
BRANCH  14  15
ATOM     15  C   UNL     1      -8.648 108.968  13.939  0.00  0.00    +0.037 A 
ATOM     16  C   UNL     1      -9.484 107.921  14.532  0.00  0.00    +0.013 A 
ATOM     17  C   UNL     1      -9.903 106.794  13.738  0.00  0.00    +0.005 A 
ATOM     18  C   UNL     1      -9.488 106.709  12.340  0.00  0.00    -0.033 A 
ATOM     28  C   UNL     1      -8.662 107.764  11.776  0.00  0.00    +0.005 A 
ATOM     29  C   UNL     1      -8.249 108.870  12.552  0.00  0.00    +0.013 A 
BRANCH  18  19
ATOM     19  C   UNL     1      -9.871 105.532  11.424  0.00  0.00    +0.119 C 
BRANCH  19  20
ATOM     20  N   UNL     1      -9.598 105.685   9.963  0.00  0.00    -0.302 NA
ATOM     21  C   UNL     1     -10.833 106.163   9.195  0.00  0.00    +0.066 C 
ATOM     22  C   UNL     1     -10.524 106.340   7.673  0.00  0.00    -0.064 C 
ATOM     23  N   UNL     1     -10.010 105.016   7.103  0.00  0.00    +0.379 N 
ATOM     24  C   UNL     1      -9.774 105.163   5.659  0.00  0.00    -0.096 C 
ATOM     25  H   UNL     1     -10.814 104.256   7.239  0.00  0.00    -0.082 HD
ATOM     26  C   UNL     1      -8.784 104.532   7.863  0.00  0.00    -0.064 C 
ATOM     27  C   UNL     1      -9.094 104.388   9.379  0.00  0.00    +0.066 C 
ENDBRANCH  19  20
ENDBRANCH  18  19
ENDBRANCH  14  15
ENDBRANCH  12  13
TORSDOF 6
ENDMDL
MODEL 3
REMARK VINA RESULT:      -9.2      1.972      3.018
REMARK  Name = C:\Users\Docking\Desktop\test protocol\1iep_ligandH.pdb
REMARK  8 active torsions:
REMARK  status: ('A' for Active; 'I' for Inactive)
REMARK    1  A    between atoms: _5  and  _11
REMARK    2  A    between atoms: _19  and  _21
REMARK    3  A    between atoms: _22  and  _66
REMARK    4  A    between atoms: _27  and  _30
REMARK    5  A    between atoms: _32  and  _33
REMARK    6  A    between atoms: _38  and  _43
REMARK    7  A    between atoms: _43  and  _46
REMARK    8  A    between atoms: _53  and  _55
REMARK                            x       y       z     vdW  Elec       q    Type
REMARK                         _______ _______ _______ _____ _____    ______ ____
ROOT
ATOM     10  C   UNL     1      -5.389 113.316  16.901  0.00  0.00    +0.038 A 
ATOM     11  C   UNL     1      -5.964 112.097  16.460  0.00  0.00    +0.047 A 
ATOM     12  C   UNL     1      -6.268 111.874  15.055  0.00  0.00    +0.035 A 
ATOM     32  C   UNL     1      -5.972 112.913  14.126  0.00  0.00    +0.024 A 
ATOM     33  C   UNL     1      -5.388 114.159  14.557  0.00  0.00    +0.007 A 
ATOM     34  C   UNL     1      -5.088 114.386  15.942  0.00  0.00    -0.029 A 
ATOM     35  C   UNL     1      -4.469 115.743  16.349  0.00  0.00    +0.045 C 
ENDROOT
BRANCH  10   9
ATOM      4  C   UNL     1      -2.580 112.750  20.751  0.00  0.00    +0.077 A 
ATOM      5  C   UNL     1      -1.582 112.051  19.994  0.00  0.00    +0.048 A 
ATOM      6  C   UNL     1      -1.833 111.852  18.618  0.00  0.00    +0.116 A 
ATOM      7  N   UNL     1      -2.998 112.321  18.052  0.00  0.00    -0.223 NA
ATOM      8  C   UNL     1      -3.941 112.989  18.811  0.00  0.00    +0.220 A 
ATOM      9  N   UNL     1      -5.117 113.477  18.261  0.00  0.00    -0.283 N 
ATOM     36  H   UNL     1      -5.790 113.958  18.857  0.00  0.00    +0.155 HD
ATOM     37  N   UNL     1      -3.725 113.191  20.128  0.00  0.00    -0.214 NA
BRANCH   4   3
ATOM      1  C   UNL     1      -2.446 112.344  24.640  0.00  0.00    +0.020 A 
ATOM      2  C   UNL     1      -2.572 112.011  23.240  0.00  0.00    +0.013 A 
ATOM      3  C   UNL     1      -2.458 113.041  22.215  0.00  0.00    +0.019 A 
ATOM     38  C   UNL     1      -2.213 114.410  22.644  0.00  0.00    +0.120 A 
ATOM     39  N   UNL     1      -2.098 114.702  23.999  0.00  0.00    -0.263 NA
ATOM     40  C   UNL     1      -2.208 113.719  24.994  0.00  0.00    +0.111 A 
ENDBRANCH   4   3
ENDBRANCH  10   9
BRANCH  12  13
ATOM     13  N   UNL     1      -6.860 110.660  14.549  0.00  0.00    -0.281 N 
ATOM     14  C   UNL     1      -7.832 109.874  15.145  0.00  0.00    +0.248 C 
ATOM     30  O   UNL     1      -8.190 109.981  16.309  0.00  0.00    -0.270 OA
ATOM     31  H   UNL     1      -6.520 110.342  13.641  0.00  0.00    +0.155 HD
BRANCH  14  15
ATOM     15  C   UNL     1      -8.493 108.805  14.336  0.00  0.00    +0.037 A 
ATOM     16  C   UNL     1      -9.407 107.840  14.953  0.00  0.00    +0.013 A 
ATOM     17  C   UNL     1     -10.017 106.808  14.152  0.00  0.00    +0.005 A 
ATOM     18  C   UNL     1      -9.716 106.737  12.724  0.00  0.00    -0.033 A 
ATOM     28  C   UNL     1      -8.810 107.710  12.137  0.00  0.00    +0.005 A 
ATOM     29  C   UNL     1      -8.209 108.722  12.919  0.00  0.00    +0.013 A 
BRANCH  18  19
ATOM     19  C   UNL     1     -10.306 105.657  11.798  0.00  0.00    +0.119 C 
BRANCH  19  20
ATOM     20  N   UNL     1     -11.786 105.466  11.827  0.00  0.00    -0.302 NA
ATOM     21  C   UNL     1     -12.180 104.123  12.449  0.00  0.00    +0.066 C 
ATOM     22  C   UNL     1     -13.733 103.949  12.492  0.00  0.00    -0.064 C 
ATOM     23  N   UNL     1     -14.297 104.075  11.075  0.00  0.00    +0.379 N 
ATOM     24  C   UNL     1     -15.750 103.855  11.104  0.00  0.00    -0.096 C 
ATOM     25  H   UNL     1     -13.843 103.265  10.458  0.00  0.00    -0.082 HD
ATOM     26  C   UNL     1     -13.907 105.406  10.448  0.00  0.00    -0.064 C 
ATOM     27  C   UNL     1     -12.363 105.582  10.437  0.00  0.00    +0.066 C 
ENDBRANCH  19  20
ENDBRANCH  18  19
ENDBRANCH  14  15
ENDBRANCH  12  13
TORSDOF 6
ENDMDL
MODEL 4
REMARK VINA RESULT:      -8.6      4.233      6.253
REMARK  Name = C:\Users\Docking\Desktop\test protocol\1iep_ligandH.pdb
REMARK  8 active torsions:
REMARK  status: ('A' for Active; 'I' for Inactive)
REMARK    1  A    between atoms: _5  and  _11
REMARK    2  A    between atoms: _19  and  _21
REMARK    3  A    between atoms: _22  and  _66
REMARK    4  A    between atoms: _27  and  _30
REMARK    5  A    between atoms: _32  and  _33
REMARK    6  A    between atoms: _38  and  _43
REMARK    7  A    between atoms: _43  and  _46
REMARK    8  A    between atoms: _53  and  _55
REMARK                            x       y       z     vdW  Elec       q    Type
REMARK                         _______ _______ _______ _____ _____    ______ ____
ROOT
ATOM     10  C   UNL     1      -7.360 108.867  15.226  0.00  0.00    +0.038 A 
ATOM     11  C   UNL     1      -7.304 109.013  13.817  0.00  0.00    +0.047 A 
ATOM     12  C   UNL     1      -8.387 108.541  12.968  0.00  0.00    +0.035 A 
ATOM     32  C   UNL     1      -9.514 107.928  13.588  0.00  0.00    +0.024 A 
ATOM     33  C   UNL     1      -9.587 107.770  15.019  0.00  0.00    +0.007 A 
ATOM     34  C   UNL     1      -8.521 108.231  15.862  0.00  0.00    -0.029 A 
ATOM     35  C   UNL     1      -8.650 108.030  17.390  0.00  0.00    +0.045 C 
ENDROOT
BRANCH  10   9
ATOM      4  C   UNL     1      -4.715 112.424  17.066  0.00  0.00    +0.077 A 
ATOM      5  C   UNL     1      -5.512 113.429  16.423  0.00  0.00    +0.048 A 
ATOM      6  C   UNL     1      -6.589 112.988  15.621  0.00  0.00    +0.116 A 
ATOM      7  N   UNL     1      -6.841 111.641  15.481  0.00  0.00    -0.223 NA
ATOM      8  C   UNL     1      -6.052 110.698  16.114  0.00  0.00    +0.220 A 
ATOM      9  N   UNL     1      -6.293 109.338  15.994  0.00  0.00    -0.283 N 
ATOM     36  H   UNL     1      -5.683 108.674  16.470  0.00  0.00    +0.155 HD
ATOM     37  N   UNL     1      -5.017 111.093  16.884  0.00  0.00    -0.214 NA
BRANCH   4   3
ATOM      1  C   UNL     1      -1.361 112.128  19.057  0.00  0.00    +0.020 A 
ATOM      2  C   UNL     1      -2.469 111.781  18.197  0.00  0.00    +0.013 A 
ATOM      3  C   UNL     1      -3.545 112.732  17.948  0.00  0.00    +0.019 A 
ATOM     38  C   UNL     1      -3.468 114.037  18.587  0.00  0.00    +0.120 A 
ATOM     39  N   UNL     1      -2.390 114.343  19.411  0.00  0.00    -0.263 NA
ATOM     40  C   UNL     1      -1.349 113.435  19.660  0.00  0.00    +0.111 A 
ENDBRANCH   4   3
ENDBRANCH  10   9
BRANCH  12  13
ATOM     13  N   UNL     1      -8.382 108.655  11.530  0.00  0.00    -0.281 N 
ATOM     14  C   UNL     1      -8.434 107.634  10.595  0.00  0.00    +0.248 C 
ATOM     30  O   UNL     1      -8.276 106.451  10.854  0.00  0.00    -0.270 OA
ATOM     31  H   UNL     1      -8.335 109.603  11.157  0.00  0.00    +0.155 HD
BRANCH  14  15
ATOM     15  C   UNL     1      -8.682 107.980   9.162  0.00  0.00    +0.037 A 
ATOM     16  C   UNL     1      -8.704 106.946   8.124  0.00  0.00    +0.013 A 
ATOM     17  C   UNL     1      -8.929 107.309   6.747  0.00  0.00    +0.005 A 
ATOM     18  C   UNL     1      -9.135 108.713   6.401  0.00  0.00    -0.033 A 
ATOM     28  C   UNL     1      -9.114 109.717   7.451  0.00  0.00    +0.005 A 
ATOM     29  C   UNL     1      -8.893 109.366   8.802  0.00  0.00    +0.013 A 
BRANCH  18  19
ATOM     19  C   UNL     1      -9.361 109.193   4.955  0.00  0.00    +0.119 C 
BRANCH  19  20
ATOM     20  N   UNL     1      -8.175 109.212   4.048  0.00  0.00    -0.302 NA
ATOM     21  C   UNL     1      -8.025 107.901   3.272  0.00  0.00    +0.066 C 
ATOM     22  C   UNL     1      -6.792 107.947   2.311  0.00  0.00    -0.064 C 
ATOM     23  N   UNL     1      -5.529 108.246   3.120  0.00  0.00    +0.379 N 
ATOM     24  C   UNL     1      -4.360 108.232   2.228  0.00  0.00    -0.096 C 
ATOM     25  H   UNL     1      -5.399 107.423   3.860  0.00  0.00    -0.082 HD
ATOM     26  C   UNL     1      -5.672 109.547   3.897  0.00  0.00    -0.064 C 
ATOM     27  C   UNL     1      -6.916 109.502   4.827  0.00  0.00    +0.066 C 
ENDBRANCH  19  20
ENDBRANCH  18  19
ENDBRANCH  14  15
ENDBRANCH  12  13
TORSDOF 6
ENDMDL
MODEL 5
REMARK VINA RESULT:      -8.5      4.202     11.745
REMARK  Name = C:\Users\Docking\Desktop\test protocol\1iep_ligandH.pdb
REMARK  8 active torsions:
REMARK  status: ('A' for Active; 'I' for Inactive)
REMARK    1  A    between atoms: _5  and  _11
REMARK    2  A    between atoms: _19  and  _21
REMARK    3  A    between atoms: _22  and  _66
REMARK    4  A    between atoms: _27  and  _30
REMARK    5  A    between atoms: _32  and  _33
REMARK    6  A    between atoms: _38  and  _43
REMARK    7  A    between atoms: _43  and  _46
REMARK    8  A    between atoms: _53  and  _55
REMARK                            x       y       z     vdW  Elec       q    Type
REMARK                         _______ _______ _______ _____ _____    ______ ____
ROOT
ATOM     10  C   UNL     1      -9.297 108.737  15.529  0.00  0.00    +0.038 A 
ATOM     11  C   UNL     1      -8.278 109.382  16.275  0.00  0.00    +0.047 A 
ATOM     12  C   UNL     1      -6.958 109.608  15.708  0.00  0.00    +0.035 A 
ATOM     32  C   UNL     1      -6.710 109.165  14.376  0.00  0.00    +0.024 A 
ATOM     33  C   UNL     1      -7.734 108.506  13.603  0.00  0.00    +0.007 A 
ATOM     34  C   UNL     1      -9.038 108.279  14.159  0.00  0.00    -0.029 A 
ATOM     35  C   UNL     1     -10.095 107.562  13.287  0.00  0.00    +0.045 C 
ENDROOT
BRANCH  10   9
ATOM      4  C   UNL     1     -12.347 106.234  18.262  0.00  0.00    +0.077 A 
ATOM      5  C   UNL     1     -11.377 105.205  18.505  0.00  0.00    +0.048 A 
ATOM      6  C   UNL     1     -10.108 105.354  17.902  0.00  0.00    +0.116 A 
ATOM      7  N   UNL     1      -9.839 106.454  17.118  0.00  0.00    -0.223 NA
ATOM      8  C   UNL     1     -10.797 107.428  16.903  0.00  0.00    +0.220 A 
ATOM      9  N   UNL     1     -10.546 108.547  16.124  0.00  0.00    -0.283 N 
ATOM     36  H   UNL     1     -11.282 109.239  15.983  0.00  0.00    +0.155 HD
ATOM     37  N   UNL     1     -12.018 107.308  17.466  0.00  0.00    -0.214 NA
BRANCH   4   3
ATOM      1  C   UNL     1     -15.436 106.857  20.579  0.00  0.00    +0.020 A 
ATOM      2  C   UNL     1     -14.084 106.900  20.073  0.00  0.00    +0.013 A 
ATOM      3  C   UNL     1     -13.731 106.221  18.832  0.00  0.00    +0.019 A 
ATOM     38  C   UNL     1     -14.779 105.502  18.123  0.00  0.00    +0.120 A 
ATOM     39  N   UNL     1     -16.072 105.476  18.636  0.00  0.00    -0.263 NA
ATOM     40  C   UNL     1     -16.423 106.125  19.829  0.00  0.00    +0.111 A 
ENDBRANCH   4   3
ENDBRANCH  10   9
BRANCH  12  13
ATOM     13  N   UNL     1      -5.881 110.250  16.420  0.00  0.00    -0.281 N 
ATOM     14  C   UNL     1      -5.381 111.529  16.236  0.00  0.00    +0.248 C 
ATOM     30  O   UNL     1      -5.646 112.243  15.280  0.00  0.00    -0.270 OA
ATOM     31  H   UNL     1      -5.433 109.694  17.149  0.00  0.00    +0.155 HD
BRANCH  14  15
ATOM     15  C   UNL     1      -4.441 112.090  17.253  0.00  0.00    +0.037 A 
ATOM     16  C   UNL     1      -3.215 111.381  17.627  0.00  0.00    +0.013 A 
ATOM     17  C   UNL     1      -2.334 111.937  18.624  0.00  0.00    +0.005 A 
ATOM     18  C   UNL     1      -2.676 113.210  19.253  0.00  0.00    -0.033 A 
ATOM     28  C   UNL     1      -3.896 113.895  18.859  0.00  0.00    +0.005 A 
ATOM     29  C   UNL     1      -4.763 113.353  17.883  0.00  0.00    +0.013 A 
BRANCH  18  19
ATOM     19  C   UNL     1      -1.805 113.867  20.340  0.00  0.00    +0.119 C 
BRANCH  19  20
ATOM     20  N   UNL     1      -2.107 113.517  21.761  0.00  0.00    -0.302 NA
ATOM     21  C   UNL     1      -3.449 112.794  21.902  0.00  0.00    +0.066 C 
ATOM     22  C   UNL     1      -3.738 112.415  23.391  0.00  0.00    -0.064 C 
ATOM     23  N   UNL     1      -3.711 113.681  24.250  0.00  0.00    +0.379 N 
ATOM     24  C   UNL     1      -4.040 113.336  25.641  0.00  0.00    -0.096 C 
ATOM     25  H   UNL     1      -4.509 114.362  23.873  0.00  0.00    -0.082 HD
ATOM     26  C   UNL     1      -2.381 114.408  24.114  0.00  0.00    -0.064 C 
ATOM     27  C   UNL     1      -2.090 114.753  22.626  0.00  0.00    +0.066 C 
ENDBRANCH  19  20
ENDBRANCH  18  19
ENDBRANCH  14  15
ENDBRANCH  12  13
TORSDOF 6
ENDMDL
