MODEL 1
REMARK VINA RESULT:      -9.3      0.000      0.000
REMARK  Name = C:\Users\Docking\Desktop\test protocol\1iep_ligandH.pdb
REMARK  8 active torsions:
REMARK  status: ('A' for Active; 'I' for Inactive)
REMARK    1  A    between atoms: _5  and  _11
REMARK    2  A    between atoms: _19  and  _21
REMARK    3  A    between atoms: _22  and  _66
REMARK    4  A    between atoms: _27  and  _30
REMARK    5  A    between atoms: _32  and  _33
REMARK    6  A    between atoms: _38  and  _43
REMARK    7  A    between atoms: _43  and  _46
REMARK    8  A    between atoms: _53  and  _55
REMARK                            x       y       z     vdW  Elec       q    Type
REMARK                         _______ _______ _______ _____ _____    ______ ____
ROOT
ATOM     10  C   UNL     1     -26.371  20.314   5.215  0.00  0.00    +0.038 A 
ATOM     11  C   UNL     1     -27.766  20.404   4.980  0.00  0.00    +0.047 A 
ATOM     12  C   UNL     1     -28.506  21.616   5.297  0.00  0.00    +0.035 A 
ATOM     32  C   UNL     1     -27.791  22.718   5.850  0.00  0.00    +0.024 A 
ATOM     33  C   UNL     1     -26.372  22.643   6.096  0.00  0.00    +0.007 A 
ATOM     34  C   UNL     1     -25.638  21.449   5.788  0.00  0.00    -0.029 A 
ATOM     35  C   UNL     1     -24.120  21.422   6.079  0.00  0.00    +0.045 C 
ENDROOT
BRANCH  10   9
ATOM      4  C   UNL     1     -26.333  15.591   4.357  0.00  0.00    +0.077 A 
ATOM      5  C   UNL     1     -27.742  15.476   4.601  0.00  0.00    +0.048 A 
ATOM      6  C   UNL     1     -28.438  16.654   4.951  0.00  0.00    +0.116 A 
ATOM      7  N   UNL     1     -27.766  17.853   5.047  0.00  0.00    -0.223 NA
ATOM      8  C   UNL     1     -26.406  17.929   4.808  0.00  0.00    +0.220 A 
ATOM      9  N   UNL     1     -25.711  19.126   4.891  0.00  0.00    -0.283 N 
ATOM     36  H   UNL     1     -24.707  19.139   4.714  0.00  0.00    +0.155 HD
ATOM     37  N   UNL     1     -25.718  16.818   4.473  0.00  0.00    -0.214 NA
BRANCH   4   3
ATOM      1  C   UNL     1     -23.599  13.389   2.632  0.00  0.00    +0.020 A 
ATOM      2  C   UNL     1     -24.415  14.535   2.964  0.00  0.00    +0.013 A 
ATOM      3  C   UNL     1     -25.459  14.437   3.975  0.00  0.00    +0.019 A 
ATOM     38  C   UNL     1     -25.654  13.156   4.638  0.00  0.00    +0.120 A 
ATOM     39  N   UNL     1     -24.854  12.070   4.297  0.00  0.00    -0.263 NA
ATOM     40  C   UNL     1     -23.846  12.152   3.324  0.00  0.00    +0.111 A 
ENDBRANCH   4   3
ENDBRANCH  10   9
BRANCH  12  13
ATOM     13  N   UNL     1     -29.925  21.764   5.088  0.00  0.00    -0.281 N 
ATOM     14  C   UNL     1     -30.954  21.392   5.938  0.00  0.00    +0.248 C 
ATOM     30  O   UNL     1     -30.816  20.678   6.920  0.00  0.00    -0.270 OA
ATOM     31  H   UNL     1     -30.205  22.194   4.207  0.00  0.00    +0.155 HD
BRANCH  14  15
ATOM     15  C   UNL     1     -32.339  21.872   5.646  0.00  0.00    +0.037 A 
ATOM     16  C   UNL     1     -33.482  21.424   6.446  0.00  0.00    +0.013 A 
ATOM     17  C   UNL     1     -34.810  21.888   6.133  0.00  0.00    +0.005 A 
ATOM     18  C   UNL     1     -35.002  22.808   5.015  0.00  0.00    -0.033 A 
ATOM     28  C   UNL     1     -33.850  23.241   4.241  0.00  0.00    +0.005 A 
ATOM     29  C   UNL     1     -32.547  22.787   4.544  0.00  0.00    +0.013 A 
BRANCH  18  19
ATOM     19  C   UNL     1     -36.386  23.338   4.596  0.00  0.00    +0.119 C 
BRANCH  19  20
ATOM     20  N   UNL     1     -36.431  24.321   3.472  0.00  0.00    -0.302 NA
ATOM     21  C   UNL     1     -36.632  25.755   3.971  0.00  0.00    +0.066 C 
ATOM     22  C   UNL     1     -36.653  26.772   2.784  0.00  0.00    -0.064 C 
ATOM     23  N   UNL     1     -37.757  26.381   1.800  0.00  0.00    +0.379 N 
ATOM     24  C   UNL     1     -37.818  27.369   0.713  0.00  0.00    -0.096 C 
ATOM     25  H   UNL     1     -38.727  26.421   2.348  0.00  0.00    -0.082 HD
ATOM     26  C   UNL     1     -37.567  24.956   1.302  0.00  0.00    -0.064 C 
ATOM     27  C   UNL     1     -37.518  23.956   2.491  0.00  0.00    +0.066 C 
ENDBRANCH  19  20
ENDBRANCH  18  19
ENDBRANCH  14  15
ENDBRANCH  12  13
TORSDOF 6
ENDMDL
MODEL 2
REMARK VINA RESULT:      -9.1      3.308      6.477
REMARK  Name = C:\Users\Docking\Desktop\test protocol\1iep_ligandH.pdb
REMARK  8 active torsions:
REMARK  status: ('A' for Active; 'I' for Inactive)
REMARK    1  A    between atoms: _5  and  _11
REMARK    2  A    between atoms: _19  and  _21
REMARK    3  A    between atoms: _22  and  _66
REMARK    4  A    between atoms: _27  and  _30
REMARK    5  A    between atoms: _32  and  _33
REMARK    6  A    between atoms: _38  and  _43
REMARK    7  A    between atoms: _43  and  _46
REMARK    8  A    between atoms: _53  and  _55
REMARK                            x       y       z     vdW  Elec       q    Type
REMARK                         _______ _______ _______ _____ _____    ______ ____
ROOT
ATOM     10  C   UNL     1     -31.665  21.421   5.587  0.00  0.00    +0.038 A 
ATOM     11  C   UNL     1     -32.237  22.447   4.792  0.00  0.00    +0.047 A 
ATOM     12  C   UNL     1     -33.516  23.045   5.142  0.00  0.00    +0.035 A 
ATOM     32  C   UNL     1     -34.184  22.576   6.311  0.00  0.00    +0.024 A 
ATOM     33  C   UNL     1     -33.617  21.533   7.130  0.00  0.00    +0.007 A 
ATOM     34  C   UNL     1     -32.357  20.938   6.788  0.00  0.00    -0.029 A 
ATOM     35  C   UNL     1     -31.800  19.819   7.698  0.00  0.00    +0.045 C 
ENDROOT
BRANCH  10   9
ATOM      4  C   UNL     1     -26.865  21.383   5.624  0.00  0.00    +0.077 A 
ATOM      5  C   UNL     1     -26.803  22.551   6.455  0.00  0.00    +0.048 A 
ATOM      6  C   UNL     1     -28.029  23.136   6.845  0.00  0.00    +0.116 A 
ATOM      7  N   UNL     1     -29.222  22.584   6.429  0.00  0.00    -0.223 NA
ATOM      8  C   UNL     1     -29.246  21.458   5.627  0.00  0.00    +0.220 A 
ATOM      9  N   UNL     1     -30.434  20.882   5.204  0.00  0.00    -0.283 N 
ATOM     36  H   UNL     1     -30.410  20.056   4.607  0.00  0.00    +0.155 HD
ATOM     37  N   UNL     1     -28.089  20.882   5.240  0.00  0.00    -0.214 NA
BRANCH   4   3
ATOM      1  C   UNL     1     -23.206  20.517   4.549  0.00  0.00    +0.020 A 
ATOM      2  C   UNL     1     -24.341  21.269   5.029  0.00  0.00    +0.013 A 
ATOM      3  C   UNL     1     -25.656  20.649   5.133  0.00  0.00    +0.019 A 
ATOM     38  C   UNL     1     -25.789  19.255   4.740  0.00  0.00    +0.120 A 
ATOM     39  N   UNL     1     -24.678  18.555   4.279  0.00  0.00    -0.263 NA
ATOM     40  C   UNL     1     -23.408  19.142   4.174  0.00  0.00    +0.111 A 
ENDBRANCH   4   3
ENDBRANCH  10   9
BRANCH  12  13
ATOM     13  N   UNL     1     -34.149  24.085   4.369  0.00  0.00    -0.281 N 
ATOM     14  C   UNL     1     -34.604  25.317   4.810  0.00  0.00    +0.248 C 
ATOM     30  O   UNL     1     -34.728  25.627   5.985  0.00  0.00    -0.270 OA
ATOM     31  H   UNL     1     -34.278  23.888   3.377  0.00  0.00    +0.155 HD
BRANCH  14  15
ATOM     15  C   UNL     1     -34.991  26.347   3.799  0.00  0.00    +0.037 A 
ATOM     16  C   UNL     1     -35.673  27.582   4.195  0.00  0.00    +0.013 A 
ATOM     17  C   UNL     1     -36.050  28.552   3.198  0.00  0.00    +0.005 A 
ATOM     18  C   UNL     1     -35.743  28.291   1.793  0.00  0.00    -0.033 A 
ATOM     28  C   UNL     1     -35.060  27.061   1.429  0.00  0.00    +0.005 A 
ATOM     29  C   UNL     1     -34.691  26.107   2.404  0.00  0.00    +0.013 A 
BRANCH  18  19
ATOM     19  C   UNL     1     -36.127  29.261   0.659  0.00  0.00    +0.119 C 
BRANCH  19  20
ATOM     20  N   UNL     1     -35.193  30.393   0.383  0.00  0.00    -0.302 NA
ATOM     21  C   UNL     1     -35.936  31.650  -0.079  0.00  0.00    +0.066 C 
ATOM     22  C   UNL     1     -34.947  32.832  -0.342  0.00  0.00    -0.064 C 
ATOM     23  N   UNL     1     -33.910  32.403  -1.381  0.00  0.00    +0.379 N 
ATOM     24  C   UNL     1     -33.013  33.531  -1.673  0.00  0.00    -0.096 C 
ATOM     25  H   UNL     1     -34.456  32.153  -2.320  0.00  0.00    -0.082 HD
ATOM     26  C   UNL     1     -33.168  31.152  -0.931  0.00  0.00    -0.064 C 
ATOM     27  C   UNL     1     -34.163  29.993  -0.644  0.00  0.00    +0.066 C 
ENDBRANCH  19  20
ENDBRANCH  18  19
ENDBRANCH  14  15
ENDBRANCH  12  13
TORSDOF 6
ENDMDL
MODEL 3
REMARK VINA RESULT:      -9.0      5.454     15.327
REMARK  Name = C:\Users\Docking\Desktop\test protocol\1iep_ligandH.pdb
REMARK  8 active torsions:
REMARK  status: ('A' for Active; 'I' for Inactive)
REMARK    1  A    between atoms: _5  and  _11
REMARK    2  A    between atoms: _19  and  _21
REMARK    3  A    between atoms: _22  and  _66
REMARK    4  A    between atoms: _27  and  _30
REMARK    5  A    between atoms: _32  and  _33
REMARK    6  A    between atoms: _38  and  _43
REMARK    7  A    between atoms: _43  and  _46
REMARK    8  A    between atoms: _53  and  _55
REMARK                            x       y       z     vdW  Elec       q    Type
REMARK                         _______ _______ _______ _____ _____    ______ ____
ROOT
ATOM     10  C   UNL     1     -26.232  14.063   5.129  0.00  0.00    +0.038 A 
ATOM     11  C   UNL     1     -25.632  13.890   3.856  0.00  0.00    +0.047 A 
ATOM     12  C   UNL     1     -24.604  12.884   3.638  0.00  0.00    +0.035 A 
ATOM     32  C   UNL     1     -24.213  12.069   4.740  0.00  0.00    +0.024 A 
ATOM     33  C   UNL     1     -24.811  12.232   6.042  0.00  0.00    +0.007 A 
ATOM     34  C   UNL     1     -25.824  13.224   6.263  0.00  0.00    -0.029 A 
ATOM     35  C   UNL     1     -26.426  13.359   7.681  0.00  0.00    +0.045 C 
ENDROOT
BRANCH  10   9
ATOM      4  C   UNL     1     -27.675  18.641   5.149  0.00  0.00    +0.077 A 
ATOM      5  C   UNL     1     -26.354  19.120   4.857  0.00  0.00    +0.048 A 
ATOM      6  C   UNL     1     -25.330  18.156   4.717  0.00  0.00    +0.116 A 
ATOM      7  N   UNL     1     -25.617  16.816   4.859  0.00  0.00    -0.223 NA
ATOM      8  C   UNL     1     -26.901  16.387   5.142  0.00  0.00    +0.220 A 
ATOM      9  N   UNL     1     -27.214  15.044   5.282  0.00  0.00    -0.283 N 
ATOM     36  H   UNL     1     -28.172  14.769   5.498  0.00  0.00    +0.155 HD
ATOM     37  N   UNL     1     -27.896  17.288   5.282  0.00  0.00    -0.214 NA
BRANCH   4   3
ATOM      1  C   UNL     1     -31.240  19.981   6.037  0.00  0.00    +0.020 A 
ATOM      2  C   UNL     1     -30.124  19.076   5.890  0.00  0.00    +0.013 A 
ATOM      3  C   UNL     1     -28.862  19.535   5.323  0.00  0.00    +0.019 A 
ATOM     38  C   UNL     1     -28.763  20.927   4.911  0.00  0.00    +0.120 A 
ATOM     39  N   UNL     1     -29.855  21.775   5.063  0.00  0.00    -0.263 NA
ATOM     40  C   UNL     1     -31.074  21.345   5.606  0.00  0.00    +0.111 A 
ENDBRANCH   4   3
ENDBRANCH  10   9
BRANCH  12  13
ATOM     13  N   UNL     1     -23.953  12.669   2.370  0.00  0.00    -0.281 N 
ATOM     14  C   UNL     1     -22.611  12.819   2.065  0.00  0.00    +0.248 C 
ATOM     30  O   UNL     1     -21.795  13.370   2.789  0.00  0.00    -0.270 OA
ATOM     31  H   UNL     1     -24.556  12.369   1.603  0.00  0.00    +0.155 HD
BRANCH  14  15
ATOM     15  C   UNL     1     -22.103  12.293   0.761  0.00  0.00    +0.037 A 
ATOM     16  C   UNL     1     -21.488  13.181  -0.229  0.00  0.00    +0.013 A 
ATOM     17  C   UNL     1     -21.022  12.650  -1.485  0.00  0.00    +0.005 A 
ATOM     18  C   UNL     1     -21.168  11.222  -1.758  0.00  0.00    -0.033 A 
ATOM     28  C   UNL     1     -21.777  10.363  -0.756  0.00  0.00    +0.005 A 
ATOM     29  C   UNL     1     -22.236  10.880   0.476  0.00  0.00    +0.013 A 
BRANCH  18  19
ATOM     19  C   UNL     1     -20.719  10.573  -3.081  0.00  0.00    +0.119 C 
BRANCH  19  20
ATOM     20  N   UNL     1     -19.275  10.213  -3.209  0.00  0.00    -0.302 NA
ATOM     21  C   UNL     1     -18.690  10.654  -4.554  0.00  0.00    +0.066 C 
ATOM     22  C   UNL     1     -17.174  10.289  -4.662  0.00  0.00    -0.064 C 
ATOM     23  N   UNL     1     -17.000   8.782  -4.464  0.00  0.00    +0.379 N 
ATOM     24  C   UNL     1     -15.582   8.427  -4.623  0.00  0.00    -0.096 C 
ATOM     25  H   UNL     1     -17.570   8.267  -5.272  0.00  0.00    -0.082 HD
ATOM     26  C   UNL     1     -17.581   8.334  -3.131  0.00  0.00    -0.064 C 
ATOM     27  C   UNL     1     -19.080   8.728  -3.021  0.00  0.00    +0.066 C 
ENDBRANCH  19  20
ENDBRANCH  18  19
ENDBRANCH  14  15
ENDBRANCH  12  13
TORSDOF 6
ENDMDL
MODEL 4
REMARK VINA RESULT:      -9.0     38.461     40.661
REMARK  Name = C:\Users\Docking\Desktop\test protocol\1iep_ligandH.pdb
REMARK  8 active torsions:
REMARK  status: ('A' for Active; 'I' for Inactive)
REMARK    1  A    between atoms: _5  and  _11
REMARK    2  A    between atoms: _19  and  _21
REMARK    3  A    between atoms: _22  and  _66
REMARK    4  A    between atoms: _27  and  _30
REMARK    5  A    between atoms: _32  and  _33
REMARK    6  A    between atoms: _38  and  _43
REMARK    7  A    between atoms: _43  and  _46
REMARK    8  A    between atoms: _53  and  _55
REMARK                            x       y       z     vdW  Elec       q    Type
REMARK                         _______ _______ _______ _____ _____    ______ ____
ROOT
ATOM     10  C   UNL     1      -0.962  11.456 -22.157  0.00  0.00    +0.038 A 
ATOM     11  C   UNL     1      -2.065  10.707 -22.641  0.00  0.00    +0.047 A 
ATOM     12  C   UNL     1      -1.915   9.315 -23.035  0.00  0.00    +0.035 A 
ATOM     32  C   UNL     1      -0.627   8.715 -22.919  0.00  0.00    +0.024 A 
ATOM     33  C   UNL     1       0.505   9.461 -22.429  0.00  0.00    +0.007 A 
ATOM     34  C   UNL     1       0.364  10.836 -22.042  0.00  0.00    -0.029 A 
ATOM     35  C   UNL     1       1.614  11.589 -21.531  0.00  0.00    +0.045 C 
ENDROOT
BRANCH  10   9
ATOM      4  C   UNL     1      -0.836  16.162 -23.090  0.00  0.00    +0.077 A 
ATOM      5  C   UNL     1      -0.300  15.947 -24.403  0.00  0.00    +0.048 A 
ATOM      6  C   UNL     1      -0.064  14.611 -24.798  0.00  0.00    +0.116 A 
ATOM      7  N   UNL     1      -0.348  13.575 -23.935  0.00  0.00    -0.223 NA
ATOM      8  C   UNL     1      -0.863  13.817 -22.675  0.00  0.00    +0.220 A 
ATOM      9  N   UNL     1      -1.163  12.789 -21.793  0.00  0.00    -0.283 N 
ATOM     36  H   UNL     1      -1.535  13.010 -20.870  0.00  0.00    +0.155 HD
ATOM     37  N   UNL     1      -1.095  15.084 -22.274  0.00  0.00    -0.214 NA
BRANCH   4   3
ATOM      1  C   UNL     1      -2.667  19.172 -21.391  0.00  0.00    +0.020 A 
ATOM      2  C   UNL     1      -2.422  17.849 -21.917  0.00  0.00    +0.013 A 
ATOM      3  C   UNL     1      -1.143  17.516 -22.531  0.00  0.00    +0.019 A 
ATOM     38  C   UNL     1      -0.124  18.553 -22.596  0.00  0.00    +0.120 A 
ATOM     39  N   UNL     1      -0.389  19.819 -22.083  0.00  0.00    -0.263 NA
ATOM     40  C   UNL     1      -1.617  20.151 -21.491  0.00  0.00    +0.111 A 
ENDBRANCH   4   3
ENDBRANCH  10   9
BRANCH  12  13
ATOM     13  N   UNL     1      -2.997   8.507 -23.541  0.00  0.00    -0.281 N 
ATOM     14  C   UNL     1      -4.057   7.963 -22.834  0.00  0.00    +0.248 C 
ATOM     30  O   UNL     1      -4.119   7.910 -21.615  0.00  0.00    -0.270 OA
ATOM     31  H   UNL     1      -2.979   8.313 -24.542  0.00  0.00    +0.155 HD
BRANCH  14  15
ATOM     15  C   UNL     1      -5.206   7.380 -23.591  0.00  0.00    +0.037 A 
ATOM     16  C   UNL     1      -4.991   6.557 -24.784  0.00  0.00    +0.013 A 
ATOM     17  C   UNL     1      -6.118   6.021 -25.505  0.00  0.00    +0.005 A 
ATOM     18  C   UNL     1      -7.472   6.306 -25.034  0.00  0.00    -0.033 A 
ATOM     28  C   UNL     1      -7.656   7.122 -23.845  0.00  0.00    +0.005 A 
ATOM     29  C   UNL     1      -6.553   7.650 -23.136  0.00  0.00    +0.013 A 
BRANCH  18  19
ATOM     19  C   UNL     1      -8.733   5.794 -25.754  0.00  0.00    +0.119 C 
BRANCH  19  20
ATOM     20  N   UNL     1      -9.366   6.703 -26.756  0.00  0.00    -0.302 NA
ATOM     21  C   UNL     1      -8.376   7.140 -27.840  0.00  0.00    +0.066 C 
ATOM     22  C   UNL     1      -9.060   8.071 -28.893  0.00  0.00    -0.064 C 
ATOM     23  N   UNL     1      -9.656   9.288 -28.182  0.00  0.00    +0.379 N 
ATOM     24  C   UNL     1     -10.250  10.194 -29.175  0.00  0.00    -0.096 C 
ATOM     25  H   UNL     1      -8.821   9.831 -27.683  0.00  0.00    -0.082 HD
ATOM     26  C   UNL     1     -10.640   8.862 -27.100  0.00  0.00    -0.064 C 
ATOM     27  C   UNL     1      -9.958   7.913 -26.076  0.00  0.00    +0.066 C 
ENDBRANCH  19  20
ENDBRANCH  18  19
ENDBRANCH  14  15
ENDBRANCH  12  13
TORSDOF 6
ENDMDL
MODEL 5
REMARK VINA RESULT:      -8.9      1.457      1.819
REMARK  Name = C:\Users\Docking\Desktop\test protocol\1iep_ligandH.pdb
REMARK  8 active torsions:
REMARK  status: ('A' for Active; 'I' for Inactive)
REMARK    1  A    between atoms: _5  and  _11
REMARK    2  A    between atoms: _19  and  _21
REMARK    3  A    between atoms: _22  and  _66
REMARK    4  A    between atoms: _27  and  _30
REMARK    5  A    between atoms: _32  and  _33
REMARK    6  A    between atoms: _38  and  _43
REMARK    7  A    between atoms: _43  and  _46
REMARK    8  A    between atoms: _53  and  _55
REMARK                            x       y       z     vdW  Elec       q    Type
REMARK                         _______ _______ _______ _____ _____    ______ ____
ROOT
ATOM     10  C   UNL     1     -26.249  19.968   4.757  0.00  0.00    +0.038 A 
ATOM     11  C   UNL     1     -27.643  20.209   4.658  0.00  0.00    +0.047 A 
ATOM     12  C   UNL     1     -28.233  21.436   5.172  0.00  0.00    +0.035 A 
ATOM     32  C   UNL     1     -27.373  22.397   5.778  0.00  0.00    +0.024 A 
ATOM     33  C   UNL     1     -25.953  22.168   5.888  0.00  0.00    +0.007 A 
ATOM     34  C   UNL     1     -25.366  20.959   5.385  0.00  0.00    -0.029 A 
ATOM     35  C   UNL     1     -23.840  20.763   5.535  0.00  0.00    +0.045 C 
ENDROOT
BRANCH  10   9
ATOM      4  C   UNL     1     -25.940  15.179   4.696  0.00  0.00    +0.077 A 
ATOM      5  C   UNL     1     -26.858  15.047   5.791  0.00  0.00    +0.048 A 
ATOM      6  C   UNL     1     -27.381  16.236   6.346  0.00  0.00    +0.116 A 
ATOM      7  N   UNL     1     -27.008  17.461   5.836  0.00  0.00    -0.223 NA
ATOM      8  C   UNL     1     -26.120  17.553   4.781  0.00  0.00    +0.220 A 
ATOM      9  N   UNL     1     -25.736  18.774   4.247  0.00  0.00    -0.283 N 
ATOM     36  H   UNL     1     -25.073  18.799   3.473  0.00  0.00    +0.155 HD
ATOM     37  N   UNL     1     -25.605  16.432   4.234  0.00  0.00    -0.214 NA
BRANCH   4   3
ATOM      1  C   UNL     1     -23.620  13.003   2.419  0.00  0.00    +0.020 A 
ATOM      2  C   UNL     1     -24.199  14.160   3.063  0.00  0.00    +0.013 A 
ATOM      3  C   UNL     1     -25.305  14.015   4.001  0.00  0.00    +0.019 A 
ATOM     38  C   UNL     1     -25.806  12.675   4.269  0.00  0.00    +0.120 A 
ATOM     39  N   UNL     1     -25.230  11.580   3.633  0.00  0.00    -0.263 NA
ATOM     40  C   UNL     1     -24.166  11.707   2.727  0.00  0.00    +0.111 A 
ENDBRANCH   4   3
ENDBRANCH  10   9
BRANCH  12  13
ATOM     13  N   UNL     1     -29.643  21.732   5.107  0.00  0.00    -0.281 N 
ATOM     14  C   UNL     1     -30.697  20.964   5.575  0.00  0.00    +0.248 C 
ATOM     30  O   UNL     1     -30.598  19.799   5.931  0.00  0.00    -0.270 OA
ATOM     31  H   UNL     1     -29.894  22.615   4.663  0.00  0.00    +0.155 HD
BRANCH  14  15
ATOM     15  C   UNL     1     -32.060  21.573   5.643  0.00  0.00    +0.037 A 
ATOM     16  C   UNL     1     -33.045  21.124   6.630  0.00  0.00    +0.013 A 
ATOM     17  C   UNL     1     -34.358  21.717   6.663  0.00  0.00    +0.005 A 
ATOM     18  C   UNL     1     -34.694  22.768   5.705  0.00  0.00    -0.033 A 
ATOM     28  C   UNL     1     -33.695  23.199   4.740  0.00  0.00    +0.005 A 
ATOM     29  C   UNL     1     -32.407  22.619   4.705  0.00  0.00    +0.013 A 
BRANCH  18  19
ATOM     19  C   UNL     1     -36.077  23.442   5.654  0.00  0.00    +0.119 C 
BRANCH  19  20
ATOM     20  N   UNL     1     -37.062  22.908   4.666  0.00  0.00    -0.302 NA
ATOM     21  C   UNL     1     -37.214  23.828   3.452  0.00  0.00    +0.066 C 
ATOM     22  C   UNL     1     -38.230  23.243   2.418  0.00  0.00    -0.064 C 
ATOM     23  N   UNL     1     -39.580  23.024   3.103  0.00  0.00    +0.379 N 
ATOM     24  C   UNL     1     -40.555  22.528   2.120  0.00  0.00    -0.096 C 
ATOM     25  H   UNL     1     -39.940  24.014   3.466  0.00  0.00    -0.082 HD
ATOM     26  C   UNL     1     -39.438  22.112   4.314  0.00  0.00    -0.064 C 
ATOM     27  C   UNL     1     -38.404  22.688   5.321  0.00  0.00    +0.066 C 
ENDBRANCH  19  20
ENDBRANCH  18  19
ENDBRANCH  14  15
ENDBRANCH  12  13
TORSDOF 6
ENDMDL
