MODEL 1
REMARK VINA RESULT:      -8.6      0.000      0.000
REMARK  Name = C:\Users\Docking\Desktop\test protocol\1iep_ligandH.pdb
REMARK  8 active torsions:
REMARK  status: ('A' for Active; 'I' for Inactive)
REMARK    1  A    between atoms: _5  and  _11
REMARK    2  A    between atoms: _19  and  _21
REMARK    3  A    between atoms: _22  and  _66
REMARK    4  A    between atoms: _27  and  _30
REMARK    5  A    between atoms: _32  and  _33
REMARK    6  A    between atoms: _38  and  _43
REMARK    7  A    between atoms: _43  and  _46
REMARK    8  A    between atoms: _53  and  _55
REMARK                            x       y       z     vdW  Elec       q    Type
REMARK                         _______ _______ _______ _____ _____    ______ ____
ROOT
ATOM     10  C   UNL     1     -22.346 -25.665   0.482  0.00  0.00    +0.038 A 
ATOM     11  C   UNL     1     -21.884 -26.877   1.056  0.00  0.00    +0.047 A 
ATOM     12  C   UNL     1     -21.604 -28.042   0.231  0.00  0.00    +0.035 A 
ATOM     32  C   UNL     1     -21.802 -27.936  -1.177  0.00  0.00    +0.024 A 
ATOM     33  C   UNL     1     -22.272 -26.712  -1.777  0.00  0.00    +0.007 A 
ATOM     34  C   UNL     1     -22.553 -25.561  -0.967  0.00  0.00    -0.029 A 
ATOM     35  C   UNL     1     -23.061 -24.277  -1.664  0.00  0.00    +0.045 C 
ENDROOT
BRANCH  10   9
ATOM      4  C   UNL     1     -25.167 -23.208   3.489  0.00  0.00    +0.077 A 
ATOM      5  C   UNL     1     -26.236 -24.155   3.355  0.00  0.00    +0.048 A 
ATOM      6  C   UNL     1     -26.022 -25.257   2.497  0.00  0.00    +0.116 A 
ATOM      7  N   UNL     1     -24.825 -25.392   1.829  0.00  0.00    -0.223 NA
ATOM      8  C   UNL     1     -23.815 -24.459   1.979  0.00  0.00    +0.220 A 
ATOM      9  N   UNL     1     -22.600 -24.578   1.322  0.00  0.00    -0.283 N 
ATOM     36  H   UNL     1     -21.883 -23.865   1.454  0.00  0.00    +0.155 HD
ATOM     37  N   UNL     1     -23.995 -23.397   2.791  0.00  0.00    -0.214 NA
BRANCH   4   3
ATOM      1  C   UNL     1     -24.770 -19.564   4.855  0.00  0.00    +0.020 A 
ATOM      2  C   UNL     1     -24.672 -20.706   3.977  0.00  0.00    +0.013 A 
ATOM      3  C   UNL     1     -25.240 -21.993   4.361  0.00  0.00    +0.019 A 
ATOM     38  C   UNL     1     -25.906 -22.089   5.651  0.00  0.00    +0.120 A 
ATOM     39  N   UNL     1     -25.984 -20.972   6.477  0.00  0.00    -0.263 NA
ATOM     40  C   UNL     1     -25.440 -19.730   6.118  0.00  0.00    +0.111 A 
ENDBRANCH   4   3
ENDBRANCH  10   9
BRANCH  12  13
ATOM     13  N   UNL     1     -21.141 -29.301   0.758  0.00  0.00    -0.281 N 
ATOM     14  C   UNL     1     -20.038 -29.533   1.564  0.00  0.00    +0.248 C 
ATOM     30  O   UNL     1     -19.156 -28.716   1.780  0.00  0.00    -0.270 OA
ATOM     31  H   UNL     1     -21.693 -30.121   0.507  0.00  0.00    +0.155 HD
BRANCH  14  15
ATOM     15  C   UNL     1     -19.887 -30.871   2.213  0.00  0.00    +0.037 A 
ATOM     16  C   UNL     1     -20.920 -31.902   2.080  0.00  0.00    +0.013 A 
ATOM     17  C   UNL     1     -20.756 -33.178   2.729  0.00  0.00    +0.005 A 
ATOM     18  C   UNL     1     -19.553 -33.431   3.518  0.00  0.00    -0.033 A 
ATOM     28  C   UNL     1     -18.541 -32.393   3.629  0.00  0.00    +0.005 A 
ATOM     29  C   UNL     1     -18.698 -31.141   2.994  0.00  0.00    +0.013 A 
BRANCH  18  19
ATOM     19  C   UNL     1     -19.304 -34.756   4.263  0.00  0.00    +0.119 C 
BRANCH  19  20
ATOM     20  N   UNL     1     -17.912 -35.029   4.728  0.00  0.00    -0.302 NA
ATOM     21  C   UNL     1     -17.447 -36.439   4.355  0.00  0.00    +0.066 C 
ATOM     22  C   UNL     1     -15.980 -36.699   4.830  0.00  0.00    -0.064 C 
ATOM     23  N   UNL     1     -15.890 -36.481   6.341  0.00  0.00    +0.379 N 
ATOM     24  C   UNL     1     -14.525 -36.781   6.800  0.00  0.00    -0.096 C 
ATOM     25  H   UNL     1     -16.578 -37.209   6.829  0.00  0.00    -0.082 HD
ATOM     26  C   UNL     1     -16.353 -35.081   6.721  0.00  0.00    -0.064 C 
ATOM     27  C   UNL     1     -17.801 -34.823   6.219  0.00  0.00    +0.066 C 
ENDBRANCH  19  20
ENDBRANCH  18  19
ENDBRANCH  14  15
ENDBRANCH  12  13
TORSDOF 6
ENDMDL
MODEL 2
REMARK VINA RESULT:      -8.4      1.915      2.928
REMARK  Name = C:\Users\Docking\Desktop\test protocol\1iep_ligandH.pdb
REMARK  8 active torsions:
REMARK  status: ('A' for Active; 'I' for Inactive)
REMARK    1  A    between atoms: _5  and  _11
REMARK    2  A    between atoms: _19  and  _21
REMARK    3  A    between atoms: _22  and  _66
REMARK    4  A    between atoms: _27  and  _30
REMARK    5  A    between atoms: _32  and  _33
REMARK    6  A    between atoms: _38  and  _43
REMARK    7  A    between atoms: _43  and  _46
REMARK    8  A    between atoms: _53  and  _55
REMARK                            x       y       z     vdW  Elec       q    Type
REMARK                         _______ _______ _______ _____ _____    ______ ____
ROOT
ATOM     10  C   UNL     1     -22.350 -25.675   0.542  0.00  0.00    +0.038 A 
ATOM     11  C   UNL     1     -21.911 -26.894   1.119  0.00  0.00    +0.047 A 
ATOM     12  C   UNL     1     -21.607 -28.051   0.292  0.00  0.00    +0.035 A 
ATOM     32  C   UNL     1     -21.760 -27.931  -1.120  0.00  0.00    +0.024 A 
ATOM     33  C   UNL     1     -22.206 -26.700  -1.723  0.00  0.00    +0.007 A 
ATOM     34  C   UNL     1     -22.509 -25.556  -0.912  0.00  0.00    -0.029 A 
ATOM     35  C   UNL     1     -22.990 -24.263  -1.612  0.00  0.00    +0.045 C 
ENDROOT
BRANCH  10   9
ATOM      4  C   UNL     1     -25.239 -23.262   3.521  0.00  0.00    +0.077 A 
ATOM      5  C   UNL     1     -26.296 -24.220   3.366  0.00  0.00    +0.048 A 
ATOM      6  C   UNL     1     -26.058 -25.315   2.506  0.00  0.00    +0.116 A 
ATOM      7  N   UNL     1     -24.850 -25.434   1.854  0.00  0.00    -0.223 NA
ATOM      8  C   UNL     1     -23.852 -24.491   2.024  0.00  0.00    +0.220 A 
ATOM      9  N   UNL     1     -22.627 -24.595   1.384  0.00  0.00    -0.283 N 
ATOM     36  H   UNL     1     -21.920 -23.875   1.530  0.00  0.00    +0.155 HD
ATOM     37  N   UNL     1     -24.055 -23.436   2.839  0.00  0.00    -0.214 NA
BRANCH   4   3
ATOM      1  C   UNL     1     -24.926 -19.614   4.898  0.00  0.00    +0.020 A 
ATOM      2  C   UNL     1     -24.805 -20.751   4.014  0.00  0.00    +0.013 A 
ATOM      3  C   UNL     1     -25.337 -22.053   4.398  0.00  0.00    +0.019 A 
ATOM     38  C   UNL     1     -25.991 -22.172   5.692  0.00  0.00    +0.120 A 
ATOM     39  N   UNL     1     -26.092 -21.060   6.523  0.00  0.00    -0.263 NA
ATOM     40  C   UNL     1     -25.582 -19.803   6.165  0.00  0.00    +0.111 A 
ENDBRANCH   4   3
ENDBRANCH  10   9
BRANCH  12  13
ATOM     13  N   UNL     1     -21.166 -29.318   0.822  0.00  0.00    -0.281 N 
ATOM     14  C   UNL     1     -20.110 -29.558   1.685  0.00  0.00    +0.248 C 
ATOM     30  O   UNL     1     -19.247 -28.739   1.967  0.00  0.00    -0.270 OA
ATOM     31  H   UNL     1     -21.696 -30.137   0.524  0.00  0.00    +0.155 HD
BRANCH  14  15
ATOM     15  C   UNL     1     -19.985 -30.907   2.316  0.00  0.00    +0.037 A 
ATOM     16  C   UNL     1     -18.799 -31.276   3.093  0.00  0.00    +0.013 A 
ATOM     17  C   UNL     1     -18.697 -32.590   3.677  0.00  0.00    +0.005 A 
ATOM     18  C   UNL     1     -19.787 -33.545   3.487  0.00  0.00    -0.033 A 
ATOM     28  C   UNL     1     -20.954 -33.150   2.716  0.00  0.00    +0.005 A 
ATOM     29  C   UNL     1     -21.057 -31.864   2.141  0.00  0.00    +0.013 A 
BRANCH  18  19
ATOM     19  C   UNL     1     -19.754 -34.975   4.056  0.00  0.00    +0.119 C 
BRANCH  19  20
ATOM     20  N   UNL     1     -20.745 -35.951   3.512  0.00  0.00    -0.302 NA
ATOM     21  C   UNL     1     -21.248 -36.918   4.586  0.00  0.00    +0.066 C 
ATOM     22  C   UNL     1     -22.301 -37.917   4.005  0.00  0.00    -0.064 C 
ATOM     23  N   UNL     1     -21.681 -38.683   2.834  0.00  0.00    +0.379 N 
ATOM     24  C   UNL     1     -22.649 -39.664   2.322  0.00  0.00    -0.096 C 
ATOM     25  H   UNL     1     -20.803 -39.247   3.227  0.00  0.00    -0.082 HD
ATOM     26  C   UNL     1     -21.175 -37.728   1.762  0.00  0.00    -0.064 C 
ATOM     27  C   UNL     1     -20.152 -36.721   2.357  0.00  0.00    +0.066 C 
ENDBRANCH  19  20
ENDBRANCH  18  19
ENDBRANCH  14  15
ENDBRANCH  12  13
TORSDOF 6
ENDMDL
MODEL 3
REMARK VINA RESULT:      -7.8     32.148     39.341
REMARK  Name = C:\Users\Docking\Desktop\test protocol\1iep_ligandH.pdb
REMARK  8 active torsions:
REMARK  status: ('A' for Active; 'I' for Inactive)
REMARK    1  A    between atoms: _5  and  _11
REMARK    2  A    between atoms: _19  and  _21
REMARK    3  A    between atoms: _22  and  _66
REMARK    4  A    between atoms: _27  and  _30
REMARK    5  A    between atoms: _32  and  _33
REMARK    6  A    between atoms: _38  and  _43
REMARK    7  A    between atoms: _43  and  _46
REMARK    8  A    between atoms: _53  and  _55
REMARK                            x       y       z     vdW  Elec       q    Type
REMARK                         _______ _______ _______ _____ _____    ______ ____
ROOT
ATOM     10  C   UNL     1     -26.413  11.114  13.223  0.00  0.00    +0.038 A 
ATOM     11  C   UNL     1     -26.822  10.027  12.409  0.00  0.00    +0.047 A 
ATOM     12  C   UNL     1     -28.148   9.444  12.541  0.00  0.00    +0.035 A 
ATOM     32  C   UNL     1     -29.034   9.996  13.512  0.00  0.00    +0.024 A 
ATOM     33  C   UNL     1     -28.635  11.100  14.349  0.00  0.00    +0.007 A 
ATOM     34  C   UNL     1     -27.327  11.677  14.224  0.00  0.00    -0.029 A 
ATOM     35  C   UNL     1     -26.950  12.855  15.152  0.00  0.00    +0.045 C 
ENDROOT
BRANCH  10   9
ATOM      4  C   UNL     1     -23.370  14.389  11.478  0.00  0.00    +0.077 A 
ATOM      5  C   UNL     1     -24.426  15.109  10.826  0.00  0.00    +0.048 A 
ATOM      6  C   UNL     1     -25.737  14.600  10.959  0.00  0.00    +0.116 A 
ATOM      7  N   UNL     1     -25.963  13.455  11.691  0.00  0.00    -0.223 NA
ATOM      8  C   UNL     1     -24.922  12.783  12.305  0.00  0.00    +0.220 A 
ATOM      9  N   UNL     1     -25.128  11.634  13.053  0.00  0.00    -0.283 N 
ATOM     36  H   UNL     1     -24.333  11.164  13.484  0.00  0.00    +0.155 HD
ATOM     37  N   UNL     1     -23.661  13.249  12.192  0.00  0.00    -0.214 NA
BRANCH   4   3
ATOM      1  C   UNL     1     -19.698  15.247  12.517  0.00  0.00    +0.020 A 
ATOM      2  C   UNL     1     -21.080  14.840  12.615  0.00  0.00    +0.013 A 
ATOM      3  C   UNL     1     -21.932  14.804  11.433  0.00  0.00    +0.019 A 
ATOM     38  C   UNL     1     -21.349  15.188  10.156  0.00  0.00    +0.120 A 
ATOM     39  N   UNL     1     -20.014  15.578  10.093  0.00  0.00    -0.263 NA
ATOM     40  C   UNL     1     -19.186  15.618  11.224  0.00  0.00    +0.111 A 
ENDBRANCH   4   3
ENDBRANCH  10   9
BRANCH  12  13
ATOM     13  N   UNL     1     -28.616   8.335  11.748  0.00  0.00    -0.281 N 
ATOM     14  C   UNL     1     -28.291   8.029  10.436  0.00  0.00    +0.248 C 
ATOM     30  O   UNL     1     -27.710   8.786   9.673  0.00  0.00    -0.270 OA
ATOM     31  H   UNL     1     -29.266   7.698  12.208  0.00  0.00    +0.155 HD
BRANCH  14  15
ATOM     15  C   UNL     1     -28.679   6.693   9.889  0.00  0.00    +0.037 A 
ATOM     16  C   UNL     1     -27.680   5.785   9.319  0.00  0.00    +0.013 A 
ATOM     17  C   UNL     1     -28.084   4.510   8.783  0.00  0.00    +0.005 A 
ATOM     18  C   UNL     1     -29.496   4.134   8.815  0.00  0.00    -0.033 A 
ATOM     28  C   UNL     1     -30.465   5.052   9.391  0.00  0.00    +0.005 A 
ATOM     29  C   UNL     1     -30.073   6.303   9.917  0.00  0.00    +0.013 A 
BRANCH  18  19
ATOM     19  C   UNL     1     -30.020   2.803   8.246  0.00  0.00    +0.119 C 
BRANCH  19  20
ATOM     20  N   UNL     1     -31.204   2.190   8.919  0.00  0.00    -0.302 NA
ATOM     21  C   UNL     1     -30.918   0.765   9.401  0.00  0.00    +0.066 C 
ATOM     22  C   UNL     1     -32.160   0.148  10.123  0.00  0.00    -0.064 C 
ATOM     23  N   UNL     1     -33.360   0.168   9.174  0.00  0.00    +0.379 N 
ATOM     24  C   UNL     1     -34.514  -0.464   9.829  0.00  0.00    -0.096 C 
ATOM     25  H   UNL     1     -33.096  -0.449   8.284  0.00  0.00    -0.082 HD
ATOM     26  C   UNL     1     -33.650   1.581   8.688  0.00  0.00    -0.064 C 
ATOM     27  C   UNL     1     -32.400   2.196   7.998  0.00  0.00    +0.066 C 
ENDBRANCH  19  20
ENDBRANCH  18  19
ENDBRANCH  14  15
ENDBRANCH  12  13
TORSDOF 6
ENDMDL
MODEL 4
REMARK VINA RESULT:      -7.7     30.945     35.072
REMARK  Name = C:\Users\Docking\Desktop\test protocol\1iep_ligandH.pdb
REMARK  8 active torsions:
REMARK  status: ('A' for Active; 'I' for Inactive)
REMARK    1  A    between atoms: _5  and  _11
REMARK    2  A    between atoms: _19  and  _21
REMARK    3  A    between atoms: _22  and  _66
REMARK    4  A    between atoms: _27  and  _30
REMARK    5  A    between atoms: _32  and  _33
REMARK    6  A    between atoms: _38  and  _43
REMARK    7  A    between atoms: _43  and  _46
REMARK    8  A    between atoms: _53  and  _55
REMARK                            x       y       z     vdW  Elec       q    Type
REMARK                         _______ _______ _______ _____ _____    ______ ____
ROOT
ATOM     10  C   UNL     1     -33.448   0.964   7.508  0.00  0.00    +0.038 A 
ATOM     11  C   UNL     1     -32.481   1.860   8.031  0.00  0.00    +0.047 A 
ATOM     12  C   UNL     1     -31.968   2.963   7.234  0.00  0.00    +0.035 A 
ATOM     32  C   UNL     1     -32.465   3.127   5.908  0.00  0.00    +0.024 A 
ATOM     33  C   UNL     1     -33.447   2.225   5.360  0.00  0.00    +0.007 A 
ATOM     34  C   UNL     1     -33.955   1.133   6.141  0.00  0.00    -0.029 A 
ATOM     35  C   UNL     1     -35.002   0.194   5.499  0.00  0.00    +0.045 C 
ENDROOT
BRANCH  10   9
ATOM      4  C   UNL     1     -36.489  -0.862  10.742  0.00  0.00    +0.077 A 
ATOM      5  C   UNL     1     -37.211   0.373  10.848  0.00  0.00    +0.048 A 
ATOM      6  C   UNL     1     -36.763   1.456  10.059  0.00  0.00    +0.116 A 
ATOM      7  N   UNL     1     -35.673   1.304   9.228  0.00  0.00    -0.223 NA
ATOM      8  C   UNL     1     -34.999   0.099   9.151  0.00  0.00    +0.220 A 
ATOM      9  N   UNL     1     -33.906  -0.078   8.317  0.00  0.00    -0.283 N 
ATOM     36  H   UNL     1     -33.430  -0.980   8.294  0.00  0.00    +0.155 HD
ATOM     37  N   UNL     1     -35.406  -0.950   9.896  0.00  0.00    -0.214 NA
BRANCH   4   3
ATOM      1  C   UNL     1     -38.489  -3.612  12.675  0.00  0.00    +0.020 A 
ATOM      2  C   UNL     1     -38.201  -2.404  11.937  0.00  0.00    +0.013 A 
ATOM      3  C   UNL     1     -36.842  -2.098  11.509  0.00  0.00    +0.019 A 
ATOM     38  C   UNL     1     -35.789  -3.044  11.847  0.00  0.00    +0.120 A 
ATOM     39  N   UNL     1     -36.095  -4.198  12.560  0.00  0.00    -0.263 NA
ATOM     40  C   UNL     1     -37.400  -4.502  12.978  0.00  0.00    +0.111 A 
ENDBRANCH   4   3
ENDBRANCH  10   9
BRANCH  12  13
ATOM     13  N   UNL     1     -30.980   3.900   7.709  0.00  0.00    -0.281 N 
ATOM     14  C   UNL     1     -29.601   3.773   7.675  0.00  0.00    +0.248 C 
ATOM     30  O   UNL     1     -29.008   2.735   7.422  0.00  0.00    -0.270 OA
ATOM     31  H   UNL     1     -31.341   4.760   8.121  0.00  0.00    +0.155 HD
BRANCH  14  15
ATOM     15  C   UNL     1     -28.758   4.969   7.979  0.00  0.00    +0.037 A 
ATOM     16  C   UNL     1     -28.070   5.107   9.265  0.00  0.00    +0.013 A 
ATOM     17  C   UNL     1     -27.278   6.280   9.539  0.00  0.00    +0.005 A 
ATOM     18  C   UNL     1     -27.167   7.323   8.523  0.00  0.00    -0.033 A 
ATOM     28  C   UNL     1     -27.856   7.158   7.253  0.00  0.00    +0.005 A 
ATOM     29  C   UNL     1     -28.635   6.011   6.982  0.00  0.00    +0.013 A 
BRANCH  18  19
ATOM     19  C   UNL     1     -26.360   8.617   8.737  0.00  0.00    +0.119 C 
BRANCH  19  20
ATOM     20  N   UNL     1     -25.599   8.745  10.016  0.00  0.00    -0.302 NA
ATOM     21  C   UNL     1     -26.364   9.562  11.061  0.00  0.00    +0.066 C 
ATOM     22  C   UNL     1     -25.563   9.666  12.399  0.00  0.00    -0.064 C 
ATOM     23  N   UNL     1     -24.192  10.286  12.124  0.00  0.00    +0.379 N 
ATOM     24  C   UNL     1     -23.459  10.439  13.389  0.00  0.00    -0.096 C 
ATOM     25  H   UNL     1     -24.360  11.306  11.705  0.00  0.00    -0.082 HD
ATOM     26  C   UNL     1     -23.426   9.481  11.084  0.00  0.00    -0.064 C 
ATOM     27  C   UNL     1     -24.243   9.359   9.767  0.00  0.00    +0.066 C 
ENDBRANCH  19  20
ENDBRANCH  18  19
ENDBRANCH  14  15
ENDBRANCH  12  13
TORSDOF 6
ENDMDL
MODEL 5
REMARK VINA RESULT:      -7.5     22.028     25.993
REMARK  Name = C:\Users\Docking\Desktop\test protocol\1iep_ligandH.pdb
REMARK  8 active torsions:
REMARK  status: ('A' for Active; 'I' for Inactive)
REMARK    1  A    between atoms: _5  and  _11
REMARK    2  A    between atoms: _19  and  _21
REMARK    3  A    between atoms: _22  and  _66
REMARK    4  A    between atoms: _27  and  _30
REMARK    5  A    between atoms: _32  and  _33
REMARK    6  A    between atoms: _38  and  _43
REMARK    7  A    between atoms: _43  and  _46
REMARK    8  A    between atoms: _53  and  _55
REMARK                            x       y       z     vdW  Elec       q    Type
REMARK                         _______ _______ _______ _____ _____    ______ ____
ROOT
ATOM     10  C   UNL     1      -7.406  -9.402   8.297  0.00  0.00    +0.038 A 
ATOM     11  C   UNL     1      -8.682  -8.951   7.870  0.00  0.00    +0.047 A 
ATOM     12  C   UNL     1      -8.983  -8.771   6.459  0.00  0.00    +0.035 A 
ATOM     32  C   UNL     1      -7.963  -9.063   5.508  0.00  0.00    +0.024 A 
ATOM     33  C   UNL     1      -6.660  -9.521   5.923  0.00  0.00    +0.007 A 
ATOM     34  C   UNL     1      -6.356  -9.698   7.314  0.00  0.00    -0.029 A 
ATOM     35  C   UNL     1      -4.941 -10.185   7.703  0.00  0.00    +0.045 C 
ENDROOT
BRANCH  10   9
ATOM      4  C   UNL     1      -7.919 -11.775  12.437  0.00  0.00    +0.077 A 
ATOM      5  C   UNL     1      -8.747 -12.776  11.829  0.00  0.00    +0.048 A 
ATOM      6  C   UNL     1      -9.023 -12.640  10.450  0.00  0.00    +0.116 A 
ATOM      7  N   UNL     1      -8.504 -11.578   9.742  0.00  0.00    -0.223 NA
ATOM      8  C   UNL     1      -7.710 -10.629  10.359  0.00  0.00    +0.220 A 
ATOM      9  N   UNL     1      -7.171  -9.557   9.665  0.00  0.00    -0.283 N 
ATOM     36  H   UNL     1      -6.596  -8.874  10.158  0.00  0.00    +0.155 HD
ATOM     37  N   UNL     1      -7.433 -10.736  11.675  0.00  0.00    -0.214 NA
BRANCH   4   3
ATOM      1  C   UNL     1      -6.752 -10.646  15.996  0.00  0.00    +0.020 A 
ATOM      2  C   UNL     1      -7.112 -10.584  14.598  0.00  0.00    +0.013 A 
ATOM      3  C   UNL     1      -7.535 -11.783  13.884  0.00  0.00    +0.019 A 
ATOM     38  C   UNL     1      -7.584 -13.037  14.620  0.00  0.00    +0.120 A 
ATOM     39  N   UNL     1      -7.230 -13.066  15.965  0.00  0.00    -0.263 NA
ATOM     40  C   UNL     1      -6.820 -11.920  16.662  0.00  0.00    +0.111 A 
ENDBRANCH   4   3
ENDBRANCH  10   9
BRANCH  12  13
ATOM     13  N   UNL     1     -10.257  -8.308   5.967  0.00  0.00    -0.281 N 
ATOM     14  C   UNL     1     -10.509  -7.223   5.143  0.00  0.00    +0.248 C 
ATOM     30  O   UNL     1      -9.692  -6.355   4.875  0.00  0.00    -0.270 OA
ATOM     31  H   UNL     1     -11.072  -8.845   6.263  0.00  0.00    +0.155 HD
BRANCH  14  15
ATOM     15  C   UNL     1     -11.869  -7.074   4.541  0.00  0.00    +0.037 A 
ATOM     16  C   UNL     1     -12.225  -7.752   3.292  0.00  0.00    +0.013 A 
ATOM     17  C   UNL     1     -13.539  -7.578   2.724  0.00  0.00    +0.005 A 
ATOM     18  C   UNL     1     -14.506  -6.722   3.406  0.00  0.00    -0.033 A 
ATOM     28  C   UNL     1     -14.128  -6.065   4.647  0.00  0.00    +0.005 A 
ATOM     29  C   UNL     1     -12.841  -6.233   5.206  0.00  0.00    +0.013 A 
BRANCH  18  19
ATOM     19  C   UNL     1     -15.923  -6.461   2.861  0.00  0.00    +0.119 C 
BRANCH  19  20
ATOM     20  N   UNL     1     -16.097  -5.305   1.932  0.00  0.00    -0.302 NA
ATOM     21  C   UNL     1     -14.809  -4.489   1.784  0.00  0.00    +0.066 C 
ATOM     22  C   UNL     1     -15.003  -3.297   0.791  0.00  0.00    -0.064 C 
ATOM     23  N   UNL     1     -16.151  -2.412   1.279  0.00  0.00    +0.379 N 
ATOM     24  C   UNL     1     -16.298  -1.259   0.379  0.00  0.00    -0.096 C 
ATOM     25  H   UNL     1     -15.874  -2.023   2.286  0.00  0.00    -0.082 HD
ATOM     26  C   UNL     1     -17.435  -3.216   1.432  0.00  0.00    -0.064 C 
ATOM     27  C   UNL     1     -17.224  -4.416   2.397  0.00  0.00    +0.066 C 
ENDBRANCH  19  20
ENDBRANCH  18  19
ENDBRANCH  14  15
ENDBRANCH  12  13
TORSDOF 6
ENDMDL
