MODEL 1
REMARK VINA RESULT:      -9.6      0.000      0.000
REMARK  Name = C:\Users\Docking\Desktop\test protocol\1iep_ligandH.pdb
REMARK  8 active torsions:
REMARK  status: ('A' for Active; 'I' for Inactive)
REMARK    1  A    between atoms: _5  and  _11
REMARK    2  A    between atoms: _19  and  _21
REMARK    3  A    between atoms: _22  and  _66
REMARK    4  A    between atoms: _27  and  _30
REMARK    5  A    between atoms: _32  and  _33
REMARK    6  A    between atoms: _38  and  _43
REMARK    7  A    between atoms: _43  and  _46
REMARK    8  A    between atoms: _53  and  _55
REMARK                            x       y       z     vdW  Elec       q    Type
REMARK                         _______ _______ _______ _____ _____    ______ ____
ROOT
ATOM     10  C   UNL     1      13.368  -6.095 -43.523  0.00  0.00    +0.038 A 
ATOM     11  C   UNL     1      12.177  -5.916 -44.271  0.00  0.00    +0.047 A 
ATOM     12  C   UNL     1      11.765  -4.596 -44.725  0.00  0.00    +0.035 A 
ATOM     32  C   UNL     1      12.592  -3.482 -44.402  0.00  0.00    +0.024 A 
ATOM     33  C   UNL     1      13.806  -3.646 -43.641  0.00  0.00    +0.007 A 
ATOM     34  C   UNL     1      14.216  -4.945 -43.188  0.00  0.00    -0.029 A 
ATOM     35  C   UNL     1      15.524  -5.061 -42.371  0.00  0.00    +0.045 C 
ENDROOT
BRANCH  10   9
ATOM      4  C   UNL     1      13.388  -9.649 -40.298  0.00  0.00    +0.077 A 
ATOM      5  C   UNL     1      12.668  -8.862 -39.339  0.00  0.00    +0.048 A 
ATOM      6  C   UNL     1      12.318  -7.546 -39.712  0.00  0.00    +0.116 A 
ATOM      7  N   UNL     1      12.666  -7.062 -40.954  0.00  0.00    -0.223 NA
ATOM      8  C   UNL     1      13.362  -7.847 -41.855  0.00  0.00    +0.220 A 
ATOM      9  N   UNL     1      13.716  -7.384 -43.113  0.00  0.00    -0.283 N 
ATOM     36  H   UNL     1      14.236  -7.992 -43.746  0.00  0.00    +0.155 HD
ATOM     37  N   UNL     1      13.710  -9.108 -41.522  0.00  0.00    -0.214 NA
BRANCH   4   3
ATOM      1  C   UNL     1      14.824 -12.872 -38.609  0.00  0.00    +0.020 A 
ATOM      2  C   UNL     1      14.418 -11.498 -38.795  0.00  0.00    +0.013 A 
ATOM      3  C   UNL     1      13.826 -11.060 -40.052  0.00  0.00    +0.019 A 
ATOM     38  C   UNL     1      13.657 -12.045 -41.110  0.00  0.00    +0.120 A 
ATOM     39  N   UNL     1      14.059 -13.361 -40.903  0.00  0.00    -0.263 NA
ATOM     40  C   UNL     1      14.631 -13.794 -39.698  0.00  0.00    +0.111 A 
ENDBRANCH   4   3
ENDBRANCH  10   9
BRANCH  12  13
ATOM     13  N   UNL     1      10.562  -4.352 -45.481  0.00  0.00    -0.281 N 
ATOM     14  C   UNL     1      10.341  -4.581 -46.829  0.00  0.00    +0.248 C 
ATOM     30  O   UNL     1      11.220  -4.834 -47.640  0.00  0.00    -0.270 OA
ATOM     31  H   UNL     1       9.777  -3.962 -44.959  0.00  0.00    +0.155 HD
BRANCH  14  15
ATOM     15  C   UNL     1       8.945  -4.504 -47.356  0.00  0.00    +0.037 A 
ATOM     16  C   UNL     1       8.340  -3.221 -47.722  0.00  0.00    +0.013 A 
ATOM     17  C   UNL     1       6.985  -3.173 -48.211  0.00  0.00    +0.005 A 
ATOM     18  C   UNL     1       6.226  -4.415 -48.340  0.00  0.00    -0.033 A 
ATOM     28  C   UNL     1       6.852  -5.675 -47.975  0.00  0.00    +0.005 A 
ATOM     29  C   UNL     1       8.179  -5.725 -47.494  0.00  0.00    +0.013 A 
BRANCH  18  19
ATOM     19  C   UNL     1       4.767  -4.456 -48.833  0.00  0.00    +0.119 C 
BRANCH  19  20
ATOM     20  N   UNL     1       3.747  -3.739 -48.012  0.00  0.00    -0.302 NA
ATOM     21  C   UNL     1       3.822  -4.130 -46.533  0.00  0.00    +0.066 C 
ATOM     22  C   UNL     1       2.763  -3.354 -45.685  0.00  0.00    -0.064 C 
ATOM     23  N   UNL     1       1.366  -3.625 -46.246  0.00  0.00    +0.379 N 
ATOM     24  C   UNL     1       0.362  -2.943 -45.416  0.00  0.00    -0.096 C 
ATOM     25  H   UNL     1       1.178  -4.721 -46.172  0.00  0.00    -0.082 HD
ATOM     26  C   UNL     1       1.283  -3.241 -47.717  0.00  0.00    -0.064 C 
ATOM     27  C   UNL     1       2.360  -3.996 -48.546  0.00  0.00    +0.066 C 
ENDBRANCH  19  20
ENDBRANCH  18  19
ENDBRANCH  14  15
ENDBRANCH  12  13
TORSDOF 6
ENDMDL
MODEL 2
REMARK VINA RESULT:      -8.0     18.708     20.696
REMARK  Name = C:\Users\Docking\Desktop\test protocol\1iep_ligandH.pdb
REMARK  8 active torsions:
REMARK  status: ('A' for Active; 'I' for Inactive)
REMARK    1  A    between atoms: _5  and  _11
REMARK    2  A    between atoms: _19  and  _21
REMARK    3  A    between atoms: _22  and  _66
REMARK    4  A    between atoms: _27  and  _30
REMARK    5  A    between atoms: _32  and  _33
REMARK    6  A    between atoms: _38  and  _43
REMARK    7  A    between atoms: _43  and  _46
REMARK    8  A    between atoms: _53  and  _55
REMARK                            x       y       z     vdW  Elec       q    Type
REMARK                         _______ _______ _______ _____ _____    ______ ____
ROOT
ATOM     10  C   UNL     1      25.054   4.095 -48.685  0.00  0.00    +0.038 A 
ATOM     11  C   UNL     1      25.165   2.747 -49.110  0.00  0.00    +0.047 A 
ATOM     12  C   UNL     1      25.067   2.390 -50.517  0.00  0.00    +0.035 A 
ATOM     32  C   UNL     1      24.858   3.434 -51.465  0.00  0.00    +0.024 A 
ATOM     33  C   UNL     1      24.741   4.810 -51.051  0.00  0.00    +0.007 A 
ATOM     34  C   UNL     1      24.835   5.167 -49.664  0.00  0.00    -0.029 A 
ATOM     35  C   UNL     1      24.696   6.658 -49.277  0.00  0.00    +0.045 C 
ENDROOT
BRANCH  10   9
ATOM      4  C   UNL     1      27.539   5.518 -44.834  0.00  0.00    +0.077 A 
ATOM      5  C   UNL     1      28.743   5.681 -45.597  0.00  0.00    +0.048 A 
ATOM      6  C   UNL     1      28.682   5.381 -46.976  0.00  0.00    +0.116 A 
ATOM      7  N   UNL     1      27.500   4.952 -47.540  0.00  0.00    -0.223 NA
ATOM      8  C   UNL     1      26.358   4.804 -46.775  0.00  0.00    +0.220 A 
ATOM      9  N   UNL     1      25.156   4.381 -47.322  0.00  0.00    -0.283 N 
ATOM     36  H   UNL     1      24.338   4.277 -46.723  0.00  0.00    +0.155 HD
ATOM     37  N   UNL     1      26.390   5.082 -45.455  0.00  0.00    -0.214 NA
BRANCH   4   3
ATOM      1  C   UNL     1      27.938   7.183 -41.317  0.00  0.00    +0.020 A 
ATOM      2  C   UNL     1      28.061   6.959 -42.739  0.00  0.00    +0.013 A 
ATOM      3  C   UNL     1      27.443   5.798 -43.366  0.00  0.00    +0.019 A 
ATOM     38  C   UNL     1      26.702   4.875 -42.520  0.00  0.00    +0.120 A 
ATOM     39  N   UNL     1      26.601   5.116 -41.153  0.00  0.00    -0.263 NA
ATOM     40  C   UNL     1      27.193   6.230 -40.538  0.00  0.00    +0.111 A 
ENDBRANCH   4   3
ENDBRANCH  10   9
BRANCH  12  13
ATOM     13  N   UNL     1      25.164   1.038 -51.007  0.00  0.00    -0.281 N 
ATOM     14  C   UNL     1      26.293   0.240 -51.087  0.00  0.00    +0.248 C 
ATOM     30  O   UNL     1      27.437   0.646 -50.947  0.00  0.00    -0.270 OA
ATOM     31  H   UNL     1      24.294   0.617 -51.334  0.00  0.00    +0.155 HD
BRANCH  14  15
ATOM     15  C   UNL     1      26.129  -1.217 -51.379  0.00  0.00    +0.037 A 
ATOM     16  C   UNL     1      26.846  -2.233 -50.604  0.00  0.00    +0.013 A 
ATOM     17  C   UNL     1      26.683  -3.630 -50.918  0.00  0.00    +0.005 A 
ATOM     18  C   UNL     1      25.797  -4.020 -52.012  0.00  0.00    -0.033 A 
ATOM     28  C   UNL     1      25.094  -2.992 -52.762  0.00  0.00    +0.005 A 
ATOM     29  C   UNL     1      25.253  -1.621 -52.458  0.00  0.00    +0.013 A 
BRANCH  18  19
ATOM     19  C   UNL     1      25.580  -5.486 -52.430  0.00  0.00    +0.119 C 
BRANCH  19  20
ATOM     20  N   UNL     1      25.714  -5.810 -53.882  0.00  0.00    -0.302 NA
ATOM     21  C   UNL     1      24.509  -6.594 -54.410  0.00  0.00    +0.066 C 
ATOM     22  C   UNL     1      24.655  -6.905 -55.935  0.00  0.00    -0.064 C 
ATOM     23  N   UNL     1      25.952  -7.681 -56.172  0.00  0.00    +0.379 N 
ATOM     24  C   UNL     1      26.064  -8.025 -57.597  0.00  0.00    -0.096 C 
ATOM     25  H   UNL     1      25.884  -8.634 -55.598  0.00  0.00    -0.082 HD
ATOM     26  C   UNL     1      27.155  -6.910 -55.648  0.00  0.00    -0.064 C 
ATOM     27  C   UNL     1      26.986  -6.581 -54.138  0.00  0.00    +0.066 C 
ENDBRANCH  19  20
ENDBRANCH  18  19
ENDBRANCH  14  15
ENDBRANCH  12  13
TORSDOF 6
ENDMDL
MODEL 3
REMARK VINA RESULT:      -7.8     17.157     19.335
REMARK  Name = C:\Users\Docking\Desktop\test protocol\1iep_ligandH.pdb
REMARK  8 active torsions:
REMARK  status: ('A' for Active; 'I' for Inactive)
REMARK    1  A    between atoms: _5  and  _11
REMARK    2  A    between atoms: _19  and  _21
REMARK    3  A    between atoms: _22  and  _66
REMARK    4  A    between atoms: _27  and  _30
REMARK    5  A    between atoms: _32  and  _33
REMARK    6  A    between atoms: _38  and  _43
REMARK    7  A    between atoms: _43  and  _46
REMARK    8  A    between atoms: _53  and  _55
REMARK                            x       y       z     vdW  Elec       q    Type
REMARK                         _______ _______ _______ _____ _____    ______ ____
ROOT
ATOM     10  C   UNL     1      25.312   2.223 -53.996  0.00  0.00    +0.038 A 
ATOM     11  C   UNL     1      24.503   3.094 -53.221  0.00  0.00    +0.047 A 
ATOM     12  C   UNL     1      24.782   4.520 -53.155  0.00  0.00    +0.035 A 
ATOM     32  C   UNL     1      25.891   5.026 -53.892  0.00  0.00    +0.024 A 
ATOM     33  C   UNL     1      26.724   4.156 -54.684  0.00  0.00    +0.007 A 
ATOM     34  C   UNL     1      26.456   2.748 -54.751  0.00  0.00    -0.029 A 
ATOM     35  C   UNL     1      27.386   1.861 -55.611  0.00  0.00    +0.045 C 
ENDROOT
BRANCH  10   9
ATOM      4  C   UNL     1      25.576  -2.219 -52.197  0.00  0.00    +0.077 A 
ATOM      5  C   UNL     1      26.433  -1.798 -51.126  0.00  0.00    +0.048 A 
ATOM      6  C   UNL     1      26.788  -0.431 -51.078  0.00  0.00    +0.116 A 
ATOM      7  N   UNL     1      26.315   0.441 -52.035  0.00  0.00    -0.223 NA
ATOM      8  C   UNL     1      25.492   0.002 -53.055  0.00  0.00    +0.220 A 
ATOM      9  N   UNL     1      24.998   0.863 -54.024  0.00  0.00    -0.283 N 
ATOM     36  H   UNL     1      24.400   0.498 -54.764  0.00  0.00    +0.155 HD
ATOM     37  N   UNL     1      25.140  -1.299 -53.124  0.00  0.00    -0.214 NA
BRANCH   4   3
ATOM      1  C   UNL     1      24.704  -5.977 -51.550  0.00  0.00    +0.020 A 
ATOM      2  C   UNL     1      25.167  -4.627 -51.320  0.00  0.00    +0.013 A 
ATOM      3  C   UNL     1      25.110  -3.630 -52.381  0.00  0.00    +0.019 A 
ATOM     38  C   UNL     1      24.574  -4.032 -53.672  0.00  0.00    +0.120 A 
ATOM     39  N   UNL     1      24.136  -5.339 -53.865  0.00  0.00    -0.263 NA
ATOM     40  C   UNL     1      24.188  -6.308 -52.852  0.00  0.00    +0.111 A 
ENDBRANCH   4   3
ENDBRANCH  10   9
BRANCH  12  13
ATOM     13  N   UNL     1      24.001   5.451 -52.379  0.00  0.00    -0.281 N 
ATOM     14  C   UNL     1      24.122   5.749 -51.031  0.00  0.00    +0.248 C 
ATOM     30  O   UNL     1      24.785   5.098 -50.237  0.00  0.00    -0.270 OA
ATOM     31  H   UNL     1      23.270   5.951 -52.884  0.00  0.00    +0.155 HD
BRANCH  14  15
ATOM     15  C   UNL     1      23.390   6.931 -50.484  0.00  0.00    +0.037 A 
ATOM     16  C   UNL     1      22.920   8.006 -51.361  0.00  0.00    +0.013 A 
ATOM     17  C   UNL     1      22.231   9.144 -50.805  0.00  0.00    +0.005 A 
ATOM     18  C   UNL     1      22.006   9.211 -49.363  0.00  0.00    -0.033 A 
ATOM     28  C   UNL     1      22.478   8.127 -48.517  0.00  0.00    +0.005 A 
ATOM     29  C   UNL     1      23.155   7.011 -49.058  0.00  0.00    +0.013 A 
BRANCH  18  19
ATOM     19  C   UNL     1      21.299  10.397 -48.681  0.00  0.00    +0.119 C 
BRANCH  19  20
ATOM     20  N   UNL     1      19.880  10.660 -49.067  0.00  0.00    -0.302 NA
ATOM     21  C   UNL     1      19.421  12.059 -48.645  0.00  0.00    +0.066 C 
ATOM     22  C   UNL     1      17.942  12.327 -49.077  0.00  0.00    -0.064 C 
ATOM     23  N   UNL     1      17.035  11.253 -48.472  0.00  0.00    +0.379 N 
ATOM     24  C   UNL     1      15.637  11.535 -48.828  0.00  0.00    -0.096 C 
ATOM     25  H   UNL     1      17.123  11.323 -47.363  0.00  0.00    -0.082 HD
ATOM     26  C   UNL     1      17.487   9.859 -48.884  0.00  0.00    -0.064 C 
ATOM     27  C   UNL     1      18.967   9.615 -48.477  0.00  0.00    +0.066 C 
ENDBRANCH  19  20
ENDBRANCH  18  19
ENDBRANCH  14  15
ENDBRANCH  12  13
TORSDOF 6
ENDMDL
MODEL 4
REMARK VINA RESULT:      -7.7      2.104      2.652
REMARK  Name = C:\Users\Docking\Desktop\test protocol\1iep_ligandH.pdb
REMARK  8 active torsions:
REMARK  status: ('A' for Active; 'I' for Inactive)
REMARK    1  A    between atoms: _5  and  _11
REMARK    2  A    between atoms: _19  and  _21
REMARK    3  A    between atoms: _22  and  _66
REMARK    4  A    between atoms: _27  and  _30
REMARK    5  A    between atoms: _32  and  _33
REMARK    6  A    between atoms: _38  and  _43
REMARK    7  A    between atoms: _43  and  _46
REMARK    8  A    between atoms: _53  and  _55
REMARK                            x       y       z     vdW  Elec       q    Type
REMARK                         _______ _______ _______ _____ _____    ______ ____
ROOT
ATOM     10  C   UNL     1      12.950  -5.720 -44.281  0.00  0.00    +0.038 A 
ATOM     11  C   UNL     1      11.911  -5.825 -45.240  0.00  0.00    +0.047 A 
ATOM     12  C   UNL     1      11.211  -4.645 -45.723  0.00  0.00    +0.035 A 
ATOM     32  C   UNL     1      11.597  -3.373 -45.210  0.00  0.00    +0.024 A 
ATOM     33  C   UNL     1      12.651  -3.248 -44.234  0.00  0.00    +0.007 A 
ATOM     34  C   UNL     1      13.343  -4.408 -43.752  0.00  0.00    -0.029 A 
ATOM     35  C   UNL     1      14.461  -4.215 -42.700  0.00  0.00    +0.045 C 
ENDROOT
BRANCH  10   9
ATOM      4  C   UNL     1      13.787  -9.128 -41.007  0.00  0.00    +0.077 A 
ATOM      5  C   UNL     1      12.897  -8.520 -40.060  0.00  0.00    +0.048 A 
ATOM      6  C   UNL     1      12.249  -7.327 -40.452  0.00  0.00    +0.116 A 
ATOM      7  N   UNL     1      12.481  -6.792 -41.701  0.00  0.00    -0.223 NA
ATOM      8  C   UNL     1      13.347  -7.402 -42.589  0.00  0.00    +0.220 A 
ATOM      9  N   UNL     1      13.589  -6.886 -43.853  0.00  0.00    -0.283 N 
ATOM     36  H   UNL     1      14.240  -7.362 -44.476  0.00  0.00    +0.155 HD
ATOM     37  N   UNL     1      13.979  -8.542 -42.238  0.00  0.00    -0.214 NA
BRANCH   4   3
ATOM      1  C   UNL     1      15.884 -11.925 -39.253  0.00  0.00    +0.020 A 
ATOM      2  C   UNL     1      15.166 -10.689 -39.457  0.00  0.00    +0.013 A 
ATOM      3  C   UNL     1      14.543 -10.393 -40.741  0.00  0.00    +0.019 A 
ATOM     38  C   UNL     1      14.666 -11.377 -41.806  0.00  0.00    +0.120 A 
ATOM     39  N   UNL     1      15.366 -12.559 -41.580  0.00  0.00    -0.263 NA
ATOM     40  C   UNL     1      15.970 -12.854 -40.349  0.00  0.00    +0.111 A 
ENDBRANCH   4   3
ENDBRANCH  10   9
BRANCH  12  13
ATOM     13  N   UNL     1      10.142  -4.690 -46.690  0.00  0.00    -0.281 N 
ATOM     14  C   UNL     1       9.443  -5.801 -47.135  0.00  0.00    +0.248 C 
ATOM     30  O   UNL     1       9.777  -6.957 -46.926  0.00  0.00    -0.270 OA
ATOM     31  H   UNL     1       9.867  -3.796 -47.096  0.00  0.00    +0.155 HD
BRANCH  14  15
ATOM     15  C   UNL     1       8.201  -5.597 -47.942  0.00  0.00    +0.037 A 
ATOM     16  C   UNL     1       7.761  -6.591 -48.924  0.00  0.00    +0.013 A 
ATOM     17  C   UNL     1       6.568  -6.361 -49.701  0.00  0.00    +0.005 A 
ATOM     18  C   UNL     1       5.807  -5.131 -49.497  0.00  0.00    -0.033 A 
ATOM     28  C   UNL     1       6.263  -4.164 -48.513  0.00  0.00    +0.005 A 
ATOM     29  C   UNL     1       7.432  -4.385 -47.750  0.00  0.00    +0.013 A 
BRANCH  18  19
ATOM     19  C   UNL     1       4.534  -4.793 -50.296  0.00  0.00    +0.119 C 
BRANCH  19  20
ATOM     20  N   UNL     1       3.370  -5.718 -50.152  0.00  0.00    -0.302 NA
ATOM     21  C   UNL     1       3.260  -6.285 -48.734  0.00  0.00    +0.066 C 
ATOM     22  C   UNL     1       2.024  -7.232 -48.594  0.00  0.00    -0.064 C 
ATOM     23  N   UNL     1       2.131  -8.360 -49.622  0.00  0.00    +0.379 N 
ATOM     24  C   UNL     1       1.000  -9.285 -49.454  0.00  0.00    -0.096 C 
ATOM     25  H   UNL     1       3.066  -8.927 -49.406  0.00  0.00    -0.082 HD
ATOM     26  C   UNL     1       2.244  -7.805 -51.034  0.00  0.00    -0.064 C 
ATOM     27  C   UNL     1       3.458  -6.842 -51.155  0.00  0.00    +0.066 C 
ENDBRANCH  19  20
ENDBRANCH  18  19
ENDBRANCH  14  15
ENDBRANCH  12  13
TORSDOF 6
ENDMDL
MODEL 5
REMARK VINA RESULT:      -7.7     16.509     21.213
REMARK  Name = C:\Users\Docking\Desktop\test protocol\1iep_ligandH.pdb
REMARK  8 active torsions:
REMARK  status: ('A' for Active; 'I' for Inactive)
REMARK    1  A    between atoms: _5  and  _11
REMARK    2  A    between atoms: _19  and  _21
REMARK    3  A    between atoms: _22  and  _66
REMARK    4  A    between atoms: _27  and  _30
REMARK    5  A    between atoms: _32  and  _33
REMARK    6  A    between atoms: _38  and  _43
REMARK    7  A    between atoms: _43  and  _46
REMARK    8  A    between atoms: _53  and  _55
REMARK                            x       y       z     vdW  Elec       q    Type
REMARK                         _______ _______ _______ _____ _____    ______ ____
ROOT
ATOM     10  C   UNL     1      23.256   7.384 -48.671  0.00  0.00    +0.038 A 
ATOM     11  C   UNL     1      23.290   6.100 -49.271  0.00  0.00    +0.047 A 
ATOM     12  C   UNL     1      24.553   5.452 -49.591  0.00  0.00    +0.035 A 
ATOM     32  C   UNL     1      25.762   6.140 -49.283  0.00  0.00    +0.024 A 
ATOM     33  C   UNL     1      25.746   7.446 -48.674  0.00  0.00    +0.007 A 
ATOM     34  C   UNL     1      24.504   8.092 -48.358  0.00  0.00    -0.029 A 
ATOM     35  C   UNL     1      24.547   9.496 -47.712  0.00  0.00    +0.045 C 
ENDROOT
BRANCH  10   9
ATOM      4  C   UNL     1      19.619  10.337 -49.714  0.00  0.00    +0.077 A 
ATOM      5  C   UNL     1      20.255  10.792 -50.917  0.00  0.00    +0.048 A 
ATOM      6  C   UNL     1      21.521  10.246 -51.227  0.00  0.00    +0.116 A 
ATOM      7  N   UNL     1      22.098   9.316 -50.390  0.00  0.00    -0.223 NA
ATOM      8  C   UNL     1      21.458   8.900 -49.237  0.00  0.00    +0.220 A 
ATOM      9  N   UNL     1      22.016   7.960 -48.385  0.00  0.00    -0.283 N 
ATOM     36  H   UNL     1      21.516   7.685 -47.540  0.00  0.00    +0.155 HD
ATOM     37  N   UNL     1      20.249   9.407 -48.917  0.00  0.00    -0.214 NA
BRANCH   4   3
ATOM      1  C   UNL     1      15.824  10.480 -48.778  0.00  0.00    +0.020 A 
ATOM      2  C   UNL     1      17.095   9.967 -49.234  0.00  0.00    +0.013 A 
ATOM      3  C   UNL     1      18.278  10.817 -49.252  0.00  0.00    +0.019 A 
ATOM     38  C   UNL     1      18.141  12.193 -48.797  0.00  0.00    +0.120 A 
ATOM     39  N   UNL     1      16.903  12.660 -48.365  0.00  0.00    -0.263 NA
ATOM     40  C   UNL     1      15.757  11.851 -48.345  0.00  0.00    +0.111 A 
ENDBRANCH   4   3
ENDBRANCH  10   9
BRANCH  12  13
ATOM     13  N   UNL     1      24.649   4.152 -50.208  0.00  0.00    -0.281 N 
ATOM     14  C   UNL     1      24.663   3.850 -51.560  0.00  0.00    +0.248 C 
ATOM     30  O   UNL     1      24.378   4.641 -52.448  0.00  0.00    -0.270 OA
ATOM     31  H   UNL     1      24.715   3.358 -49.571  0.00  0.00    +0.155 HD
BRANCH  14  15
ATOM     15  C   UNL     1      25.033   2.467 -51.988  0.00  0.00    +0.037 A 
ATOM     16  C   UNL     1      24.777   1.999 -53.352  0.00  0.00    +0.013 A 
ATOM     17  C   UNL     1      25.128   0.654 -53.733  0.00  0.00    +0.005 A 
ATOM     18  C   UNL     1      25.741  -0.233 -52.747  0.00  0.00    -0.033 A 
ATOM     28  C   UNL     1      25.989   0.259 -51.402  0.00  0.00    +0.005 A 
ATOM     29  C   UNL     1      25.645   1.576 -51.025  0.00  0.00    +0.013 A 
BRANCH  18  19
ATOM     19  C   UNL     1      26.128  -1.691 -53.060  0.00  0.00    +0.119 C 
BRANCH  19  20
ATOM     20  N   UNL     1      25.303  -2.767 -52.435  0.00  0.00    -0.302 NA
ATOM     21  C   UNL     1      26.156  -3.751 -51.630  0.00  0.00    +0.066 C 
ATOM     22  C   UNL     1      25.274  -4.857 -50.965  0.00  0.00    -0.064 C 
ATOM     23  N   UNL     1      24.478  -5.590 -52.046  0.00  0.00    +0.379 N 
ATOM     24  C   UNL     1      23.691  -6.668 -51.431  0.00  0.00    -0.096 C 
ATOM     25  H   UNL     1      25.209  -6.060 -52.745  0.00  0.00    -0.082 HD
ATOM     26  C   UNL     1      23.629  -4.618 -52.853  0.00  0.00    -0.064 C 
ATOM     27  C   UNL     1      24.511  -3.506 -53.486  0.00  0.00    +0.066 C 
ENDBRANCH  19  20
ENDBRANCH  18  19
ENDBRANCH  14  15
ENDBRANCH  12  13
TORSDOF 6
ENDMDL
