MODEL 1
REMARK VINA RESULT:      -9.4      0.000      0.000
REMARK  Name = C:\Users\Docking\Desktop\test protocol\1iep_ligandH.pdb
REMARK  8 active torsions:
REMARK  status: ('A' for Active; 'I' for Inactive)
REMARK    1  A    between atoms: _5  and  _11
REMARK    2  A    between atoms: _19  and  _21
REMARK    3  A    between atoms: _22  and  _66
REMARK    4  A    between atoms: _27  and  _30
REMARK    5  A    between atoms: _32  and  _33
REMARK    6  A    between atoms: _38  and  _43
REMARK    7  A    between atoms: _43  and  _46
REMARK    8  A    between atoms: _53  and  _55
REMARK                            x       y       z     vdW  Elec       q    Type
REMARK                         _______ _______ _______ _____ _____    ______ ____
ROOT
ATOM     10  C   UNL     1     -37.418  -9.610   0.536  0.00  0.00    +0.038 A 
ATOM     11  C   UNL     1     -37.429 -10.649   1.501  0.00  0.00    +0.047 A 
ATOM     12  C   UNL     1     -36.274 -10.900   2.349  0.00  0.00    +0.035 A 
ATOM     32  C   UNL     1     -35.125 -10.071   2.189  0.00  0.00    +0.024 A 
ATOM     33  C   UNL     1     -35.097  -9.011   1.213  0.00  0.00    +0.007 A 
ATOM     34  C   UNL     1     -36.232  -8.760   0.371  0.00  0.00    -0.029 A 
ATOM     35  C   UNL     1     -36.144  -7.614  -0.663  0.00  0.00    +0.045 C 
ENDROOT
BRANCH  10   9
ATOM      4  C   UNL     1     -41.972  -8.211  -0.050  0.00  0.00    +0.077 A 
ATOM      5  C   UNL     1     -42.107  -7.868   1.336  0.00  0.00    +0.048 A 
ATOM      6  C   UNL     1     -40.983  -8.074   2.168  0.00  0.00    +0.116 A 
ATOM      7  N   UNL     1     -39.817  -8.584   1.642  0.00  0.00    -0.223 NA
ATOM      8  C   UNL     1     -39.720  -8.906   0.300  0.00  0.00    +0.220 A 
ATOM      9  N   UNL     1     -38.554  -9.413  -0.252  0.00  0.00    -0.283 N 
ATOM     36  H   UNL     1     -38.526  -9.645  -1.245  0.00  0.00    +0.155 HD
ATOM     37  N   UNL     1     -40.780  -8.720  -0.515  0.00  0.00    -0.214 NA
BRANCH   4   3
ATOM      1  C   UNL     1     -44.337  -8.762  -3.116  0.00  0.00    +0.020 A 
ATOM      2  C   UNL     1     -43.262  -8.964  -2.173  0.00  0.00    +0.013 A 
ATOM      3  C   UNL     1     -43.069  -8.048  -1.056  0.00  0.00    +0.019 A 
ATOM     38  C   UNL     1     -43.990  -6.930  -0.920  0.00  0.00    +0.120 A 
ATOM     39  N   UNL     1     -45.016  -6.760  -1.844  0.00  0.00    -0.263 NA
ATOM     40  C   UNL     1     -45.210  -7.634  -2.924  0.00  0.00    +0.111 A 
ENDBRANCH   4   3
ENDBRANCH  10   9
BRANCH  12  13
ATOM     13  N   UNL     1     -36.224 -11.946   3.341  0.00  0.00    -0.281 N 
ATOM     14  C   UNL     1     -37.038 -12.108   4.450  0.00  0.00    +0.248 C 
ATOM     30  O   UNL     1     -37.801 -11.254   4.877  0.00  0.00    -0.270 OA
ATOM     31  H   UNL     1     -35.500 -12.652   3.209  0.00  0.00    +0.155 HD
BRANCH  14  15
ATOM     15  C   UNL     1     -36.986 -13.399   5.201  0.00  0.00    +0.037 A 
ATOM     16  C   UNL     1     -37.016 -14.686   4.502  0.00  0.00    +0.013 A 
ATOM     17  C   UNL     1     -36.982 -15.917   5.252  0.00  0.00    +0.005 A 
ATOM     18  C   UNL     1     -36.917 -15.865   6.710  0.00  0.00    -0.033 A 
ATOM     28  C   UNL     1     -36.884 -14.575   7.377  0.00  0.00    +0.005 A 
ATOM     29  C   UNL     1     -36.918 -13.366   6.646  0.00  0.00    +0.013 A 
BRANCH  18  19
ATOM     19  C   UNL     1     -36.899 -17.128   7.592  0.00  0.00    +0.119 C 
BRANCH  19  20
ATOM     20  N   UNL     1     -35.642 -17.935   7.605  0.00  0.00    -0.302 NA
ATOM     21  C   UNL     1     -34.406 -17.078   7.317  0.00  0.00    +0.066 C 
ATOM     22  C   UNL     1     -33.098 -17.933   7.357  0.00  0.00    -0.064 C 
ATOM     23  N   UNL     1     -33.210 -19.078   6.348  0.00  0.00    +0.379 N 
ATOM     24  C   UNL     1     -31.958 -19.850   6.342  0.00  0.00    -0.096 C 
ATOM     25  H   UNL     1     -33.334 -18.626   5.337  0.00  0.00    -0.082 HD
ATOM     26  C   UNL     1     -34.437 -19.934   6.625  0.00  0.00    -0.064 C 
ATOM     27  C   UNL     1     -35.729 -19.069   6.612  0.00  0.00    +0.066 C 
ENDBRANCH  19  20
ENDBRANCH  18  19
ENDBRANCH  14  15
ENDBRANCH  12  13
TORSDOF 6
ENDMDL
MODEL 2
REMARK VINA RESULT:      -9.3      2.596     13.202
REMARK  Name = C:\Users\Docking\Desktop\test protocol\1iep_ligandH.pdb
REMARK  8 active torsions:
REMARK  status: ('A' for Active; 'I' for Inactive)
REMARK    1  A    between atoms: _5  and  _11
REMARK    2  A    between atoms: _19  and  _21
REMARK    3  A    between atoms: _22  and  _66
REMARK    4  A    between atoms: _27  and  _30
REMARK    5  A    between atoms: _32  and  _33
REMARK    6  A    between atoms: _38  and  _43
REMARK    7  A    between atoms: _43  and  _46
REMARK    8  A    between atoms: _53  and  _55
REMARK                            x       y       z     vdW  Elec       q    Type
REMARK                         _______ _______ _______ _____ _____    ______ ____
ROOT
ATOM     10  C   UNL     1     -37.613 -10.084   0.852  0.00  0.00    +0.038 A 
ATOM     11  C   UNL     1     -38.941  -9.930   0.379  0.00  0.00    +0.047 A 
ATOM     12  C   UNL     1     -39.323  -8.783  -0.430  0.00  0.00    +0.035 A 
ATOM     32  C   UNL     1     -38.325  -7.813  -0.740  0.00  0.00    +0.024 A 
ATOM     33  C   UNL     1     -36.971  -7.953  -0.266  0.00  0.00    +0.007 A 
ATOM     34  C   UNL     1     -36.589  -9.082   0.534  0.00  0.00    -0.029 A 
ATOM     35  C   UNL     1     -35.124  -9.178   1.020  0.00  0.00    +0.045 C 
ENDROOT
BRANCH  10   9
ATOM      4  C   UNL     1     -37.732 -12.557   4.964  0.00  0.00    +0.077 A 
ATOM      5  C   UNL     1     -38.453 -11.515   5.638  0.00  0.00    +0.048 A 
ATOM      6  C   UNL     1     -38.767 -10.357   4.893  0.00  0.00    +0.116 A 
ATOM      7  N   UNL     1     -38.385 -10.258   3.573  0.00  0.00    -0.223 NA
ATOM      8  C   UNL     1     -37.689 -11.280   2.954  0.00  0.00    +0.220 A 
ATOM      9  N   UNL     1     -37.302 -11.206   1.625  0.00  0.00    -0.283 N 
ATOM     36  H   UNL     1     -36.783 -11.978   1.206  0.00  0.00    +0.155 HD
ATOM     37  N   UNL     1     -37.376 -12.396   3.644  0.00  0.00    -0.214 NA
BRANCH   4   3
ATOM      1  C   UNL     1     -36.766 -15.246   7.636  0.00  0.00    +0.020 A 
ATOM      2  C   UNL     1     -37.156 -13.981   7.057  0.00  0.00    +0.013 A 
ATOM      3  C   UNL     1     -37.330 -13.843   5.616  0.00  0.00    +0.019 A 
ATOM     38  C   UNL     1     -37.102 -15.014   4.783  0.00  0.00    +0.120 A 
ATOM     39  N   UNL     1     -36.726 -16.219   5.369  0.00  0.00    -0.263 NA
ATOM     40  C   UNL     1     -36.554 -16.363   6.754  0.00  0.00    +0.111 A 
ENDBRANCH   4   3
ENDBRANCH  10   9
BRANCH  12  13
ATOM     13  N   UNL     1     -40.657  -8.568  -0.932  0.00  0.00    -0.281 N 
ATOM     14  C   UNL     1     -41.810  -8.319  -0.206  0.00  0.00    +0.248 C 
ATOM     30  O   UNL     1     -41.908  -8.455   1.005  0.00  0.00    -0.270 OA
ATOM     31  H   UNL     1     -40.765  -8.605  -1.946  0.00  0.00    +0.155 HD
BRANCH  14  15
ATOM     15  C   UNL     1     -43.037  -7.867  -0.931  0.00  0.00    +0.037 A 
ATOM     16  C   UNL     1     -43.901  -6.818  -0.383  0.00  0.00    +0.013 A 
ATOM     17  C   UNL     1     -45.087  -6.413  -1.094  0.00  0.00    +0.005 A 
ATOM     18  C   UNL     1     -45.415  -7.057  -2.364  0.00  0.00    -0.033 A 
ATOM     28  C   UNL     1     -44.538  -8.090  -2.888  0.00  0.00    +0.005 A 
ATOM     29  C   UNL     1     -43.375  -8.491  -2.193  0.00  0.00    +0.013 A 
BRANCH  18  19
ATOM     19  C   UNL     1     -46.672  -6.702  -3.181  0.00  0.00    +0.119 C 
BRANCH  19  20
ATOM     20  N   UNL     1     -46.748  -5.326  -3.756  0.00  0.00    -0.302 NA
ATOM     21  C   UNL     1     -47.390  -5.319  -5.146  0.00  0.00    +0.066 C 
ATOM     22  C   UNL     1     -47.482  -3.869  -5.723  0.00  0.00    -0.064 C 
ATOM     23  N   UNL     1     -46.084  -3.250  -5.768  0.00  0.00    +0.379 N 
ATOM     24  C   UNL     1     -46.160  -1.908  -6.364  0.00  0.00    -0.096 C 
ATOM     25  H   UNL     1     -45.456  -3.883  -6.438  0.00  0.00    -0.082 HD
ATOM     26  C   UNL     1     -45.438  -3.256  -4.390  0.00  0.00    -0.064 C 
ATOM     27  C   UNL     1     -45.377  -4.698  -3.814  0.00  0.00    +0.066 C 
ENDBRANCH  19  20
ENDBRANCH  18  19
ENDBRANCH  14  15
ENDBRANCH  12  13
TORSDOF 6
ENDMDL
MODEL 3
REMARK VINA RESULT:      -9.0      2.311     12.556
REMARK  Name = C:\Users\Docking\Desktop\test protocol\1iep_ligandH.pdb
REMARK  8 active torsions:
REMARK  status: ('A' for Active; 'I' for Inactive)
REMARK    1  A    between atoms: _5  and  _11
REMARK    2  A    between atoms: _19  and  _21
REMARK    3  A    between atoms: _22  and  _66
REMARK    4  A    between atoms: _27  and  _30
REMARK    5  A    between atoms: _32  and  _33
REMARK    6  A    between atoms: _38  and  _43
REMARK    7  A    between atoms: _43  and  _46
REMARK    8  A    between atoms: _53  and  _55
REMARK                            x       y       z     vdW  Elec       q    Type
REMARK                         _______ _______ _______ _____ _____    ______ ____
ROOT
ATOM     10  C   UNL     1     -36.688 -12.935   3.307  0.00  0.00    +0.038 A 
ATOM     11  C   UNL     1     -37.953 -12.357   3.028  0.00  0.00    +0.047 A 
ATOM     12  C   UNL     1     -38.083 -10.938   2.734  0.00  0.00    +0.035 A 
ATOM     32  C   UNL     1     -36.904 -10.138   2.731  0.00  0.00    +0.024 A 
ATOM     33  C   UNL     1     -35.610 -10.708   3.014  0.00  0.00    +0.007 A 
ATOM     34  C   UNL     1     -35.476 -12.107   3.307  0.00  0.00    -0.029 A 
ATOM     35  C   UNL     1     -34.065 -12.663   3.609  0.00  0.00    +0.045 C 
ENDROOT
BRANCH  10   9
ATOM      4  C   UNL     1     -36.753 -16.649   6.347  0.00  0.00    +0.077 A 
ATOM      5  C   UNL     1     -36.908 -15.790   7.486  0.00  0.00    +0.048 A 
ATOM      6  C   UNL     1     -36.959 -14.399   7.247  0.00  0.00    +0.116 A 
ATOM      7  N   UNL     1     -36.862 -13.913   5.961  0.00  0.00    -0.223 NA
ATOM      8  C   UNL     1     -36.712 -14.768   4.885  0.00  0.00    +0.220 A 
ATOM      9  N   UNL     1     -36.621 -14.302   3.582  0.00  0.00    -0.283 N 
ATOM     36  H   UNL     1     -36.503 -14.966   2.817  0.00  0.00    +0.155 HD
ATOM     37  N   UNL     1     -36.659 -16.102   5.087  0.00  0.00    -0.214 NA
BRANCH   4   3
ATOM      1  C   UNL     1     -35.813 -20.389   5.694  0.00  0.00    +0.020 A 
ATOM      2  C   UNL     1     -35.842 -18.950   5.566  0.00  0.00    +0.013 A 
ATOM      3  C   UNL     1     -36.686 -18.142   6.436  0.00  0.00    +0.019 A 
ATOM     38  C   UNL     1     -37.495 -18.825   7.434  0.00  0.00    +0.120 A 
ATOM     39  N   UNL     1     -37.447 -20.212   7.534  0.00  0.00    -0.263 NA
ATOM     40  C   UNL     1     -36.640 -21.001   6.700  0.00  0.00    +0.111 A 
ENDBRANCH   4   3
ENDBRANCH  10   9
BRANCH  12  13
ATOM     13  N   UNL     1     -39.342 -10.294   2.451  0.00  0.00    -0.281 N 
ATOM     14  C   UNL     1     -40.252  -9.769   3.353  0.00  0.00    +0.248 C 
ATOM     30  O   UNL     1     -40.221  -9.965   4.559  0.00  0.00    -0.270 OA
ATOM     31  H   UNL     1     -39.592 -10.215   1.465  0.00  0.00    +0.155 HD
BRANCH  14  15
ATOM     15  C   UNL     1     -41.365  -8.913   2.841  0.00  0.00    +0.037 A 
ATOM     16  C   UNL     1     -42.419  -8.424   3.733  0.00  0.00    +0.013 A 
ATOM     17  C   UNL     1     -43.491  -7.614   3.210  0.00  0.00    +0.005 A 
ATOM     18  C   UNL     1     -43.513  -7.288   1.786  0.00  0.00    -0.033 A 
ATOM     28  C   UNL     1     -42.452  -7.783   0.925  0.00  0.00    +0.005 A 
ATOM     29  C   UNL     1     -41.400  -8.577   1.434  0.00  0.00    +0.013 A 
BRANCH  18  19
ATOM     19  C   UNL     1     -44.630  -6.449   1.137  0.00  0.00    +0.119 C 
BRANCH  19  20
ATOM     20  N   UNL     1     -44.381  -5.928  -0.240  0.00  0.00    -0.302 NA
ATOM     21  C   UNL     1     -44.469  -4.401  -0.302  0.00  0.00    +0.066 C 
ATOM     22  C   UNL     1     -44.184  -3.872  -1.745  0.00  0.00    -0.064 C 
ATOM     23  N   UNL     1     -45.171  -4.511  -2.724  0.00  0.00    +0.379 N 
ATOM     24  C   UNL     1     -44.944  -3.972  -4.072  0.00  0.00    -0.096 C 
ATOM     25  H   UNL     1     -46.199  -4.214  -2.409  0.00  0.00    -0.082 HD
ATOM     26  C   UNL     1     -45.092  -6.030  -2.667  0.00  0.00    -0.064 C 
ATOM     27  C   UNL     1     -45.347  -6.543  -1.222  0.00  0.00    +0.066 C 
ENDBRANCH  19  20
ENDBRANCH  18  19
ENDBRANCH  14  15
ENDBRANCH  12  13
TORSDOF 6
ENDMDL
MODEL 4
REMARK VINA RESULT:      -8.7      4.332     12.646
REMARK  Name = C:\Users\Docking\Desktop\test protocol\1iep_ligandH.pdb
REMARK  8 active torsions:
REMARK  status: ('A' for Active; 'I' for Inactive)
REMARK    1  A    between atoms: _5  and  _11
REMARK    2  A    between atoms: _19  and  _21
REMARK    3  A    between atoms: _22  and  _66
REMARK    4  A    between atoms: _27  and  _30
REMARK    5  A    between atoms: _32  and  _33
REMARK    6  A    between atoms: _38  and  _43
REMARK    7  A    between atoms: _43  and  _46
REMARK    8  A    between atoms: _53  and  _55
REMARK                            x       y       z     vdW  Elec       q    Type
REMARK                         _______ _______ _______ _____ _____    ______ ____
ROOT
ATOM     10  C   UNL     1     -38.193 -10.063   1.396  0.00  0.00    +0.038 A 
ATOM     11  C   UNL     1     -39.534  -9.717   1.702  0.00  0.00    +0.047 A 
ATOM     12  C   UNL     1     -40.178  -8.574   1.073  0.00  0.00    +0.035 A 
ATOM     32  C   UNL     1     -39.428  -7.808   0.134  0.00  0.00    +0.024 A 
ATOM     33  C   UNL     1     -38.063  -8.145  -0.188  0.00  0.00    +0.007 A 
ATOM     34  C   UNL     1     -37.422  -9.270   0.431  0.00  0.00    -0.029 A 
ATOM     35  C   UNL     1     -35.955  -9.581   0.053  0.00  0.00    +0.045 C 
ENDROOT
BRANCH  10   9
ATOM      4  C   UNL     1     -37.381 -12.762   5.281  0.00  0.00    +0.077 A 
ATOM      5  C   UNL     1     -38.131 -11.878   6.125  0.00  0.00    +0.048 A 
ATOM      6  C   UNL     1     -38.704 -10.736   5.522  0.00  0.00    +0.116 A 
ATOM      7  N   UNL     1     -38.533 -10.506   4.174  0.00  0.00    -0.223 NA
ATOM      8  C   UNL     1     -37.802 -11.378   3.389  0.00  0.00    +0.220 A 
ATOM      9  N   UNL     1     -37.624 -11.170   2.029  0.00  0.00    -0.283 N 
ATOM     36  H   UNL     1     -37.072 -11.833   1.486  0.00  0.00    +0.155 HD
ATOM     37  N   UNL     1     -37.244 -12.475   3.941  0.00  0.00    -0.214 NA
BRANCH   4   3
ATOM      1  C   UNL     1     -36.097 -15.651   7.585  0.00  0.00    +0.020 A 
ATOM      2  C   UNL     1     -36.754 -14.435   7.164  0.00  0.00    +0.013 A 
ATOM      3  C   UNL     1     -36.718 -14.013   5.770  0.00  0.00    +0.019 A 
ATOM     38  C   UNL     1     -36.005 -14.851   4.818  0.00  0.00    +0.120 A 
ATOM     39  N   UNL     1     -35.381 -16.017   5.252  0.00  0.00    -0.263 NA
ATOM     40  C   UNL     1     -35.407 -16.432   6.592  0.00  0.00    +0.111 A 
ENDBRANCH   4   3
ENDBRANCH  10   9
BRANCH  12  13
ATOM     13  N   UNL     1     -41.534  -8.169   1.350  0.00  0.00    -0.281 N 
ATOM     14  C   UNL     1     -42.196  -8.186   2.567  0.00  0.00    +0.248 C 
ATOM     30  O   UNL     1     -41.788  -8.756   3.568  0.00  0.00    -0.270 OA
ATOM     31  H   UNL     1     -42.071  -7.829   0.552  0.00  0.00    +0.155 HD
BRANCH  14  15
ATOM     15  C   UNL     1     -43.508  -7.480   2.685  0.00  0.00    +0.037 A 
ATOM     16  C   UNL     1     -43.945  -6.515   1.673  0.00  0.00    +0.013 A 
ATOM     17  C   UNL     1     -45.208  -5.835   1.820  0.00  0.00    +0.005 A 
ATOM     18  C   UNL     1     -46.043  -6.120   2.985  0.00  0.00    -0.033 A 
ATOM     28  C   UNL     1     -45.587  -7.086   3.970  0.00  0.00    +0.005 A 
ATOM     29  C   UNL     1     -44.350  -7.753   3.830  0.00  0.00    +0.013 A 
BRANCH  18  19
ATOM     19  C   UNL     1     -47.396  -5.426   3.233  0.00  0.00    +0.119 C 
BRANCH  19  20
ATOM     20  N   UNL     1     -47.374  -4.139   3.990  0.00  0.00    -0.302 NA
ATOM     21  C   UNL     1     -47.692  -4.340   5.475  0.00  0.00    +0.066 C 
ATOM     22  C   UNL     1     -47.643  -2.986   6.255  0.00  0.00    -0.064 C 
ATOM     23  N   UNL     1     -48.624  -1.999   5.620  0.00  0.00    +0.379 N 
ATOM     24  C   UNL     1     -48.623  -0.744   6.387  0.00  0.00    -0.096 C 
ATOM     25  H   UNL     1     -49.645  -2.441   5.696  0.00  0.00    -0.082 HD
ATOM     26  C   UNL     1     -48.317  -1.795   4.143  0.00  0.00    -0.064 C 
ATOM     27  C   UNL     1     -48.339  -3.150   3.382  0.00  0.00    +0.066 C 
ENDBRANCH  19  20
ENDBRANCH  18  19
ENDBRANCH  14  15
ENDBRANCH  12  13
TORSDOF 6
ENDMDL
MODEL 5
REMARK VINA RESULT:      -8.5      4.029     11.951
REMARK  Name = C:\Users\Docking\Desktop\test protocol\1iep_ligandH.pdb
REMARK  8 active torsions:
REMARK  status: ('A' for Active; 'I' for Inactive)
REMARK    1  A    between atoms: _5  and  _11
REMARK    2  A    between atoms: _19  and  _21
REMARK    3  A    between atoms: _22  and  _66
REMARK    4  A    between atoms: _27  and  _30
REMARK    5  A    between atoms: _32  and  _33
REMARK    6  A    between atoms: _38  and  _43
REMARK    7  A    between atoms: _43  and  _46
REMARK    8  A    between atoms: _53  and  _55
REMARK                            x       y       z     vdW  Elec       q    Type
REMARK                         _______ _______ _______ _____ _____    ______ ____
ROOT
ATOM     10  C   UNL     1     -36.584 -13.877   3.981  0.00  0.00    +0.038 A 
ATOM     11  C   UNL     1     -37.723 -13.034   4.026  0.00  0.00    +0.047 A 
ATOM     12  C   UNL     1     -37.603 -11.596   3.840  0.00  0.00    +0.035 A 
ATOM     32  C   UNL     1     -36.306 -11.051   3.607  0.00  0.00    +0.024 A 
ATOM     33  C   UNL     1     -35.137 -11.894   3.560  0.00  0.00    +0.007 A 
ATOM     34  C   UNL     1     -35.250 -13.312   3.745  0.00  0.00    -0.029 A 
ATOM     35  C   UNL     1     -33.962 -14.167   3.690  0.00  0.00    +0.045 C 
ENDROOT
BRANCH  10   9
ATOM      4  C   UNL     1     -36.785 -17.781   6.767  0.00  0.00    +0.077 A 
ATOM      5  C   UNL     1     -36.493 -17.024   7.950  0.00  0.00    +0.048 A 
ATOM      6  C   UNL     1     -36.291 -15.634   7.798  0.00  0.00    +0.116 A 
ATOM      7  N   UNL     1     -36.377 -15.054   6.550  0.00  0.00    -0.223 NA
ATOM      8  C   UNL     1     -36.658 -15.814   5.429  0.00  0.00    +0.220 A 
ATOM      9  N   UNL     1     -36.757 -15.251   4.166  0.00  0.00    -0.283 N 
ATOM     36  H   UNL     1     -36.959 -15.846   3.363  0.00  0.00    +0.155 HD
ATOM     37  N   UNL     1     -36.854 -17.143   5.548  0.00  0.00    -0.214 NA
BRANCH   4   3
ATOM      1  C   UNL     1     -38.509 -21.282   7.035  0.00  0.00    +0.020 A 
ATOM      2  C   UNL     1     -38.329 -19.848   7.049  0.00  0.00    +0.013 A 
ATOM      3  C   UNL     1     -37.027 -19.258   6.766  0.00  0.00    +0.019 A 
ATOM     38  C   UNL     1     -35.919 -20.154   6.469  0.00  0.00    +0.120 A 
ATOM     39  N   UNL     1     -36.122 -21.530   6.464  0.00  0.00    -0.263 NA
ATOM     40  C   UNL     1     -37.370 -22.109   6.736  0.00  0.00    +0.111 A 
ENDBRANCH   4   3
ENDBRANCH  10   9
BRANCH  12  13
ATOM     13  N   UNL     1     -38.722 -10.689   3.883  0.00  0.00    -0.281 N 
ATOM     14  C   UNL     1     -39.635 -10.415   2.878  0.00  0.00    +0.248 C 
ATOM     30  O   UNL     1     -39.500 -10.751   1.711  0.00  0.00    -0.270 OA
ATOM     31  H   UNL     1     -38.859 -10.188   4.761  0.00  0.00    +0.155 HD
BRANCH  14  15
ATOM     15  C   UNL     1     -40.870  -9.643   3.215  0.00  0.00    +0.037 A 
ATOM     16  C   UNL     1     -41.373  -8.590   2.329  0.00  0.00    +0.013 A 
ATOM     17  C   UNL     1     -42.557  -7.849   2.686  0.00  0.00    +0.005 A 
ATOM     18  C   UNL     1     -43.247  -8.160   3.936  0.00  0.00    -0.033 A 
ATOM     28  C   UNL     1     -42.729  -9.213   4.793  0.00  0.00    +0.005 A 
ATOM     29  C   UNL     1     -41.569  -9.941   4.447  0.00  0.00    +0.013 A 
BRANCH  18  19
ATOM     19  C   UNL     1     -44.505  -7.406   4.407  0.00  0.00    +0.119 C 
BRANCH  19  20
ATOM     20  N   UNL     1     -45.288  -8.014   5.524  0.00  0.00    -0.302 NA
ATOM     21  C   UNL     1     -46.603  -8.627   5.037  0.00  0.00    +0.066 C 
ATOM     22  C   UNL     1     -47.399  -9.278   6.215  0.00  0.00    -0.064 C 
ATOM     23  N   UNL     1     -47.659  -8.226   7.294  0.00  0.00    +0.379 N 
ATOM     24  C   UNL     1     -48.457  -8.820   8.377  0.00  0.00    -0.096 C 
ATOM     25  H   UNL     1     -48.266  -7.412   6.833  0.00  0.00    -0.082 HD
ATOM     26  C   UNL     1     -46.356  -7.609   7.782  0.00  0.00    -0.064 C 
ATOM     27  C   UNL     1     -45.560  -6.991   6.600  0.00  0.00    +0.066 C 
ENDBRANCH  19  20
ENDBRANCH  18  19
ENDBRANCH  14  15
ENDBRANCH  12  13
TORSDOF 6
ENDMDL
