MODEL 1
REMARK VINA RESULT:     -10.8      0.000      0.000
REMARK  Name = C:\Users\Docking\Desktop\test protocol\1iep_ligandH.pdb
REMARK  8 active torsions:
REMARK  status: ('A' for Active; 'I' for Inactive)
REMARK    1  A    between atoms: _5  and  _11
REMARK    2  A    between atoms: _19  and  _21
REMARK    3  A    between atoms: _22  and  _66
REMARK    4  A    between atoms: _27  and  _30
REMARK    5  A    between atoms: _32  and  _33
REMARK    6  A    between atoms: _38  and  _43
REMARK    7  A    between atoms: _43  and  _46
REMARK    8  A    between atoms: _53  and  _55
REMARK                            x       y       z     vdW  Elec       q    Type
REMARK                         _______ _______ _______ _____ _____    ______ ____
ROOT
ATOM     10  C   UNL     1      18.422   2.963   3.770  0.00  0.00    +0.038 A 
ATOM     11  C   UNL     1      17.230   2.720   4.498  0.00  0.00    +0.047 A 
ATOM     12  C   UNL     1      17.059   1.504   5.279  0.00  0.00    +0.035 A 
ATOM     32  C   UNL     1      18.125   0.558   5.297  0.00  0.00    +0.024 A 
ATOM     33  C   UNL     1      19.344   0.789   4.562  0.00  0.00    +0.007 A 
ATOM     34  C   UNL     1      19.517   1.985   3.788  0.00  0.00    -0.029 A 
ATOM     35  C   UNL     1      20.842   2.177   3.015  0.00  0.00    +0.045 C 
ENDROOT
BRANCH  10   9
ATOM      4  C   UNL     1      17.817   7.697   3.262  0.00  0.00    +0.077 A 
ATOM      5  C   UNL     1      17.206   7.818   4.554  0.00  0.00    +0.048 A 
ATOM      6  C   UNL     1      17.059   6.636   5.315  0.00  0.00    +0.116 A 
ATOM      7  N   UNL     1      17.495   5.430   4.812  0.00  0.00    -0.223 NA
ATOM      8  C   UNL     1      18.079   5.349   3.561  0.00  0.00    +0.220 A 
ATOM      9  N   UNL     1      18.532   4.147   3.038  0.00  0.00    -0.283 N 
ATOM     36  H   UNL     1      18.950   4.128   2.108  0.00  0.00    +0.155 HD
ATOM     37  N   UNL     1      18.229   6.462   2.814  0.00  0.00    -0.214 NA
BRANCH   4   3
ATOM      1  C   UNL     1      19.479  10.222   0.779  0.00  0.00    +0.020 A 
ATOM      2  C   UNL     1      19.312   9.088   1.659  0.00  0.00    +0.013 A 
ATOM      3  C   UNL     1      18.045   8.856   2.341  0.00  0.00    +0.019 A 
ATOM     38  C   UNL     1      16.959   9.796   2.109  0.00  0.00    +0.120 A 
ATOM     39  N   UNL     1      17.150  10.879   1.257  0.00  0.00    -0.263 NA
ATOM     40  C   UNL     1      18.365  11.114   0.597  0.00  0.00    +0.111 A 
ENDBRANCH   4   3
ENDBRANCH  10   9
BRANCH  12  13
ATOM     13  N   UNL     1      15.868   1.199   6.032  0.00  0.00    -0.281 N 
ATOM     14  C   UNL     1      14.795   0.413   5.646  0.00  0.00    +0.248 C 
ATOM     30  O   UNL     1      14.598   0.024   4.504  0.00  0.00    -0.270 OA
ATOM     31  H   UNL     1      15.809   1.613   6.962  0.00  0.00    +0.155 HD
BRANCH  14  15
ATOM     15  C   UNL     1      13.786   0.013   6.673  0.00  0.00    +0.037 A 
ATOM     16  C   UNL     1      14.178  -0.728   7.875  0.00  0.00    +0.013 A 
ATOM     17  C   UNL     1      13.183  -1.116   8.842  0.00  0.00    +0.005 A 
ATOM     18  C   UNL     1      11.784  -0.762   8.612  0.00  0.00    -0.033 A 
ATOM     28  C   UNL     1      11.423  -0.022   7.414  0.00  0.00    +0.005 A 
ATOM     29  C   UNL     1      12.396   0.359   6.463  0.00  0.00    +0.013 A 
BRANCH  18  19
ATOM     19  C   UNL     1      10.652  -1.154   9.580  0.00  0.00    +0.119 C 
BRANCH  19  20
ATOM     20  N   UNL     1      11.040  -1.864  10.835  0.00  0.00    -0.302 NA
ATOM     21  C   UNL     1      10.648  -3.344  10.802  0.00  0.00    +0.066 C 
ATOM     22  C   UNL     1      11.082  -4.077  12.113  0.00  0.00    -0.064 C 
ATOM     23  N   UNL     1      10.452  -3.376  13.319  0.00  0.00    +0.379 N 
ATOM     24  C   UNL     1      10.811  -4.098  14.548  0.00  0.00    -0.096 C 
ATOM     25  H   UNL     1       9.345  -3.435  13.203  0.00  0.00    -0.082 HD
ATOM     26  C   UNL     1      10.836  -1.904  13.357  0.00  0.00    -0.064 C 
ATOM     27  C   UNL     1      10.426  -1.191  12.038  0.00  0.00    +0.066 C 
ENDBRANCH  19  20
ENDBRANCH  18  19
ENDBRANCH  14  15
ENDBRANCH  12  13
TORSDOF 6
ENDMDL
MODEL 2
REMARK VINA RESULT:     -10.7      2.119     13.064
REMARK  Name = C:\Users\Docking\Desktop\test protocol\1iep_ligandH.pdb
REMARK  8 active torsions:
REMARK  status: ('A' for Active; 'I' for Inactive)
REMARK    1  A    between atoms: _5  and  _11
REMARK    2  A    between atoms: _19  and  _21
REMARK    3  A    between atoms: _22  and  _66
REMARK    4  A    between atoms: _27  and  _30
REMARK    5  A    between atoms: _32  and  _33
REMARK    6  A    between atoms: _38  and  _43
REMARK    7  A    between atoms: _43  and  _46
REMARK    8  A    between atoms: _53  and  _55
REMARK                            x       y       z     vdW  Elec       q    Type
REMARK                         _______ _______ _______ _____ _____    ______ ____
ROOT
ATOM     10  C   UNL     1      17.716   1.613   5.011  0.00  0.00    +0.038 A 
ATOM     11  C   UNL     1      17.580   2.942   4.536  0.00  0.00    +0.047 A 
ATOM     12  C   UNL     1      18.396   3.435   3.437  0.00  0.00    +0.035 A 
ATOM     32  C   UNL     1      19.338   2.546   2.843  0.00  0.00    +0.024 A 
ATOM     33  C   UNL     1      19.490   1.192   3.315  0.00  0.00    +0.007 A 
ATOM     34  C   UNL     1      18.690   0.701   4.400  0.00  0.00    -0.029 A 
ATOM     35  C   UNL     1      18.900  -0.758   4.869  0.00  0.00    +0.045 C 
ENDROOT
BRANCH  10   9
ATOM      4  C   UNL     1      13.485   0.252   6.823  0.00  0.00    +0.077 A 
ATOM      5  C   UNL     1      12.824   0.420   5.561  0.00  0.00    +0.048 A 
ATOM      6  C   UNL     1      13.607   0.864   4.472  0.00  0.00    +0.116 A 
ATOM      7  N   UNL     1      14.950   1.119   4.644  0.00  0.00    -0.223 NA
ATOM      8  C   UNL     1      15.556   0.949   5.875  0.00  0.00    +0.220 A 
ATOM      9  N   UNL     1      16.907   1.192   6.069  0.00  0.00    -0.283 N 
ATOM     36  H   UNL     1      17.315   1.062   6.995  0.00  0.00    +0.155 HD
ATOM     37  N   UNL     1      14.830   0.527   6.931  0.00  0.00    -0.214 NA
BRANCH   4   3
ATOM      1  C   UNL     1      12.727  -0.691  10.543  0.00  0.00    +0.020 A 
ATOM      2  C   UNL     1      13.439  -0.232   9.373  0.00  0.00    +0.013 A 
ATOM      3  C   UNL     1      12.793  -0.214   8.066  0.00  0.00    +0.019 A 
ATOM     38  C   UNL     1      11.414  -0.670   7.977  0.00  0.00    +0.120 A 
ATOM     39  N   UNL     1      10.754  -1.108   9.121  0.00  0.00    -0.263 NA
ATOM     40  C   UNL     1      11.366  -1.132  10.383  0.00  0.00    +0.111 A 
ENDBRANCH   4   3
ENDBRANCH  10   9
BRANCH  12  13
ATOM     13  N   UNL     1      18.308   4.777   2.916  0.00  0.00    -0.281 N 
ATOM     14  C   UNL     1      18.026   5.943   3.610  0.00  0.00    +0.248 C 
ATOM     30  O   UNL     1      17.595   5.979   4.753  0.00  0.00    -0.270 OA
ATOM     31  H   UNL     1      18.473   4.880   1.915  0.00  0.00    +0.155 HD
BRANCH  14  15
ATOM     15  C   UNL     1      18.242   7.257   2.932  0.00  0.00    +0.037 A 
ATOM     16  C   UNL     1      17.118   8.029   2.397  0.00  0.00    +0.013 A 
ATOM     17  C   UNL     1      17.355   9.286   1.732  0.00  0.00    +0.005 A 
ATOM     18  C   UNL     1      18.724   9.779   1.599  0.00  0.00    -0.033 A 
ATOM     28  C   UNL     1      19.820   8.995   2.144  0.00  0.00    +0.005 A 
ATOM     29  C   UNL     1      19.591   7.762   2.795  0.00  0.00    +0.013 A 
BRANCH  18  19
ATOM     19  C   UNL     1      19.073  11.099   0.886  0.00  0.00    +0.119 C 
BRANCH  19  20
ATOM     20  N   UNL     1      17.940  12.009   0.542  0.00  0.00    -0.302 NA
ATOM     21  C   UNL     1      17.873  12.300  -0.960  0.00  0.00    +0.066 C 
ATOM     22  C   UNL     1      16.669  13.236  -1.305  0.00  0.00    -0.064 C 
ATOM     23  N   UNL     1      16.792  14.535  -0.508  0.00  0.00    +0.379 N 
ATOM     24  C   UNL     1      15.693  15.441  -0.873  0.00  0.00    -0.096 C 
ATOM     25  H   UNL     1      17.748  15.025  -0.805  0.00  0.00    -0.082 HD
ATOM     26  C   UNL     1      16.862  14.255   0.987  0.00  0.00    -0.064 C 
ATOM     27  C   UNL     1      18.044  13.301   1.316  0.00  0.00    +0.066 C 
ENDBRANCH  19  20
ENDBRANCH  18  19
ENDBRANCH  14  15
ENDBRANCH  12  13
TORSDOF 6
ENDMDL
MODEL 3
REMARK VINA RESULT:     -10.0      2.348     13.198
REMARK  Name = C:\Users\Docking\Desktop\test protocol\1iep_ligandH.pdb
REMARK  8 active torsions:
REMARK  status: ('A' for Active; 'I' for Inactive)
REMARK    1  A    between atoms: _5  and  _11
REMARK    2  A    between atoms: _19  and  _21
REMARK    3  A    between atoms: _22  and  _66
REMARK    4  A    between atoms: _27  and  _30
REMARK    5  A    between atoms: _32  and  _33
REMARK    6  A    between atoms: _38  and  _43
REMARK    7  A    between atoms: _43  and  _46
REMARK    8  A    between atoms: _53  and  _55
REMARK                            x       y       z     vdW  Elec       q    Type
REMARK                         _______ _______ _______ _____ _____    ______ ____
ROOT
ATOM     10  C   UNL     1      17.704   1.525   5.057  0.00  0.00    +0.038 A 
ATOM     11  C   UNL     1      17.569   2.859   4.593  0.00  0.00    +0.047 A 
ATOM     12  C   UNL     1      18.376   3.358   3.491  0.00  0.00    +0.035 A 
ATOM     32  C   UNL     1      19.309   2.470   2.881  0.00  0.00    +0.024 A 
ATOM     33  C   UNL     1      19.461   1.111   3.340  0.00  0.00    +0.007 A 
ATOM     34  C   UNL     1      18.669   0.615   4.430  0.00  0.00    -0.029 A 
ATOM     35  C   UNL     1      18.878  -0.848   4.885  0.00  0.00    +0.045 C 
ENDROOT
BRANCH  10   9
ATOM      4  C   UNL     1      13.476   0.212   6.910  0.00  0.00    +0.077 A 
ATOM      5  C   UNL     1      12.798   0.418   5.662  0.00  0.00    +0.048 A 
ATOM      6  C   UNL     1      13.573   0.869   4.570  0.00  0.00    +0.116 A 
ATOM      7  N   UNL     1      14.924   1.094   4.725  0.00  0.00    -0.223 NA
ATOM      8  C   UNL     1      15.545   0.887   5.943  0.00  0.00    +0.220 A 
ATOM      9  N   UNL     1      16.904   1.099   6.120  0.00  0.00    -0.283 N 
ATOM     36  H   UNL     1      17.324   0.942   7.036  0.00  0.00    +0.155 HD
ATOM     37  N   UNL     1      14.827   0.458   7.001  0.00  0.00    -0.214 NA
BRANCH   4   3
ATOM      1  C   UNL     1      10.874  -1.354   9.375  0.00  0.00    +0.020 A 
ATOM      2  C   UNL     1      11.488  -0.910   8.145  0.00  0.00    +0.013 A 
ATOM      3  C   UNL     1      12.795  -0.266   8.154  0.00  0.00    +0.019 A 
ATOM     38  C   UNL     1      13.460  -0.084   9.436  0.00  0.00    +0.120 A 
ATOM     39  N   UNL     1      12.844  -0.520  10.605  0.00  0.00    -0.263 NA
ATOM     40  C   UNL     1      11.585  -1.140  10.608  0.00  0.00    +0.111 A 
ENDBRANCH   4   3
ENDBRANCH  10   9
BRANCH  12  13
ATOM     13  N   UNL     1      18.288   4.704   2.982  0.00  0.00    -0.281 N 
ATOM     14  C   UNL     1      17.971   5.859   3.678  0.00  0.00    +0.248 C 
ATOM     30  O   UNL     1      17.503   5.878   4.807  0.00  0.00    -0.270 OA
ATOM     31  H   UNL     1      18.484   4.820   1.987  0.00  0.00    +0.155 HD
BRANCH  14  15
ATOM     15  C   UNL     1      18.191   7.182   3.021  0.00  0.00    +0.037 A 
ATOM     16  C   UNL     1      19.542   7.687   2.763  0.00  0.00    +0.013 A 
ATOM     17  C   UNL     1      19.727   8.975   2.143  0.00  0.00    +0.005 A 
ATOM     18  C   UNL     1      18.557   9.767   1.774  0.00  0.00    -0.033 A 
ATOM     28  C   UNL     1      17.228   9.240   2.036  0.00  0.00    +0.005 A 
ATOM     29  C   UNL     1      17.042   7.978   2.645  0.00  0.00    +0.013 A 
BRANCH  18  19
ATOM     19  C   UNL     1      18.660  11.161   1.127  0.00  0.00    +0.119 C 
BRANCH  19  20
ATOM     20  N   UNL     1      19.947  11.899   1.295  0.00  0.00    -0.302 NA
ATOM     21  C   UNL     1      20.021  12.626   2.641  0.00  0.00    +0.066 C 
ATOM     22  C   UNL     1      21.384  13.374   2.809  0.00  0.00    -0.064 C 
ATOM     23  N   UNL     1      21.569  14.357   1.652  0.00  0.00    +0.379 N 
ATOM     24  C   UNL     1      22.822  15.104   1.838  0.00  0.00    -0.096 C 
ATOM     25  H   UNL     1      20.729  15.089   1.692  0.00  0.00    -0.082 HD
ATOM     26  C   UNL     1      21.494  13.643   0.309  0.00  0.00    -0.064 C 
ATOM     27  C   UNL     1      20.148  12.878   0.165  0.00  0.00    +0.066 C 
ENDBRANCH  19  20
ENDBRANCH  18  19
ENDBRANCH  14  15
ENDBRANCH  12  13
TORSDOF 6
ENDMDL
MODEL 4
REMARK VINA RESULT:      -9.8      6.619     18.641
REMARK  Name = C:\Users\Docking\Desktop\test protocol\1iep_ligandH.pdb
REMARK  8 active torsions:
REMARK  status: ('A' for Active; 'I' for Inactive)
REMARK    1  A    between atoms: _5  and  _11
REMARK    2  A    between atoms: _19  and  _21
REMARK    3  A    between atoms: _22  and  _66
REMARK    4  A    between atoms: _27  and  _30
REMARK    5  A    between atoms: _32  and  _33
REMARK    6  A    between atoms: _38  and  _43
REMARK    7  A    between atoms: _43  and  _46
REMARK    8  A    between atoms: _53  and  _55
REMARK                            x       y       z     vdW  Elec       q    Type
REMARK                         _______ _______ _______ _____ _____    ______ ____
ROOT
ATOM     10  C   UNL     1       8.209  -4.597  19.497  0.00  0.00    +0.038 A 
ATOM     11  C   UNL     1       8.645  -4.431  18.158  0.00  0.00    +0.047 A 
ATOM     12  C   UNL     1       8.320  -3.231  17.404  0.00  0.00    +0.035 A 
ATOM     32  C   UNL     1       7.551  -2.217  18.046  0.00  0.00    +0.024 A 
ATOM     33  C   UNL     1       7.099  -2.369  19.406  0.00  0.00    +0.007 A 
ATOM     34  C   UNL     1       7.414  -3.552  20.154  0.00  0.00    -0.029 A 
ATOM     35  C   UNL     1       6.897  -3.664  21.608  0.00  0.00    +0.045 C 
ENDROOT
BRANCH  10   9
ATOM      4  C   UNL     1      11.080  -7.133  22.389  0.00  0.00    +0.077 A 
ATOM      5  C   UNL     1      11.993  -6.037  22.542  0.00  0.00    +0.048 A 
ATOM      6  C   UNL     1      11.691  -4.840  21.854  0.00  0.00    +0.116 A 
ATOM      7  N   UNL     1      10.557  -4.757  21.074  0.00  0.00    -0.223 NA
ATOM      8  C   UNL     1       9.699  -5.833  20.947  0.00  0.00    +0.220 A 
ATOM      9  N   UNL     1       8.549  -5.770  20.175  0.00  0.00    -0.283 N 
ATOM     36  H   UNL     1       7.946  -6.588  20.101  0.00  0.00    +0.155 HD
ATOM     37  N   UNL     1       9.966  -6.988  21.593  0.00  0.00    -0.214 NA
BRANCH   4   3
ATOM      1  C   UNL     1      12.300  -9.971  24.788  0.00  0.00    +0.020 A 
ATOM      2  C   UNL     1      12.164  -8.668  24.180  0.00  0.00    +0.013 A 
ATOM      3  C   UNL     1      11.260  -8.461  23.055  0.00  0.00    +0.019 A 
ATOM     38  C   UNL     1      10.503  -9.604  22.566  0.00  0.00    +0.120 A 
ATOM     39  N   UNL     1      10.656 -10.848  23.170  0.00  0.00    -0.263 NA
ATOM     40  C   UNL     1      11.524 -11.059  24.252  0.00  0.00    +0.111 A 
ENDBRANCH   4   3
ENDBRANCH  10   9
BRANCH  12  13
ATOM     13  N   UNL     1       8.728  -3.011  16.038  0.00  0.00    -0.281 N 
ATOM     14  C   UNL     1       9.886  -2.401  15.583  0.00  0.00    +0.248 C 
ATOM     30  O   UNL     1      10.651  -1.758  16.287  0.00  0.00    -0.270 OA
ATOM     31  H   UNL     1       8.086  -3.345  15.320  0.00  0.00    +0.155 HD
BRANCH  14  15
ATOM     15  C   UNL     1      10.238  -2.510  14.135  0.00  0.00    +0.037 A 
ATOM     16  C   UNL     1      10.593  -3.798  13.533  0.00  0.00    +0.013 A 
ATOM     17  C   UNL     1      10.945  -3.872  12.137  0.00  0.00    +0.005 A 
ATOM     18  C   UNL     1      10.941  -2.652  11.332  0.00  0.00    -0.033 A 
ATOM     28  C   UNL     1      10.580  -1.389  11.953  0.00  0.00    +0.005 A 
ATOM     29  C   UNL     1      10.236  -1.312  13.322  0.00  0.00    +0.013 A 
BRANCH  18  19
ATOM     19  C   UNL     1      11.324  -2.634   9.841  0.00  0.00    +0.119 C 
BRANCH  19  20
ATOM     20  N   UNL     1      11.846  -1.350   9.284  0.00  0.00    -0.302 NA
ATOM     21  C   UNL     1      10.903  -0.753   8.236  0.00  0.00    +0.066 C 
ATOM     22  C   UNL     1      11.454   0.601   7.681  0.00  0.00    -0.064 C 
ATOM     23  N   UNL     1      12.848   0.378   7.092  0.00  0.00    +0.379 N 
ATOM     24  C   UNL     1      13.344   1.637   6.517  0.00  0.00    -0.096 C 
ATOM     25  H   UNL     1      12.749  -0.358   6.260  0.00  0.00    -0.082 HD
ATOM     26  C   UNL     1      13.791  -0.218   8.127  0.00  0.00    -0.064 C 
ATOM     27  C   UNL     1      13.220  -1.548   8.693  0.00  0.00    +0.066 C 
ENDBRANCH  19  20
ENDBRANCH  18  19
ENDBRANCH  14  15
ENDBRANCH  12  13
TORSDOF 6
ENDMDL
MODEL 5
REMARK VINA RESULT:      -9.7      3.704      6.461
REMARK  Name = C:\Users\Docking\Desktop\test protocol\1iep_ligandH.pdb
REMARK  8 active torsions:
REMARK  status: ('A' for Active; 'I' for Inactive)
REMARK    1  A    between atoms: _5  and  _11
REMARK    2  A    between atoms: _19  and  _21
REMARK    3  A    between atoms: _22  and  _66
REMARK    4  A    between atoms: _27  and  _30
REMARK    5  A    between atoms: _32  and  _33
REMARK    6  A    between atoms: _38  and  _43
REMARK    7  A    between atoms: _43  and  _46
REMARK    8  A    between atoms: _53  and  _55
REMARK                            x       y       z     vdW  Elec       q    Type
REMARK                         _______ _______ _______ _____ _____    ______ ____
ROOT
ATOM     10  C   UNL     1      13.515   1.163   6.109  0.00  0.00    +0.038 A 
ATOM     11  C   UNL     1      13.344   0.395   7.288  0.00  0.00    +0.047 A 
ATOM     12  C   UNL     1      12.118  -0.351   7.529  0.00  0.00    +0.035 A 
ATOM     32  C   UNL     1      11.088  -0.293   6.546  0.00  0.00    +0.024 A 
ATOM     33  C   UNL     1      11.245   0.484   5.341  0.00  0.00    +0.007 A 
ATOM     34  C   UNL     1      12.451   1.223   5.099  0.00  0.00    -0.029 A 
ATOM     35  C   UNL     1      12.562   2.045   3.794  0.00  0.00    +0.045 C 
ENDROOT
BRANCH  10   9
ATOM      4  C   UNL     1      18.167   1.351   4.943  0.00  0.00    +0.077 A 
ATOM      5  C   UNL     1      18.224  -0.061   4.697  0.00  0.00    +0.048 A 
ATOM      6  C   UNL     1      17.035  -0.801   4.890  0.00  0.00    +0.116 A 
ATOM      7  N   UNL     1      15.883  -0.166   5.297  0.00  0.00    -0.223 NA
ATOM      8  C   UNL     1      15.863   1.198   5.526  0.00  0.00    +0.220 A 
ATOM      9  N   UNL     1      14.713   1.859   5.928  0.00  0.00    -0.283 N 
ATOM     36  H   UNL     1      14.741   2.865   6.095  0.00  0.00    +0.155 HD
ATOM     37  N   UNL     1      16.985   1.927   5.351  0.00  0.00    -0.214 NA
BRANCH   4   3
ATOM      1  C   UNL     1      20.436   4.359   3.889  0.00  0.00    +0.020 A 
ATOM      2  C   UNL     1      19.275   3.508   4.015  0.00  0.00    +0.013 A 
ATOM      3  C   UNL     1      19.339   2.269   4.780  0.00  0.00    +0.019 A 
ATOM     38  C   UNL     1      20.602   1.918   5.411  0.00  0.00    +0.120 A 
ATOM     39  N   UNL     1      21.704   2.756   5.272  0.00  0.00    -0.263 NA
ATOM     40  C   UNL     1      21.654   3.950   4.537  0.00  0.00    +0.111 A 
ENDBRANCH   4   3
ENDBRANCH  10   9
BRANCH  12  13
ATOM     13  N   UNL     1      11.884  -1.142   8.712  0.00  0.00    -0.281 N 
ATOM     14  C   UNL     1      11.654  -0.696  10.003  0.00  0.00    +0.248 C 
ATOM     30  O   UNL     1      11.827   0.454  10.378  0.00  0.00    -0.270 OA
ATOM     31  H   UNL     1      11.889  -2.154   8.581  0.00  0.00    +0.155 HD
BRANCH  14  15
ATOM     15  C   UNL     1      11.176  -1.671  11.029  0.00  0.00    +0.037 A 
ATOM     16  C   UNL     1      11.270  -3.116  10.806  0.00  0.00    +0.013 A 
ATOM     17  C   UNL     1      10.786  -4.035  11.806  0.00  0.00    +0.005 A 
ATOM     18  C   UNL     1      10.203  -3.511  13.039  0.00  0.00    -0.033 A 
ATOM     28  C   UNL     1      10.127  -2.073  13.236  0.00  0.00    +0.005 A 
ATOM     29  C   UNL     1      10.600  -1.169  12.259  0.00  0.00    +0.013 A 
BRANCH  18  19
ATOM     19  C   UNL     1       9.642  -4.418  14.150  0.00  0.00    +0.119 C 
BRANCH  19  20
ATOM     20  N   UNL     1       9.020  -3.747  15.331  0.00  0.00    -0.302 NA
ATOM     21  C   UNL     1      10.024  -2.878  16.093  0.00  0.00    +0.066 C 
ATOM     22  C   UNL     1       9.351  -2.166  17.311  0.00  0.00    -0.064 C 
ATOM     23  N   UNL     1       8.734  -3.217  18.235  0.00  0.00    +0.379 N 
ATOM     24  C   UNL     1       8.151  -2.555  19.411  0.00  0.00    -0.096 C 
ATOM     25  H   UNL     1       9.558  -3.878  18.593  0.00  0.00    -0.082 HD
ATOM     26  C   UNL     1       7.736  -4.088  17.485  0.00  0.00    -0.064 C 
ATOM     27  C   UNL     1       8.408  -4.768  16.259  0.00  0.00    +0.066 C 
ENDBRANCH  19  20
ENDBRANCH  18  19
ENDBRANCH  14  15
ENDBRANCH  12  13
TORSDOF 6
ENDMDL
