MODEL 1
REMARK VINA RESULT:     -10.0      0.000      0.000
REMARK  Name = C:\Users\Docking\Desktop\test protocol\1iep_ligandH.pdb
REMARK  8 active torsions:
REMARK  status: ('A' for Active; 'I' for Inactive)
REMARK    1  A    between atoms: _5  and  _11
REMARK    2  A    between atoms: _19  and  _21
REMARK    3  A    between atoms: _22  and  _66
REMARK    4  A    between atoms: _27  and  _30
REMARK    5  A    between atoms: _32  and  _33
REMARK    6  A    between atoms: _38  and  _43
REMARK    7  A    between atoms: _43  and  _46
REMARK    8  A    between atoms: _53  and  _55
REMARK                            x       y       z     vdW  Elec       q    Type
REMARK                         _______ _______ _______ _____ _____    ______ ____
ROOT
ATOM     10  C   UNL     1      13.037   1.028   6.784  0.00  0.00    +0.038 A 
ATOM     11  C   UNL     1      12.753   0.502   8.071  0.00  0.00    +0.047 A 
ATOM     12  C   UNL     1      11.464  -0.102   8.369  0.00  0.00    +0.035 A 
ATOM     32  C   UNL     1      10.487  -0.157   7.332  0.00  0.00    +0.024 A 
ATOM     33  C   UNL     1      10.759   0.374   6.019  0.00  0.00    +0.007 A 
ATOM     34  C   UNL     1      12.028   0.973   5.720  0.00  0.00    -0.029 A 
ATOM     35  C   UNL     1      12.261   1.531   4.297  0.00  0.00    +0.045 C 
ENDROOT
BRANCH  10   9
ATOM      4  C   UNL     1      17.406   0.977   4.798  0.00  0.00    +0.077 A 
ATOM      5  C   UNL     1      17.180  -0.303   4.191  0.00  0.00    +0.048 A 
ATOM      6  C   UNL     1      15.929  -0.918   4.421  0.00  0.00    +0.116 A 
ATOM      7  N   UNL     1      14.982  -0.290   5.200  0.00  0.00    -0.223 NA
ATOM      8  C   UNL     1      15.233   0.943   5.772  0.00  0.00    +0.220 A 
ATOM      9  N   UNL     1      14.291   1.596   6.553  0.00  0.00    -0.283 N 
ATOM     36  H   UNL     1      14.518   2.502   6.963  0.00  0.00    +0.155 HD
ATOM     37  N   UNL     1      16.420   1.551   5.569  0.00  0.00    -0.214 NA
BRANCH   4   3
ATOM      1  C   UNL     1      19.988   3.765   3.869  0.00  0.00    +0.020 A 
ATOM      2  C   UNL     1      18.735   3.055   3.989  0.00  0.00    +0.013 A 
ATOM      3  C   UNL     1      18.676   1.755   4.646  0.00  0.00    +0.019 A 
ATOM     38  C   UNL     1      19.912   1.198   5.174  0.00  0.00    +0.120 A 
ATOM     39  N   UNL     1      21.104   1.904   5.043  0.00  0.00    -0.263 NA
ATOM     40  C   UNL     1      21.173   3.155   4.411  0.00  0.00    +0.111 A 
ENDBRANCH   4   3
ENDBRANCH  10   9
BRANCH  12  13
ATOM     13  N   UNL     1      11.115  -0.645   9.658  0.00  0.00    -0.281 N 
ATOM     14  C   UNL     1      11.455  -1.882  10.182  0.00  0.00    +0.248 C 
ATOM     30  O   UNL     1      11.934  -2.799   9.532  0.00  0.00    -0.270 OA
ATOM     31  H   UNL     1      10.550  -0.045  10.258  0.00  0.00    +0.155 HD
BRANCH  14  15
ATOM     15  C   UNL     1      11.215  -2.142  11.634  0.00  0.00    +0.037 A 
ATOM     16  C   UNL     1      11.352  -3.488  12.197  0.00  0.00    +0.013 A 
ATOM     17  C   UNL     1      11.098  -3.714  13.598  0.00  0.00    +0.005 A 
ATOM     18  C   UNL     1      10.705  -2.591  14.446  0.00  0.00    -0.033 A 
ATOM     28  C   UNL     1      10.582  -1.266  13.861  0.00  0.00    +0.005 A 
ATOM     29  C   UNL     1      10.829  -1.040  12.489  0.00  0.00    +0.013 A 
BRANCH  18  19
ATOM     19  C   UNL     1      10.394  -2.744  15.946  0.00  0.00    +0.119 C 
BRANCH  19  20
ATOM     20  N   UNL     1      10.300  -1.493  16.756  0.00  0.00    -0.302 NA
ATOM     21  C   UNL     1      11.638  -1.128  17.406  0.00  0.00    +0.066 C 
ATOM     22  C   UNL     1      11.527   0.196  18.231  0.00  0.00    -0.064 C 
ATOM     23  N   UNL     1      10.434   0.043  19.291  0.00  0.00    +0.379 N 
ATOM     24  C   UNL     1      10.367   1.264  20.106  0.00  0.00    -0.096 C 
ATOM     25  H   UNL     1      10.730  -0.797  19.962  0.00  0.00    -0.082 HD
ATOM     26  C   UNL     1       9.101  -0.324  18.653  0.00  0.00    -0.064 C 
ATOM     27  C   UNL     1       9.230  -1.624  17.812  0.00  0.00    +0.066 C 
ENDBRANCH  19  20
ENDBRANCH  18  19
ENDBRANCH  14  15
ENDBRANCH  12  13
TORSDOF 6
ENDMDL
MODEL 2
REMARK VINA RESULT:      -9.9      1.507      2.327
REMARK  Name = C:\Users\Docking\Desktop\test protocol\1iep_ligandH.pdb
REMARK  8 active torsions:
REMARK  status: ('A' for Active; 'I' for Inactive)
REMARK    1  A    between atoms: _5  and  _11
REMARK    2  A    between atoms: _19  and  _21
REMARK    3  A    between atoms: _22  and  _66
REMARK    4  A    between atoms: _27  and  _30
REMARK    5  A    between atoms: _32  and  _33
REMARK    6  A    between atoms: _38  and  _43
REMARK    7  A    between atoms: _43  and  _46
REMARK    8  A    between atoms: _53  and  _55
REMARK                            x       y       z     vdW  Elec       q    Type
REMARK                         _______ _______ _______ _____ _____    ______ ____
ROOT
ATOM     10  C   UNL     1      12.934   1.058   6.825  0.00  0.00    +0.038 A 
ATOM     11  C   UNL     1      12.704   0.572   8.138  0.00  0.00    +0.047 A 
ATOM     12  C   UNL     1      11.451  -0.076   8.491  0.00  0.00    +0.035 A 
ATOM     32  C   UNL     1      10.454  -0.216   7.482  0.00  0.00    +0.024 A 
ATOM     33  C   UNL     1      10.670   0.273   6.143  0.00  0.00    +0.007 A 
ATOM     34  C   UNL     1      11.904   0.916   5.789  0.00  0.00    -0.029 A 
ATOM     35  C   UNL     1      12.078   1.426   4.340  0.00  0.00    +0.045 C 
ENDROOT
BRANCH  10   9
ATOM      4  C   UNL     1      17.271   1.103   4.770  0.00  0.00    +0.077 A 
ATOM      5  C   UNL     1      17.100  -0.219   4.241  0.00  0.00    +0.048 A 
ATOM      6  C   UNL     1      15.884  -0.880   4.527  0.00  0.00    +0.116 A 
ATOM      7  N   UNL     1      14.918  -0.254   5.286  0.00  0.00    -0.223 NA
ATOM      8  C   UNL     1      15.116   1.021   5.782  0.00  0.00    +0.220 A 
ATOM      9  N   UNL     1      14.155   1.672   6.541  0.00  0.00    -0.283 N 
ATOM     36  H   UNL     1      14.343   2.610   6.895  0.00  0.00    +0.155 HD
ATOM     37  N   UNL     1      16.269   1.672   5.525  0.00  0.00    -0.214 NA
BRANCH   4   3
ATOM      1  C   UNL     1      20.999   2.270   4.567  0.00  0.00    +0.020 A 
ATOM      2  C   UNL     1      19.846   1.429   4.793  0.00  0.00    +0.013 A 
ATOM      3  C   UNL     1      18.499   1.931   4.552  0.00  0.00    +0.019 A 
ATOM     38  C   UNL     1      18.353   3.299   4.078  0.00  0.00    +0.120 A 
ATOM     39  N   UNL     1      19.481   4.086   3.870  0.00  0.00    -0.263 NA
ATOM     40  C   UNL     1      20.782   3.614   4.100  0.00  0.00    +0.111 A 
ENDBRANCH   4   3
ENDBRANCH  10   9
BRANCH  12  13
ATOM     13  N   UNL     1      11.157  -0.582   9.809  0.00  0.00    -0.281 N 
ATOM     14  C   UNL     1      11.418  -1.845  10.314  0.00  0.00    +0.248 C 
ATOM     30  O   UNL     1      11.753  -2.805   9.636  0.00  0.00    -0.270 OA
ATOM     31  H   UNL     1      10.702   0.070  10.448  0.00  0.00    +0.155 HD
BRANCH  14  15
ATOM     15  C   UNL     1      11.273  -2.080  11.783  0.00  0.00    +0.037 A 
ATOM     16  C   UNL     1      11.630  -3.366  12.387  0.00  0.00    +0.013 A 
ATOM     17  C   UNL     1      11.464  -3.572  13.804  0.00  0.00    +0.005 A 
ATOM     18  C   UNL     1      10.938  -2.486  14.628  0.00  0.00    -0.033 A 
ATOM     28  C   UNL     1      10.596  -1.219  14.004  0.00  0.00    +0.005 A 
ATOM     29  C   UNL     1      10.757  -1.014  12.616  0.00  0.00    +0.013 A 
BRANCH  18  19
ATOM     19  C   UNL     1      10.708  -2.624  16.144  0.00  0.00    +0.119 C 
BRANCH  19  20
ATOM     20  N   UNL     1       9.402  -3.198  16.589  0.00  0.00    -0.302 NA
ATOM     21  C   UNL     1       8.994  -2.690  17.975  0.00  0.00    +0.066 C 
ATOM     22  C   UNL     1       7.615  -3.283  18.414  0.00  0.00    -0.064 C 
ATOM     23  N   UNL     1       7.691  -4.810  18.397  0.00  0.00    +0.379 N 
ATOM     24  C   UNL     1       6.415  -5.370  18.865  0.00  0.00    -0.096 C 
ATOM     25  H   UNL     1       8.481  -5.118  19.121  0.00  0.00    -0.082 HD
ATOM     26  C   UNL     1       8.099  -5.323  17.023  0.00  0.00    -0.064 C 
ATOM     27  C   UNL     1       9.456  -4.706  16.583  0.00  0.00    +0.066 C 
ENDBRANCH  19  20
ENDBRANCH  18  19
ENDBRANCH  14  15
ENDBRANCH  12  13
TORSDOF 6
ENDMDL
MODEL 3
REMARK VINA RESULT:      -9.5      4.063     12.820
REMARK  Name = C:\Users\Docking\Desktop\test protocol\1iep_ligandH.pdb
REMARK  8 active torsions:
REMARK  status: ('A' for Active; 'I' for Inactive)
REMARK    1  A    between atoms: _5  and  _11
REMARK    2  A    between atoms: _19  and  _21
REMARK    3  A    between atoms: _22  and  _66
REMARK    4  A    between atoms: _27  and  _30
REMARK    5  A    between atoms: _32  and  _33
REMARK    6  A    between atoms: _38  and  _43
REMARK    7  A    between atoms: _43  and  _46
REMARK    8  A    between atoms: _53  and  _55
REMARK                            x       y       z     vdW  Elec       q    Type
REMARK                         _______ _______ _______ _____ _____    ______ ____
ROOT
ATOM     10  C   UNL     1      11.463   1.163  19.963  0.00  0.00    +0.038 A 
ATOM     11  C   UNL     1      11.448   0.701  18.623  0.00  0.00    +0.047 A 
ATOM     12  C   UNL     1      11.642  -0.707  18.310  0.00  0.00    +0.035 A 
ATOM     32  C   UNL     1      11.847  -1.616  19.388  0.00  0.00    +0.024 A 
ATOM     33  C   UNL     1      11.867  -1.163  20.757  0.00  0.00    +0.007 A 
ATOM     34  C   UNL     1      11.678   0.224  21.071  0.00  0.00    -0.029 A 
ATOM     35  C   UNL     1      11.716   0.655  22.556  0.00  0.00    +0.045 C 
ENDROOT
BRANCH  10   9
ATOM      4  C   UNL     1      12.863   5.747  19.703  0.00  0.00    +0.077 A 
ATOM      5  C   UNL     1      14.093   5.396  19.053  0.00  0.00    +0.048 A 
ATOM      6  C   UNL     1      14.330   4.025  18.810  0.00  0.00    +0.116 A 
ATOM      7  N   UNL     1      13.400   3.083  19.193  0.00  0.00    -0.223 NA
ATOM      8  C   UNL     1      12.225   3.455  19.820  0.00  0.00    +0.220 A 
ATOM      9  N   UNL     1      11.272   2.525  20.206  0.00  0.00    -0.283 N 
ATOM     36  H   UNL     1      10.421   2.839  20.673  0.00  0.00    +0.155 HD
ATOM     37  N   UNL     1      11.975   4.758  20.064  0.00  0.00    -0.214 NA
BRANCH   4   3
ATOM      1  C   UNL     1      12.950   9.465  20.915  0.00  0.00    +0.020 A 
ATOM      2  C   UNL     1      13.383   8.118  20.624  0.00  0.00    +0.013 A 
ATOM      3  C   UNL     1      12.467   7.154  20.026  0.00  0.00    +0.019 A 
ATOM     38  C   UNL     1      11.110   7.590  19.732  0.00  0.00    +0.120 A 
ATOM     39  N   UNL     1      10.721   8.893  20.025  0.00  0.00    -0.263 NA
ATOM     40  C   UNL     1      11.593   9.829  20.602  0.00  0.00    +0.111 A 
ENDBRANCH   4   3
ENDBRANCH  10   9
BRANCH  12  13
ATOM     13  N   UNL     1      11.644  -1.234  16.968  0.00  0.00    -0.281 N 
ATOM     14  C   UNL     1      10.558  -1.646  16.213  0.00  0.00    +0.248 C 
ATOM     30  O   UNL     1       9.434  -1.825  16.659  0.00  0.00    -0.270 OA
ATOM     31  H   UNL     1      12.557  -1.312  16.520  0.00  0.00    +0.155 HD
BRANCH  14  15
ATOM     15  C   UNL     1      10.751  -1.912  14.755  0.00  0.00    +0.037 A 
ATOM     16  C   UNL     1      11.198  -3.222  14.274  0.00  0.00    +0.013 A 
ATOM     17  C   UNL     1      11.393  -3.447  12.864  0.00  0.00    +0.005 A 
ATOM     18  C   UNL     1      11.140  -2.358  11.924  0.00  0.00    -0.033 A 
ATOM     28  C   UNL     1      10.692  -1.070  12.427  0.00  0.00    +0.005 A 
ATOM     29  C   UNL     1      10.501  -0.846  13.809  0.00  0.00    +0.013 A 
BRANCH  18  19
ATOM     19  C   UNL     1      11.342  -2.502  10.403  0.00  0.00    +0.119 C 
BRANCH  19  20
ATOM     20  N   UNL     1      11.969  -1.353   9.685  0.00  0.00    -0.302 NA
ATOM     21  C   UNL     1      11.008  -0.708   8.682  0.00  0.00    +0.066 C 
ATOM     22  C   UNL     1      11.673   0.506   7.956  0.00  0.00    -0.064 C 
ATOM     23  N   UNL     1      12.952   0.042   7.259  0.00  0.00    +0.379 N 
ATOM     24  C   UNL     1      13.549   1.169   6.527  0.00  0.00    -0.096 C 
ATOM     25  H   UNL     1      12.667  -0.734   6.511  0.00  0.00    -0.082 HD
ATOM     26  C   UNL     1      13.913  -0.603   8.248  0.00  0.00    -0.064 C 
ATOM     27  C   UNL     1      13.232  -1.790   8.985  0.00  0.00    +0.066 C 
ENDBRANCH  19  20
ENDBRANCH  18  19
ENDBRANCH  14  15
ENDBRANCH  12  13
TORSDOF 6
ENDMDL
MODEL 4
REMARK VINA RESULT:      -9.0      5.712     15.185
REMARK  Name = C:\Users\Docking\Desktop\test protocol\1iep_ligandH.pdb
REMARK  8 active torsions:
REMARK  status: ('A' for Active; 'I' for Inactive)
REMARK    1  A    between atoms: _5  and  _11
REMARK    2  A    between atoms: _19  and  _21
REMARK    3  A    between atoms: _22  and  _66
REMARK    4  A    between atoms: _27  and  _30
REMARK    5  A    between atoms: _32  and  _33
REMARK    6  A    between atoms: _38  and  _43
REMARK    7  A    between atoms: _43  and  _46
REMARK    8  A    between atoms: _53  and  _55
REMARK                            x       y       z     vdW  Elec       q    Type
REMARK                         _______ _______ _______ _____ _____    ______ ____
ROOT
ATOM     10  C   UNL     1       9.283  -4.587  20.127  0.00  0.00    +0.038 A 
ATOM     11  C   UNL     1       9.520  -4.538  18.729  0.00  0.00    +0.047 A 
ATOM     12  C   UNL     1       9.213  -3.345  17.956  0.00  0.00    +0.035 A 
ATOM     32  C   UNL     1       8.668  -2.219  18.638  0.00  0.00    +0.024 A 
ATOM     33  C   UNL     1       8.419  -2.252  20.058  0.00  0.00    +0.007 A 
ATOM     34  C   UNL     1       8.718  -3.427  20.826  0.00  0.00    -0.029 A 
ATOM     35  C   UNL     1       8.425  -3.408  22.345  0.00  0.00    +0.045 C 
ENDROOT
BRANCH  10   9
ATOM      4  C   UNL     1      12.168  -7.198  22.937  0.00  0.00    +0.077 A 
ATOM      5  C   UNL     1      13.145  -6.151  23.007  0.00  0.00    +0.048 A 
ATOM      6  C   UNL     1      12.871  -4.959  22.300  0.00  0.00    +0.116 A 
ATOM      7  N   UNL     1      11.703  -4.834  21.580  0.00  0.00    -0.223 NA
ATOM      8  C   UNL     1      10.782  -5.864  21.532  0.00  0.00    +0.220 A 
ATOM      9  N   UNL     1       9.597  -5.758  20.820  0.00  0.00    -0.283 N 
ATOM     36  H   UNL     1       8.946  -6.543  20.803  0.00  0.00    +0.155 HD
ATOM     37  N   UNL     1      11.021  -7.014  22.197  0.00  0.00    -0.214 NA
BRANCH   4   3
ATOM      1  C   UNL     1      13.166  -9.974  25.506  0.00  0.00    +0.020 A 
ATOM      2  C   UNL     1      13.057  -8.679  24.874  0.00  0.00    +0.013 A 
ATOM      3  C   UNL     1      12.312  -8.516  23.632  0.00  0.00    +0.019 A 
ATOM     38  C   UNL     1      11.683  -9.693  23.051  0.00  0.00    +0.120 A 
ATOM     39  N   UNL     1      11.807 -10.927  23.681  0.00  0.00    -0.263 NA
ATOM     40  C   UNL     1      12.522 -11.097  24.875  0.00  0.00    +0.111 A 
ENDBRANCH   4   3
ENDBRANCH  10   9
BRANCH  12  13
ATOM     13  N   UNL     1       9.424  -3.239  16.533  0.00  0.00    -0.281 N 
ATOM     14  C   UNL     1       9.929  -2.161  15.825  0.00  0.00    +0.248 C 
ATOM     30  O   UNL     1      10.077  -1.039  16.287  0.00  0.00    -0.270 OA
ATOM     31  H   UNL     1       9.171  -4.059  15.981  0.00  0.00    +0.155 HD
BRANCH  14  15
ATOM     15  C   UNL     1      10.312  -2.353  14.393  0.00  0.00    +0.037 A 
ATOM     16  C   UNL     1      10.198  -3.662  13.745  0.00  0.00    +0.013 A 
ATOM     17  C   UNL     1      10.590  -3.824  12.367  0.00  0.00    +0.005 A 
ATOM     18  C   UNL     1      11.099  -2.671  11.628  0.00  0.00    -0.033 A 
ATOM     28  C   UNL     1      11.196  -1.383  12.293  0.00  0.00    +0.005 A 
ATOM     29  C   UNL     1      10.814  -1.221  13.644  0.00  0.00    +0.013 A 
BRANCH  18  19
ATOM     19  C   UNL     1      11.560  -2.756  10.161  0.00  0.00    +0.119 C 
BRANCH  19  20
ATOM     20  N   UNL     1      12.068  -1.501   9.530  0.00  0.00    -0.302 NA
ATOM     21  C   UNL     1      11.012  -0.837   8.641  0.00  0.00    +0.066 C 
ATOM     22  C   UNL     1      11.552   0.486   8.006  0.00  0.00    -0.064 C 
ATOM     23  N   UNL     1      12.821   0.184   7.208  0.00  0.00    +0.379 N 
ATOM     24  C   UNL     1      13.299   1.415   6.562  0.00  0.00    -0.096 C 
ATOM     25  H   UNL     1      12.550  -0.537   6.402  0.00  0.00    -0.082 HD
ATOM     26  C   UNL     1      13.875  -0.479   8.084  0.00  0.00    -0.064 C 
ATOM     27  C   UNL     1      13.318  -1.777   8.732  0.00  0.00    +0.066 C 
ENDBRANCH  19  20
ENDBRANCH  18  19
ENDBRANCH  14  15
ENDBRANCH  12  13
TORSDOF 6
ENDMDL
MODEL 5
REMARK VINA RESULT:      -8.7      7.034     13.599
REMARK  Name = C:\Users\Docking\Desktop\test protocol\1iep_ligandH.pdb
REMARK  8 active torsions:
REMARK  status: ('A' for Active; 'I' for Inactive)
REMARK    1  A    between atoms: _5  and  _11
REMARK    2  A    between atoms: _19  and  _21
REMARK    3  A    between atoms: _22  and  _66
REMARK    4  A    between atoms: _27  and  _30
REMARK    5  A    between atoms: _32  and  _33
REMARK    6  A    between atoms: _38  and  _43
REMARK    7  A    between atoms: _43  and  _46
REMARK    8  A    between atoms: _53  and  _55
REMARK                            x       y       z     vdW  Elec       q    Type
REMARK                         _______ _______ _______ _____ _____    ______ ____
ROOT
ATOM     10  C   UNL     1      14.548   5.832  20.627  0.00  0.00    +0.038 A 
ATOM     11  C   UNL     1      14.038   4.750  19.865  0.00  0.00    +0.047 A 
ATOM     12  C   UNL     1      12.651   4.725  19.428  0.00  0.00    +0.035 A 
ATOM     32  C   UNL     1      11.811   5.821  19.782  0.00  0.00    +0.024 A 
ATOM     33  C   UNL     1      12.313   6.929  20.557  0.00  0.00    +0.007 A 
ATOM     34  C   UNL     1      13.679   6.958  20.993  0.00  0.00    -0.029 A 
ATOM     35  C   UNL     1      14.161   8.168  21.827  0.00  0.00    +0.045 C 
ENDROOT
BRANCH  10   9
ATOM      4  C   UNL     1      18.194   3.931  23.103  0.00  0.00    +0.077 A 
ATOM      5  C   UNL     1      17.352   2.924  23.683  0.00  0.00    +0.048 A 
ATOM      6  C   UNL     1      15.986   2.934  23.323  0.00  0.00    +0.116 A 
ATOM      7  N   UNL     1      15.508   3.885  22.448  0.00  0.00    -0.223 NA
ATOM      8  C   UNL     1      16.346   4.843  21.908  0.00  0.00    +0.220 A 
ATOM      9  N   UNL     1      15.888   5.804  21.020  0.00  0.00    -0.283 N 
ATOM     36  H   UNL     1      16.537   6.498  20.650  0.00  0.00    +0.155 HD
ATOM     37  N   UNL     1      17.654   4.856  22.237  0.00  0.00    -0.214 NA
BRANCH   4   3
ATOM      1  C   UNL     1      22.078   3.522  22.894  0.00  0.00    +0.020 A 
ATOM      2  C   UNL     1      20.675   3.375  22.582  0.00  0.00    +0.013 A 
ATOM      3  C   UNL     1      19.660   4.049  23.382  0.00  0.00    +0.019 A 
ATOM     38  C   UNL     1      20.101   4.871  24.498  0.00  0.00    +0.120 A 
ATOM     39  N   UNL     1      21.459   4.993  24.775  0.00  0.00    -0.263 NA
ATOM     40  C   UNL     1      22.445   4.348  24.014  0.00  0.00    +0.111 A 
ENDBRANCH   4   3
ENDBRANCH  10   9
BRANCH  12  13
ATOM     13  N   UNL     1      12.075   3.650  18.659  0.00  0.00    -0.281 N 
ATOM     14  C   UNL     1      12.509   3.144  17.445  0.00  0.00    +0.248 C 
ATOM     30  O   UNL     1      13.337   3.684  16.727  0.00  0.00    -0.270 OA
ATOM     31  H   UNL     1      11.247   3.208  19.059  0.00  0.00    +0.155 HD
BRANCH  14  15
ATOM     15  C   UNL     1      11.927   1.859  16.949  0.00  0.00    +0.037 A 
ATOM     16  C   UNL     1      12.570   0.574  17.234  0.00  0.00    +0.013 A 
ATOM     17  C   UNL     1      11.998  -0.649  16.729  0.00  0.00    +0.005 A 
ATOM     18  C   UNL     1      10.773  -0.592  15.934  0.00  0.00    -0.033 A 
ATOM     28  C   UNL     1      10.153   0.696  15.672  0.00  0.00    +0.005 A 
ATOM     29  C   UNL     1      10.712   1.897  16.164  0.00  0.00    +0.013 A 
BRANCH  18  19
ATOM     19  C   UNL     1      10.104  -1.844  15.338  0.00  0.00    +0.119 C 
BRANCH  19  20
ATOM     20  N   UNL     1      10.765  -2.476  14.157  0.00  0.00    -0.302 NA
ATOM     21  C   UNL     1      10.850  -1.517  12.966  0.00  0.00    +0.066 C 
ATOM     22  C   UNL     1      11.565  -2.187  11.747  0.00  0.00    -0.064 C 
ATOM     23  N   UNL     1      10.819  -3.465  11.361  0.00  0.00    +0.379 N 
ATOM     24  C   UNL     1      11.454  -4.066  10.179  0.00  0.00    -0.096 C 
ATOM     25  H   UNL     1       9.780  -3.177  11.077  0.00  0.00    -0.082 HD
ATOM     26  C   UNL     1      10.727  -4.423  12.541  0.00  0.00    -0.064 C 
ATOM     27  C   UNL     1      10.042  -3.738  13.756  0.00  0.00    +0.066 C 
ENDBRANCH  19  20
ENDBRANCH  18  19
ENDBRANCH  14  15
ENDBRANCH  12  13
TORSDOF 6
ENDMDL
