MODEL 1
REMARK VINA RESULT:      -9.2      0.000      0.000
REMARK  Name = C:\Users\Docking\Desktop\test protocol\1iep_ligandH.pdb
REMARK  8 active torsions:
REMARK  status: ('A' for Active; 'I' for Inactive)
REMARK    1  A    between atoms: _5  and  _11
REMARK    2  A    between atoms: _19  and  _21
REMARK    3  A    between atoms: _22  and  _66
REMARK    4  A    between atoms: _27  and  _30
REMARK    5  A    between atoms: _32  and  _33
REMARK    6  A    between atoms: _38  and  _43
REMARK    7  A    between atoms: _43  and  _46
REMARK    8  A    between atoms: _53  and  _55
REMARK                            x       y       z     vdW  Elec       q    Type
REMARK                         _______ _______ _______ _____ _____    ______ ____
ROOT
ATOM     10  C   UNL     1      26.576  44.366  53.068  0.00  0.00    +0.038 A 
ATOM     11  C   UNL     1      27.325  43.911  54.183  0.00  0.00    +0.047 A 
ATOM     12  C   UNL     1      28.580  44.547  54.556  0.00  0.00    +0.035 A 
ATOM     32  C   UNL     1      29.040  45.644  53.772  0.00  0.00    +0.024 A 
ATOM     33  C   UNL     1      28.292  46.118  52.634  0.00  0.00    +0.007 A 
ATOM     34  C   UNL     1      27.055  45.494  52.260  0.00  0.00    -0.029 A 
ATOM     35  C   UNL     1      26.297  46.040  51.028  0.00  0.00    +0.045 C 
ENDROOT
BRANCH  10   9
ATOM      4  C   UNL     1      21.902  43.538  53.779  0.00  0.00    +0.077 A 
ATOM      5  C   UNL     1      21.848  44.451  54.885  0.00  0.00    +0.048 A 
ATOM      6  C   UNL     1      23.046  45.108  55.243  0.00  0.00    +0.116 A 
ATOM      7  N   UNL     1      24.206  44.863  54.540  0.00  0.00    -0.223 NA
ATOM      8  C   UNL     1      24.224  43.975  53.480  0.00  0.00    +0.220 A 
ATOM      9  N   UNL     1      25.378  43.719  52.755  0.00  0.00    -0.283 N 
ATOM     36  H   UNL     1      25.352  43.051  51.985  0.00  0.00    +0.155 HD
ATOM     37  N   UNL     1      23.093  43.333  53.120  0.00  0.00    -0.214 NA
BRANCH   4   3
ATOM      1  C   UNL     1      19.609  41.159  51.685  0.00  0.00    +0.020 A 
ATOM      2  C   UNL     1      20.781  41.878  52.128  0.00  0.00    +0.013 A 
ATOM      3  C   UNL     1      20.718  42.770  53.279  0.00  0.00    +0.019 A 
ATOM     38  C   UNL     1      19.443  42.912  53.966  0.00  0.00    +0.120 A 
ATOM     39  N   UNL     1      18.331  42.208  53.517  0.00  0.00    -0.263 NA
ATOM     40  C   UNL     1      18.379  41.349  52.409  0.00  0.00    +0.111 A 
ENDBRANCH   4   3
ENDBRANCH  10   9
BRANCH  12  13
ATOM     13  N   UNL     1      29.388  44.124  55.673  0.00  0.00    -0.281 N 
ATOM     14  C   UNL     1      29.608  44.793  56.866  0.00  0.00    +0.248 C 
ATOM     30  O   UNL     1      29.313  45.961  57.068  0.00  0.00    -0.270 OA
ATOM     31  H   UNL     1      29.854  43.222  55.571  0.00  0.00    +0.155 HD
BRANCH  14  15
ATOM     15  C   UNL     1      30.265  44.062  57.992  0.00  0.00    +0.037 A 
ATOM     16  C   UNL     1      31.542  43.368  57.807  0.00  0.00    +0.013 A 
ATOM     17  C   UNL     1      32.145  42.657  58.906  0.00  0.00    +0.005 A 
ATOM     18  C   UNL     1      31.471  42.637  60.202  0.00  0.00    -0.033 A 
ATOM     28  C   UNL     1      30.208  43.338  60.360  0.00  0.00    +0.005 A 
ATOM     29  C   UNL     1      29.613  44.035  59.284  0.00  0.00    +0.013 A 
BRANCH  18  19
ATOM     19  C   UNL     1      32.031  41.885  61.424  0.00  0.00    +0.119 C 
BRANCH  19  20
ATOM     20  N   UNL     1      31.487  40.521  61.696  0.00  0.00    -0.302 NA
ATOM     21  C   UNL     1      30.208  40.570  62.536  0.00  0.00    +0.066 C 
ATOM     22  C   UNL     1      29.640  39.136  62.793  0.00  0.00    -0.064 C 
ATOM     23  N   UNL     1      30.708  38.283  63.480  0.00  0.00    +0.379 N 
ATOM     24  C   UNL     1      30.158  36.952  63.775  0.00  0.00    -0.096 C 
ATOM     25  H   UNL     1      30.955  38.770  64.452  0.00  0.00    -0.082 HD
ATOM     26  C   UNL     1      31.984  38.232  62.652  0.00  0.00    -0.064 C 
ATOM     27  C   UNL     1      32.524  39.663  62.379  0.00  0.00    +0.066 C 
ENDBRANCH  19  20
ENDBRANCH  18  19
ENDBRANCH  14  15
ENDBRANCH  12  13
TORSDOF 6
ENDMDL
MODEL 2
REMARK VINA RESULT:      -8.8     30.596     36.040
REMARK  Name = C:\Users\Docking\Desktop\test protocol\1iep_ligandH.pdb
REMARK  8 active torsions:
REMARK  status: ('A' for Active; 'I' for Inactive)
REMARK    1  A    between atoms: _5  and  _11
REMARK    2  A    between atoms: _19  and  _21
REMARK    3  A    between atoms: _22  and  _66
REMARK    4  A    between atoms: _27  and  _30
REMARK    5  A    between atoms: _32  and  _33
REMARK    6  A    between atoms: _38  and  _43
REMARK    7  A    between atoms: _43  and  _46
REMARK    8  A    between atoms: _53  and  _55
REMARK                            x       y       z     vdW  Elec       q    Type
REMARK                         _______ _______ _______ _____ _____    ______ ____
ROOT
ATOM     10  C   UNL     1       9.925  11.329  61.514  0.00  0.00    +0.038 A 
ATOM     11  C   UNL     1      10.173  11.838  60.214  0.00  0.00    +0.047 A 
ATOM     12  C   UNL     1       9.108  11.936  59.228  0.00  0.00    +0.035 A 
ATOM     32  C   UNL     1       7.800  11.509  59.602  0.00  0.00    +0.024 A 
ATOM     33  C   UNL     1       7.531  10.988  60.919  0.00  0.00    +0.007 A 
ATOM     34  C   UNL     1       8.578  10.887  61.895  0.00  0.00    -0.029 A 
ATOM     35  C   UNL     1       8.233  10.315  63.290  0.00  0.00    +0.045 C 
ENDROOT
BRANCH  10   9
ATOM      4  C   UNL     1      13.932   9.285  63.189  0.00  0.00    +0.077 A 
ATOM      5  C   UNL     1      13.896   8.257  62.189  0.00  0.00    +0.048 A 
ATOM      6  C   UNL     1      12.825   8.285  61.267  0.00  0.00    +0.116 A 
ATOM      7  N   UNL     1      11.868   9.274  61.348  0.00  0.00    -0.223 NA
ATOM      8  C   UNL     1      11.932  10.250  62.326  0.00  0.00    +0.220 A 
ATOM      9  N   UNL     1      10.985  11.258  62.421  0.00  0.00    -0.283 N 
ATOM     36  H   UNL     1      11.063  11.955  63.161  0.00  0.00    +0.155 HD
ATOM     37  N   UNL     1      12.943  10.243  63.219  0.00  0.00    -0.214 NA
BRANCH   4   3
ATOM      1  C   UNL     1      16.932   8.455  65.557  0.00  0.00    +0.020 A 
ATOM      2  C   UNL     1      15.917   8.300  64.541  0.00  0.00    +0.013 A 
ATOM      3  C   UNL     1      15.001   9.391  64.231  0.00  0.00    +0.019 A 
ATOM     38  C   UNL     1      15.141  10.635  64.973  0.00  0.00    +0.120 A 
ATOM     39  N   UNL     1      16.128  10.754  65.947  0.00  0.00    -0.263 NA
ATOM     40  C   UNL     1      17.014   9.711  66.255  0.00  0.00    +0.111 A 
ENDBRANCH   4   3
ENDBRANCH  10   9
BRANCH  12  13
ATOM     13  N   UNL     1       9.301  12.436  57.890  0.00  0.00    -0.281 N 
ATOM     14  C   UNL     1       9.061  13.715  57.416  0.00  0.00    +0.248 C 
ATOM     30  O   UNL     1       8.437  14.572  58.025  0.00  0.00    -0.270 OA
ATOM     31  H   UNL     1       9.660  11.766  57.209  0.00  0.00    +0.155 HD
BRANCH  14  15
ATOM     15  C   UNL     1       9.575  14.093  56.064  0.00  0.00    +0.037 A 
ATOM     16  C   UNL     1       8.856  15.048  55.217  0.00  0.00    +0.013 A 
ATOM     17  C   UNL     1       9.365  15.382  53.911  0.00  0.00    +0.005 A 
ATOM     18  C   UNL     1      10.602  14.761  53.444  0.00  0.00    -0.033 A 
ATOM     28  C   UNL     1      11.298  13.821  54.307  0.00  0.00    +0.005 A 
ATOM     29  C   UNL     1      10.802  13.490  55.588  0.00  0.00    +0.013 A 
BRANCH  18  19
ATOM     19  C   UNL     1      11.207  15.042  52.056  0.00  0.00    +0.119 C 
BRANCH  19  20
ATOM     20  N   UNL     1      12.634  15.482  52.008  0.00  0.00    -0.302 NA
ATOM     21  C   UNL     1      12.829  16.700  51.101  0.00  0.00    +0.066 C 
ATOM     22  C   UNL     1      14.323  17.161  51.080  0.00  0.00    -0.064 C 
ATOM     23  N   UNL     1      15.206  15.998  50.624  0.00  0.00    +0.379 N 
ATOM     24  C   UNL     1      16.605  16.444  50.548  0.00  0.00    -0.096 C 
ATOM     25  H   UNL     1      14.885  15.714  49.595  0.00  0.00    -0.082 HD
ATOM     26  C   UNL     1      15.016  14.782  51.519  0.00  0.00    -0.064 C 
ATOM     27  C   UNL     1      13.523  14.350  51.555  0.00  0.00    +0.066 C 
ENDBRANCH  19  20
ENDBRANCH  18  19
ENDBRANCH  14  15
ENDBRANCH  12  13
TORSDOF 6
ENDMDL
MODEL 3
REMARK VINA RESULT:      -8.5     32.821     35.032
REMARK  Name = C:\Users\Docking\Desktop\test protocol\1iep_ligandH.pdb
REMARK  8 active torsions:
REMARK  status: ('A' for Active; 'I' for Inactive)
REMARK    1  A    between atoms: _5  and  _11
REMARK    2  A    between atoms: _19  and  _21
REMARK    3  A    between atoms: _22  and  _66
REMARK    4  A    between atoms: _27  and  _30
REMARK    5  A    between atoms: _32  and  _33
REMARK    6  A    between atoms: _38  and  _43
REMARK    7  A    between atoms: _43  and  _46
REMARK    8  A    between atoms: _53  and  _55
REMARK                            x       y       z     vdW  Elec       q    Type
REMARK                         _______ _______ _______ _____ _____    ______ ____
ROOT
ATOM     10  C   UNL     1       9.230  14.897  52.151  0.00  0.00    +0.038 A 
ATOM     11  C   UNL     1       9.359  14.196  53.377  0.00  0.00    +0.047 A 
ATOM     12  C   UNL     1      10.667  13.841  53.906  0.00  0.00    +0.035 A 
ATOM     32  C   UNL     1      11.822  14.218  53.161  0.00  0.00    +0.024 A 
ATOM     33  C   UNL     1      11.709  14.930  51.912  0.00  0.00    +0.007 A 
ATOM     34  C   UNL     1      10.421  15.281  51.384  0.00  0.00    -0.029 A 
ATOM     35  C   UNL     1      10.359  16.039  50.038  0.00  0.00    +0.045 C 
ENDROOT
BRANCH  10   9
ATOM      4  C   UNL     1       4.960  13.664  50.338  0.00  0.00    +0.077 A 
ATOM      5  C   UNL     1       5.319  12.277  50.280  0.00  0.00    +0.048 A 
ATOM      6  C   UNL     1       6.615  11.923  50.719  0.00  0.00    +0.116 A 
ATOM      7  N   UNL     1       7.478  12.893  51.180  0.00  0.00    -0.223 NA
ATOM      8  C   UNL     1       7.100  14.222  51.222  0.00  0.00    +0.220 A 
ATOM      9  N   UNL     1       7.950  15.213  51.690  0.00  0.00    -0.283 N 
ATOM     36  H   UNL     1       7.636  16.183  51.698  0.00  0.00    +0.155 HD
ATOM     37  N   UNL     1       5.869  14.586  50.807  0.00  0.00    -0.214 NA
BRANCH   4   3
ATOM      1  C   UNL     1       2.154  15.923  48.814  0.00  0.00    +0.020 A 
ATOM      2  C   UNL     1       3.465  15.457  49.202  0.00  0.00    +0.013 A 
ATOM      3  C   UNL     1       3.626  14.195  49.913  0.00  0.00    +0.019 A 
ATOM     38  C   UNL     1       2.431  13.422  50.218  0.00  0.00    +0.120 A 
ATOM     39  N   UNL     1       1.181  13.898  49.832  0.00  0.00    -0.263 NA
ATOM     40  C   UNL     1       1.014  15.112  49.149  0.00  0.00    +0.111 A 
ENDBRANCH   4   3
ENDBRANCH  10   9
BRANCH  12  13
ATOM     13  N   UNL     1      10.861  13.122  55.141  0.00  0.00    -0.281 N 
ATOM     14  C   UNL     1      11.940  13.191  56.006  0.00  0.00    +0.248 C 
ATOM     30  O   UNL     1      13.006  13.726  55.740  0.00  0.00    -0.270 OA
ATOM     31  H   UNL     1      10.111  12.485  55.410  0.00  0.00    +0.155 HD
BRANCH  14  15
ATOM     15  C   UNL     1      11.823  12.564  57.358  0.00  0.00    +0.037 A 
ATOM     16  C   UNL     1      12.629  13.035  58.487  0.00  0.00    +0.013 A 
ATOM     17  C   UNL     1      12.510  12.401  59.775  0.00  0.00    +0.005 A 
ATOM     18  C   UNL     1      11.578  11.288  59.942  0.00  0.00    -0.033 A 
ATOM     28  C   UNL     1      10.787  10.844  58.807  0.00  0.00    +0.005 A 
ATOM     29  C   UNL     1      10.902  11.462  57.542  0.00  0.00    +0.013 A 
BRANCH  18  19
ATOM     19  C   UNL     1      11.401  10.538  61.276  0.00  0.00    +0.119 C 
BRANCH  19  20
ATOM     20  N   UNL     1      12.641  10.129  62.000  0.00  0.00    -0.302 NA
ATOM     21  C   UNL     1      13.066   8.700  61.650  0.00  0.00    +0.066 C 
ATOM     22  C   UNL     1      14.377   8.296  62.400  0.00  0.00    -0.064 C 
ATOM     23  N   UNL     1      14.166   8.444  63.907  0.00  0.00    +0.379 N 
ATOM     24  C   UNL     1      15.378   8.010  64.617  0.00  0.00    -0.096 C 
ATOM     25  H   UNL     1      13.338   7.759  64.201  0.00  0.00    -0.082 HD
ATOM     26  C   UNL     1      13.741   9.862  64.264  0.00  0.00    -0.064 C 
ATOM     27  C   UNL     1      12.453  10.263  63.491  0.00  0.00    +0.066 C 
ENDBRANCH  19  20
ENDBRANCH  18  19
ENDBRANCH  14  15
ENDBRANCH  12  13
TORSDOF 6
ENDMDL
