MODEL 1
REMARK VINA RESULT:      -6.8      0.000      0.000
REMARK  Name = C:\Users\Docking\Desktop\test protocol\1iep_ligandH.pdb
REMARK  8 active torsions:
REMARK  status: ('A' for Active; 'I' for Inactive)
REMARK    1  A    between atoms: _5  and  _11
REMARK    2  A    between atoms: _19  and  _21
REMARK    3  A    between atoms: _22  and  _66
REMARK    4  A    between atoms: _27  and  _30
REMARK    5  A    between atoms: _32  and  _33
REMARK    6  A    between atoms: _38  and  _43
REMARK    7  A    between atoms: _43  and  _46
REMARK    8  A    between atoms: _53  and  _55
REMARK                            x       y       z     vdW  Elec       q    Type
REMARK                         _______ _______ _______ _____ _____    ______ ____
ROOT
ATOM     10  C   UNL     1     -25.194  13.268 -12.833  0.00  0.00    +0.038 A 
ATOM     11  C   UNL     1     -23.894  13.397 -13.385  0.00  0.00    +0.047 A 
ATOM     12  C   UNL     1     -23.491  12.625 -14.550  0.00  0.00    +0.035 A 
ATOM     32  C   UNL     1     -24.439  11.733 -15.131  0.00  0.00    +0.024 A 
ATOM     33  C   UNL     1     -25.765  11.589 -14.582  0.00  0.00    +0.007 A 
ATOM     34  C   UNL     1     -26.167  12.346 -13.431  0.00  0.00    -0.029 A 
ATOM     35  C   UNL     1     -27.599  12.147 -12.882  0.00  0.00    +0.045 C 
ENDROOT
BRANCH  10   9
ATOM      4  C   UNL     1     -26.966  17.234 -10.793  0.00  0.00    +0.077 A 
ATOM      5  C   UNL     1     -27.226  17.844 -12.065  0.00  0.00    +0.048 A 
ATOM      6  C   UNL     1     -26.882  17.107 -13.220  0.00  0.00    +0.116 A 
ATOM      7  N   UNL     1     -26.321  15.854 -13.100  0.00  0.00    -0.223 NA
ATOM      8  C   UNL     1     -26.083  15.296 -11.858  0.00  0.00    +0.220 A 
ATOM      9  N   UNL     1     -25.527  14.034 -11.713  0.00  0.00    -0.283 N 
ATOM     36  H   UNL     1     -25.360  13.660 -10.780  0.00  0.00    +0.155 HD
ATOM     37  N   UNL     1     -26.401  15.980 -10.739  0.00  0.00    -0.214 NA
BRANCH   4   3
ATOM      1  C   UNL     1     -28.671  19.381  -8.002  0.00  0.00    +0.020 A 
ATOM      2  C   UNL     1     -28.415  18.777  -9.289  0.00  0.00    +0.013 A 
ATOM      3  C   UNL     1     -27.278  17.886  -9.481  0.00  0.00    +0.019 A 
ATOM     38  C   UNL     1     -26.413  17.624  -8.341  0.00  0.00    +0.120 A 
ATOM     39  N   UNL     1     -26.683  18.221  -7.113  0.00  0.00    -0.263 NA
ATOM     40  C   UNL     1     -27.774  19.081  -6.917  0.00  0.00    +0.111 A 
ENDBRANCH   4   3
ENDBRANCH  10   9
BRANCH  12  13
ATOM     13  N   UNL     1     -22.182  12.708 -15.149  0.00  0.00    -0.281 N 
ATOM     14  C   UNL     1     -21.613  13.786 -15.806  0.00  0.00    +0.248 C 
ATOM     30  O   UNL     1     -22.228  14.779 -16.167  0.00  0.00    -0.270 OA
ATOM     31  H   UNL     1     -21.605  11.869 -15.081  0.00  0.00    +0.155 HD
BRANCH  14  15
ATOM     15  C   UNL     1     -20.152  13.751 -16.121  0.00  0.00    +0.037 A 
ATOM     16  C   UNL     1     -19.603  14.484 -17.264  0.00  0.00    +0.013 A 
ATOM     17  C   UNL     1     -18.192  14.419 -17.555  0.00  0.00    +0.005 A 
ATOM     18  C   UNL     1     -17.321  13.619 -16.699  0.00  0.00    -0.033 A 
ATOM     28  C   UNL     1     -17.891  12.906 -15.568  0.00  0.00    +0.005 A 
ATOM     29  C   UNL     1     -19.273  12.966 -15.280  0.00  0.00    +0.013 A 
BRANCH  18  19
ATOM     19  C   UNL     1     -15.807  13.475 -16.947  0.00  0.00    +0.119 C 
BRANCH  19  20
ATOM     20  N   UNL     1     -15.366  12.390 -17.873  0.00  0.00    -0.302 NA
ATOM     21  C   UNL     1     -14.324  11.472 -17.227  0.00  0.00    +0.066 C 
ATOM     22  C   UNL     1     -13.890  10.329 -18.201  0.00  0.00    -0.064 C 
ATOM     23  N   UNL     1     -13.346  10.943 -19.492  0.00  0.00    +0.379 N 
ATOM     24  C   UNL     1     -12.883   9.872 -20.387  0.00  0.00    -0.096 C 
ATOM     25  H   UNL     1     -12.461  11.565 -19.224  0.00  0.00    -0.082 HD
ATOM     26  C   UNL     1     -14.374  11.859 -20.140  0.00  0.00    -0.064 C 
ATOM     27  C   UNL     1     -14.821  12.974 -19.153  0.00  0.00    +0.066 C 
ENDBRANCH  19  20
ENDBRANCH  18  19
ENDBRANCH  14  15
ENDBRANCH  12  13
TORSDOF 6
ENDMDL
MODEL 2
REMARK VINA RESULT:      -6.7     29.751     30.851
REMARK  Name = C:\Users\Docking\Desktop\test protocol\1iep_ligandH.pdb
REMARK  8 active torsions:
REMARK  status: ('A' for Active; 'I' for Inactive)
REMARK    1  A    between atoms: _5  and  _11
REMARK    2  A    between atoms: _19  and  _21
REMARK    3  A    between atoms: _22  and  _66
REMARK    4  A    between atoms: _27  and  _30
REMARK    5  A    between atoms: _32  and  _33
REMARK    6  A    between atoms: _38  and  _43
REMARK    7  A    between atoms: _43  and  _46
REMARK    8  A    between atoms: _53  and  _55
REMARK                            x       y       z     vdW  Elec       q    Type
REMARK                         _______ _______ _______ _____ _____    ______ ____
ROOT
ATOM     10  C   UNL     1     -16.428  -3.343  10.516  0.00  0.00    +0.038 A 
ATOM     11  C   UNL     1     -15.102  -3.410  10.016  0.00  0.00    +0.047 A 
ATOM     12  C   UNL     1     -14.381  -4.672   9.963  0.00  0.00    +0.035 A 
ATOM     32  C   UNL     1     -15.042  -5.847  10.424  0.00  0.00    +0.024 A 
ATOM     33  C   UNL     1     -16.389  -5.797  10.936  0.00  0.00    +0.007 A 
ATOM     34  C   UNL     1     -17.104  -4.555  10.994  0.00  0.00    -0.029 A 
ATOM     35  C   UNL     1     -18.544  -4.560  11.558  0.00  0.00    +0.045 C 
ENDROOT
BRANCH  10   9
ATOM      4  C   UNL     1     -17.531   0.808  12.660  0.00  0.00    +0.077 A 
ATOM      5  C   UNL     1     -16.779   0.469  13.834  0.00  0.00    +0.048 A 
ATOM      6  C   UNL     1     -16.129  -0.786  13.849  0.00  0.00    +0.116 A 
ATOM      7  N   UNL     1     -16.230  -1.630  12.765  0.00  0.00    -0.223 NA
ATOM      8  C   UNL     1     -16.965  -1.274  11.649  0.00  0.00    +0.220 A 
ATOM      9  N   UNL     1     -17.074  -2.105  10.544  0.00  0.00    -0.283 N 
ATOM     36  H   UNL     1     -17.631  -1.808   9.743  0.00  0.00    +0.155 HD
ATOM     37  N   UNL     1     -17.596  -0.082  11.610  0.00  0.00    -0.214 NA
BRANCH   4   3
ATOM      1  C   UNL     1     -20.167   3.486  11.574  0.00  0.00    +0.020 A 
ATOM      2  C   UNL     1     -19.491   2.216  11.704  0.00  0.00    +0.013 A 
ATOM      3  C   UNL     1     -18.270   2.099  12.492  0.00  0.00    +0.019 A 
ATOM     38  C   UNL     1     -17.756   3.295  13.141  0.00  0.00    +0.120 A 
ATOM     39  N   UNL     1     -18.428   4.505  12.996  0.00  0.00    -0.263 NA
ATOM     40  C   UNL     1     -19.602   4.630  12.239  0.00  0.00    +0.111 A 
ENDBRANCH   4   3
ENDBRANCH  10   9
BRANCH  12  13
ATOM     13  N   UNL     1     -13.031  -4.799   9.474  0.00  0.00    -0.281 N 
ATOM     14  C   UNL     1     -11.904  -5.194  10.177  0.00  0.00    +0.248 C 
ATOM     30  O   UNL     1     -11.848  -5.292  11.393  0.00  0.00    -0.270 OA
ATOM     31  H   UNL     1     -12.888  -4.572   8.490  0.00  0.00    +0.155 HD
BRANCH  14  15
ATOM     15  C   UNL     1     -10.655  -5.511   9.419  0.00  0.00    +0.037 A 
ATOM     16  C   UNL     1      -9.674  -6.467   9.939  0.00  0.00    +0.013 A 
ATOM     17  C   UNL     1      -8.469  -6.742   9.196  0.00  0.00    +0.005 A 
ATOM     18  C   UNL     1      -8.240  -6.061   7.925  0.00  0.00    -0.033 A 
ATOM     28  C   UNL     1      -9.233  -5.121   7.430  0.00  0.00    +0.005 A 
ATOM     29  C   UNL     1     -10.414  -4.848   8.156  0.00  0.00    +0.013 A 
BRANCH  18  19
ATOM     19  C   UNL     1      -6.973  -6.277   7.076  0.00  0.00    +0.119 C 
BRANCH  19  20
ATOM     20  N   UNL     1      -7.079  -6.014   5.610  0.00  0.00    -0.302 NA
ATOM     21  C   UNL     1      -7.710  -7.189   4.859  0.00  0.00    +0.066 C 
ATOM     22  C   UNL     1      -7.834  -6.887   3.330  0.00  0.00    -0.064 C 
ATOM     23  N   UNL     1      -6.451  -6.563   2.763  0.00  0.00    +0.379 N 
ATOM     24  C   UNL     1      -6.555  -6.335   1.315  0.00  0.00    -0.096 C 
ATOM     25  H   UNL     1      -5.803  -7.457   2.920  0.00  0.00    -0.082 HD
ATOM     26  C   UNL     1      -5.815  -5.397   3.506  0.00  0.00    -0.064 C 
ATOM     27  C   UNL     1      -5.723  -5.695   5.029  0.00  0.00    +0.066 C 
ENDBRANCH  19  20
ENDBRANCH  18  19
ENDBRANCH  14  15
ENDBRANCH  12  13
TORSDOF 6
ENDMDL
MODEL 3
REMARK VINA RESULT:      -6.6      9.909     16.708
REMARK  Name = C:\Users\Docking\Desktop\test protocol\1iep_ligandH.pdb
REMARK  8 active torsions:
REMARK  status: ('A' for Active; 'I' for Inactive)
REMARK    1  A    between atoms: _5  and  _11
REMARK    2  A    between atoms: _19  and  _21
REMARK    3  A    between atoms: _22  and  _66
REMARK    4  A    between atoms: _27  and  _30
REMARK    5  A    between atoms: _32  and  _33
REMARK    6  A    between atoms: _38  and  _43
REMARK    7  A    between atoms: _43  and  _46
REMARK    8  A    between atoms: _53  and  _55
REMARK                            x       y       z     vdW  Elec       q    Type
REMARK                         _______ _______ _______ _____ _____    ______ ____
ROOT
ATOM     10  C   UNL     1     -20.271  17.818  -4.449  0.00  0.00    +0.038 A 
ATOM     11  C   UNL     1     -20.761  16.807  -3.584  0.00  0.00    +0.047 A 
ATOM     12  C   UNL     1     -22.181  16.696  -3.284  0.00  0.00    +0.035 A 
ATOM     32  C   UNL     1     -23.073  17.631  -3.885  0.00  0.00    +0.024 A 
ATOM     33  C   UNL     1     -22.592  18.666  -4.766  0.00  0.00    +0.007 A 
ATOM     34  C   UNL     1     -21.193  18.782  -5.063  0.00  0.00    -0.029 A 
ATOM     35  C   UNL     1     -20.732  19.915  -6.009  0.00  0.00    +0.045 C 
ENDROOT
BRANCH  10   9
ATOM      4  C   UNL     1     -16.352  16.479  -6.874  0.00  0.00    +0.077 A 
ATOM      5  C   UNL     1     -17.097  15.562  -7.688  0.00  0.00    +0.048 A 
ATOM      6  C   UNL     1     -18.485  15.459  -7.446  0.00  0.00    +0.116 A 
ATOM      7  N   UNL     1     -19.074  16.222  -6.461  0.00  0.00    -0.223 NA
ATOM      8  C   UNL     1     -18.326  17.096  -5.693  0.00  0.00    +0.220 A 
ATOM      9  N   UNL     1     -18.899  17.879  -4.702  0.00  0.00    -0.283 N 
ATOM     36  H   UNL     1     -18.312  18.505  -4.152  0.00  0.00    +0.155 HD
ATOM     37  N   UNL     1     -16.998  17.211  -5.903  0.00  0.00    -0.214 NA
BRANCH   4   3
ATOM      1  C   UNL     1     -12.800  17.136  -8.374  0.00  0.00    +0.020 A 
ATOM      2  C   UNL     1     -14.227  16.925  -8.297  0.00  0.00    +0.013 A 
ATOM      3  C   UNL     1     -14.878  16.702  -7.012  0.00  0.00    +0.019 A 
ATOM     38  C   UNL     1     -14.050  16.699  -5.815  0.00  0.00    +0.120 A 
ATOM     39  N   UNL     1     -12.677  16.903  -5.921  0.00  0.00    -0.263 NA
ATOM     40  C   UNL     1     -12.040  17.117  -7.152  0.00  0.00    +0.111 A 
ENDBRANCH   4   3
ENDBRANCH  10   9
BRANCH  12  13
ATOM     13  N   UNL     1     -22.735  15.695  -2.407  0.00  0.00    -0.281 N 
ATOM     14  C   UNL     1     -22.955  15.785  -1.042  0.00  0.00    +0.248 C 
ATOM     30  O   UNL     1     -22.507  16.669  -0.327  0.00  0.00    -0.270 OA
ATOM     31  H   UNL     1     -22.999  14.812  -2.846  0.00  0.00    +0.155 HD
BRANCH  14  15
ATOM     15  C   UNL     1     -23.779  14.734  -0.372  0.00  0.00    +0.037 A 
ATOM     16  C   UNL     1     -24.251  14.901   1.005  0.00  0.00    +0.013 A 
ATOM     17  C   UNL     1     -25.030  13.864   1.634  0.00  0.00    +0.005 A 
ATOM     18  C   UNL     1     -25.344  12.651   0.884  0.00  0.00    -0.033 A 
ATOM     28  C   UNL     1     -24.868  12.513  -0.483  0.00  0.00    +0.005 A 
ATOM     29  C   UNL     1     -24.103  13.527  -1.102  0.00  0.00    +0.013 A 
BRANCH  18  19
ATOM     19  C   UNL     1     -26.152  11.484   1.482  0.00  0.00    +0.119 C 
BRANCH  19  20
ATOM     20  N   UNL     1     -27.398  11.076   0.766  0.00  0.00    -0.302 NA
ATOM     21  C   UNL     1     -28.382  12.240   0.618  0.00  0.00    +0.066 C 
ATOM     22  C   UNL     1     -29.670  11.803  -0.153  0.00  0.00    -0.064 C 
ATOM     23  N   UNL     1     -30.324  10.629   0.579  0.00  0.00    +0.379 N 
ATOM     24  C   UNL     1     -31.567  10.253  -0.111  0.00  0.00    -0.096 C 
ATOM     25  H   UNL     1     -30.598  10.979   1.601  0.00  0.00    -0.082 HD
ATOM     26  C   UNL     1     -29.352   9.469   0.732  0.00  0.00    -0.064 C 
ATOM     27  C   UNL     1     -28.063   9.922   1.474  0.00  0.00    +0.066 C 
ENDBRANCH  19  20
ENDBRANCH  18  19
ENDBRANCH  14  15
ENDBRANCH  12  13
TORSDOF 6
ENDMDL
MODEL 4
REMARK VINA RESULT:      -6.6     11.232     17.570
REMARK  Name = C:\Users\Docking\Desktop\test protocol\1iep_ligandH.pdb
REMARK  8 active torsions:
REMARK  status: ('A' for Active; 'I' for Inactive)
REMARK    1  A    between atoms: _5  and  _11
REMARK    2  A    between atoms: _19  and  _21
REMARK    3  A    between atoms: _22  and  _66
REMARK    4  A    between atoms: _27  and  _30
REMARK    5  A    between atoms: _32  and  _33
REMARK    6  A    between atoms: _38  and  _43
REMARK    7  A    between atoms: _43  and  _46
REMARK    8  A    between atoms: _53  and  _55
REMARK                            x       y       z     vdW  Elec       q    Type
REMARK                         _______ _______ _______ _____ _____    ______ ____
ROOT
ATOM     10  C   UNL     1     -22.182  17.116  -2.944  0.00  0.00    +0.038 A 
ATOM     11  C   UNL     1     -22.650  15.942  -2.302  0.00  0.00    +0.047 A 
ATOM     12  C   UNL     1     -24.073  15.666  -2.181  0.00  0.00    +0.035 A 
ATOM     32  C   UNL     1     -24.992  16.608  -2.728  0.00  0.00    +0.024 A 
ATOM     33  C   UNL     1     -24.534  17.807  -3.384  0.00  0.00    +0.007 A 
ATOM     34  C   UNL     1     -23.132  18.086  -3.504  0.00  0.00    -0.029 A 
ATOM     35  C   UNL     1     -22.697  19.391  -4.211  0.00  0.00    +0.045 C 
ENDROOT
BRANCH  10   9
ATOM      4  C   UNL     1     -17.798  15.895  -4.469  0.00  0.00    +0.077 A 
ATOM      5  C   UNL     1     -18.289  14.717  -5.123  0.00  0.00    +0.048 A 
ATOM      6  C   UNL     1     -19.675  14.457  -5.037  0.00  0.00    +0.116 A 
ATOM      7  N   UNL     1     -20.499  15.319  -4.346  0.00  0.00    -0.223 NA
ATOM      8  C   UNL     1     -19.993  16.446  -3.726  0.00  0.00    +0.220 A 
ATOM      9  N   UNL     1     -20.805  17.330  -3.032  0.00  0.00    -0.283 N 
ATOM     36  H   UNL     1     -20.391  18.147  -2.582  0.00  0.00    +0.155 HD
ATOM     37  N   UNL     1     -18.672  16.715  -3.792  0.00  0.00    -0.214 NA
BRANCH   4   3
ATOM      1  C   UNL     1     -14.260  17.092  -5.633  0.00  0.00    +0.020 A 
ATOM      2  C   UNL     1     -15.650  16.702  -5.684  0.00  0.00    +0.013 A 
ATOM      3  C   UNL     1     -16.358  16.307  -4.473  0.00  0.00    +0.019 A 
ATOM     38  C   UNL     1     -15.625  16.319  -3.216  0.00  0.00    +0.120 A 
ATOM     39  N   UNL     1     -14.287  16.698  -3.197  0.00  0.00    -0.263 NA
ATOM     40  C   UNL     1     -13.594  17.078  -4.357  0.00  0.00    +0.111 A 
ENDBRANCH   4   3
ENDBRANCH  10   9
BRANCH  12  13
ATOM     13  N   UNL     1     -24.607  14.494  -1.532  0.00  0.00    -0.281 N 
ATOM     14  C   UNL     1     -24.594  14.189  -0.181  0.00  0.00    +0.248 C 
ATOM     30  O   UNL     1     -23.928  14.780   0.656  0.00  0.00    -0.270 OA
ATOM     31  H   UNL     1     -25.048  13.807  -2.143  0.00  0.00    +0.155 HD
BRANCH  14  15
ATOM     15  C   UNL     1     -25.432  13.052   0.310  0.00  0.00    +0.037 A 
ATOM     16  C   UNL     1     -26.050  12.106  -0.622  0.00  0.00    +0.013 A 
ATOM     17  C   UNL     1     -26.867  11.028  -0.122  0.00  0.00    +0.005 A 
ATOM     18  C   UNL     1     -27.069  10.891   1.318  0.00  0.00    -0.033 A 
ATOM     28  C   UNL     1     -26.439  11.840   2.220  0.00  0.00    +0.005 A 
ATOM     29  C   UNL     1     -25.639  12.898   1.735  0.00  0.00    +0.013 A 
BRANCH  18  19
ATOM     19  C   UNL     1     -27.942   9.784   1.938  0.00  0.00    +0.119 C 
BRANCH  19  20
ATOM     20  N   UNL     1     -29.422   9.918   1.793  0.00  0.00    -0.302 NA
ATOM     21  C   UNL     1     -30.174   9.315   2.983  0.00  0.00    +0.066 C 
ATOM     22  C   UNL     1     -31.720   9.484   2.824  0.00  0.00    -0.064 C 
ATOM     23  N   UNL     1     -32.170   8.835   1.514  0.00  0.00    +0.379 N 
ATOM     24  C   UNL     1     -33.631   8.942   1.390  0.00  0.00    -0.096 C 
ATOM     25  H   UNL     1     -31.913   7.752   1.569  0.00  0.00    -0.082 HD
ATOM     26  C   UNL     1     -31.425   9.427   0.326  0.00  0.00    -0.064 C 
ATOM     27  C   UNL     1     -29.889   9.280   0.507  0.00  0.00    +0.066 C 
ENDBRANCH  19  20
ENDBRANCH  18  19
ENDBRANCH  14  15
ENDBRANCH  12  13
TORSDOF 6
ENDMDL
MODEL 5
REMARK VINA RESULT:      -6.6     14.922     20.946
REMARK  Name = C:\Users\Docking\Desktop\test protocol\1iep_ligandH.pdb
REMARK  8 active torsions:
REMARK  status: ('A' for Active; 'I' for Inactive)
REMARK    1  A    between atoms: _5  and  _11
REMARK    2  A    between atoms: _19  and  _21
REMARK    3  A    between atoms: _22  and  _66
REMARK    4  A    between atoms: _27  and  _30
REMARK    5  A    between atoms: _32  and  _33
REMARK    6  A    between atoms: _38  and  _43
REMARK    7  A    between atoms: _43  and  _46
REMARK    8  A    between atoms: _53  and  _55
REMARK                            x       y       z     vdW  Elec       q    Type
REMARK                         _______ _______ _______ _____ _____    ______ ____
ROOT
ATOM     10  C   UNL     1     -19.785  -1.424 -14.892  0.00  0.00    +0.038 A 
ATOM     11  C   UNL     1     -21.155  -1.727 -14.686  0.00  0.00    +0.047 A 
ATOM     12  C   UNL     1     -22.199  -0.786 -15.059  0.00  0.00    +0.035 A 
ATOM     32  C   UNL     1     -21.812   0.455 -15.644  0.00  0.00    +0.024 A 
ATOM     33  C   UNL     1     -20.424   0.780 -15.861  0.00  0.00    +0.007 A 
ATOM     34  C   UNL     1     -19.390  -0.144 -15.492  0.00  0.00    -0.029 A 
ATOM     35  C   UNL     1     -17.918   0.260 -15.741  0.00  0.00    +0.045 C 
ENDROOT
BRANCH  10   9
ATOM      4  C   UNL     1     -16.875  -5.120 -15.847  0.00  0.00    +0.077 A 
ATOM      5  C   UNL     1     -17.327  -5.201 -17.207  0.00  0.00    +0.048 A 
ATOM      6  C   UNL     1     -18.314  -4.277 -17.618  0.00  0.00    +0.116 A 
ATOM      7  N   UNL     1     -18.806  -3.347 -16.729  0.00  0.00    -0.223 NA
ATOM      8  C   UNL     1     -18.350  -3.297 -15.424  0.00  0.00    +0.220 A 
ATOM      9  N   UNL     1     -18.824  -2.365 -14.515  0.00  0.00    -0.283 N 
ATOM     36  H   UNL     1     -18.468  -2.366 -13.559  0.00  0.00    +0.155 HD
ATOM     37  N   UNL     1     -17.409  -4.169 -15.006  0.00  0.00    -0.214 NA
BRANCH   4   3
ATOM      1  C   UNL     1     -13.751  -6.452 -13.908  0.00  0.00    +0.020 A 
ATOM      2  C   UNL     1     -14.729  -5.537 -14.448  0.00  0.00    +0.013 A 
ATOM      3  C   UNL     1     -15.834  -6.024 -15.264  0.00  0.00    +0.019 A 
ATOM     38  C   UNL     1     -15.922  -7.455 -15.515  0.00  0.00    +0.120 A 
ATOM     39  N   UNL     1     -14.964  -8.312 -14.983  0.00  0.00    -0.263 NA
ATOM     40  C   UNL     1     -13.895  -7.855 -14.198  0.00  0.00    +0.111 A 
ENDBRANCH   4   3
ENDBRANCH  10   9
BRANCH  12  13
ATOM     13  N   UNL     1     -23.606  -1.035 -14.866  0.00  0.00    -0.281 N 
ATOM     14  C   UNL     1     -24.330  -0.961 -13.687  0.00  0.00    +0.248 C 
ATOM     30  O   UNL     1     -23.832  -0.876 -12.575  0.00  0.00    -0.270 OA
ATOM     31  H   UNL     1     -24.132  -1.299 -15.700  0.00  0.00    +0.155 HD
BRANCH  14  15
ATOM     15  C   UNL     1     -25.822  -1.002 -13.753  0.00  0.00    +0.037 A 
ATOM     16  C   UNL     1     -26.646  -0.254 -12.800  0.00  0.00    +0.013 A 
ATOM     17  C   UNL     1     -28.084  -0.324 -12.875  0.00  0.00    +0.005 A 
ATOM     18  C   UNL     1     -28.707  -1.146 -13.909  0.00  0.00    -0.033 A 
ATOM     28  C   UNL     1     -27.867  -1.874 -14.845  0.00  0.00    +0.005 A 
ATOM     29  C   UNL     1     -26.457  -1.808 -14.774  0.00  0.00    +0.013 A 
BRANCH  18  19
ATOM     19  C   UNL     1     -30.234  -1.296 -14.050  0.00  0.00    +0.119 C 
BRANCH  19  20
ATOM     20  N   UNL     1     -31.009  -0.077 -14.427  0.00  0.00    -0.302 NA
ATOM     21  C   UNL     1     -32.435  -0.109 -13.872  0.00  0.00    +0.066 C 
ATOM     22  C   UNL     1     -33.225   1.185 -14.257  0.00  0.00    -0.064 C 
ATOM     23  N   UNL     1     -33.240   1.336 -15.779  0.00  0.00    +0.379 N 
ATOM     24  C   UNL     1     -34.031   2.519 -16.146  0.00  0.00    -0.096 C 
ATOM     25  H   UNL     1     -33.753   0.441 -16.202  0.00  0.00    -0.082 HD
ATOM     26  C   UNL     1     -31.826   1.365 -16.340  0.00  0.00    -0.064 C 
ATOM     27  C   UNL     1     -31.040   0.089 -15.927  0.00  0.00    +0.066 C 
ENDBRANCH  19  20
ENDBRANCH  18  19
ENDBRANCH  14  15
ENDBRANCH  12  13
TORSDOF 6
ENDMDL
