MODEL 1
REMARK VINA RESULT:      -7.2      0.000      0.000
REMARK  Name = C:\Users\Docking\Desktop\test protocol\1iep_ligandH.pdb
REMARK  8 active torsions:
REMARK  status: ('A' for Active; 'I' for Inactive)
REMARK    1  A    between atoms: _5  and  _11
REMARK    2  A    between atoms: _19  and  _21
REMARK    3  A    between atoms: _22  and  _66
REMARK    4  A    between atoms: _27  and  _30
REMARK    5  A    between atoms: _32  and  _33
REMARK    6  A    between atoms: _38  and  _43
REMARK    7  A    between atoms: _43  and  _46
REMARK    8  A    between atoms: _53  and  _55
REMARK                            x       y       z     vdW  Elec       q    Type
REMARK                         _______ _______ _______ _____ _____    ______ ____
ROOT
ATOM     10  C   UNL     1      -1.546  -0.535  51.524  0.00  0.00    +0.038 A 
ATOM     11  C   UNL     1      -0.621  -0.037  52.477  0.00  0.00    +0.047 A 
ATOM     12  C   UNL     1      -0.912  -0.078  53.902  0.00  0.00    +0.035 A 
ATOM     32  C   UNL     1      -2.155  -0.636  54.321  0.00  0.00    +0.024 A 
ATOM     33  C   UNL     1      -3.107  -1.146  53.366  0.00  0.00    +0.007 A 
ATOM     34  C   UNL     1      -2.826  -1.106  51.959  0.00  0.00    -0.029 A 
ATOM     35  C   UNL     1      -3.887  -1.660  50.980  0.00  0.00    +0.045 C 
ENDROOT
BRANCH  10   9
ATOM      4  C   UNL     1      -0.918   1.893  47.431  0.00  0.00    +0.077 A 
ATOM      5  C   UNL     1      -1.310   3.132  48.038  0.00  0.00    +0.048 A 
ATOM      6  C   UNL     1      -1.672   3.101  49.403  0.00  0.00    +0.116 A 
ATOM      7  N   UNL     1      -1.641   1.913  50.100  0.00  0.00    -0.223 NA
ATOM      8  C   UNL     1      -1.260   0.735  49.485  0.00  0.00    +0.220 A 
ATOM      9  N   UNL     1      -1.214  -0.470  50.169  0.00  0.00    -0.283 N 
ATOM     36  H   UNL     1      -0.935  -1.319  49.677  0.00  0.00    +0.155 HD
ATOM     37  N   UNL     1      -0.911   0.738  48.182  0.00  0.00    -0.214 NA
BRANCH   4   3
ATOM      1  C   UNL     1       1.052   2.233  44.070  0.00  0.00    +0.020 A 
ATOM      2  C   UNL     1       0.698   2.389  45.461  0.00  0.00    +0.013 A 
ATOM      3  C   UNL     1      -0.505   1.764  45.998  0.00  0.00    +0.019 A 
ATOM     38  C   UNL     1      -1.333   0.981  45.093  0.00  0.00    +0.120 A 
ATOM     39  N   UNL     1      -0.967   0.850  43.757  0.00  0.00    -0.263 NA
ATOM     40  C   UNL     1       0.187   1.448  43.229  0.00  0.00    +0.111 A 
ENDBRANCH   4   3
ENDBRANCH  10   9
BRANCH  12  13
ATOM     13  N   UNL     1      -0.015   0.419  54.915  0.00  0.00    -0.281 N 
ATOM     14  C   UNL     1       1.223  -0.084  55.278  0.00  0.00    +0.248 C 
ATOM     30  O   UNL     1       1.656  -1.172  54.929  0.00  0.00    -0.270 OA
ATOM     31  H   UNL     1      -0.332   1.242  55.427  0.00  0.00    +0.155 HD
BRANCH  14  15
ATOM     15  C   UNL     1       2.103   0.734  56.168  0.00  0.00    +0.037 A 
ATOM     16  C   UNL     1       3.503   0.368  56.396  0.00  0.00    +0.013 A 
ATOM     17  C   UNL     1       4.324   1.165  57.273  0.00  0.00    +0.005 A 
ATOM     18  C   UNL     1       3.747   2.336  57.927  0.00  0.00    -0.033 A 
ATOM     28  C   UNL     1       2.356   2.679  57.678  0.00  0.00    +0.005 A 
ATOM     29  C   UNL     1       1.548   1.900  56.820  0.00  0.00    +0.013 A 
BRANCH  18  19
ATOM     19  C   UNL     1       4.543   3.232  58.895  0.00  0.00    +0.119 C 
BRANCH  19  20
ATOM     20  N   UNL     1       4.408   4.709  58.727  0.00  0.00    -0.302 NA
ATOM     21  C   UNL     1       5.323   5.248  57.623  0.00  0.00    +0.066 C 
ATOM     22  C   UNL     1       5.153   6.792  57.446  0.00  0.00    -0.064 C 
ATOM     23  N   UNL     1       5.440   7.490  58.776  0.00  0.00    +0.379 N 
ATOM     24  C   UNL     1       5.338   8.946  58.598  0.00  0.00    -0.096 C 
ATOM     25  H   UNL     1       6.493   7.257  59.059  0.00  0.00    -0.082 HD
ATOM     26  C   UNL     1       4.537   6.959  59.880  0.00  0.00    -0.064 C 
ATOM     27  C   UNL     1       4.692   5.419  60.028  0.00  0.00    +0.066 C 
ENDBRANCH  19  20
ENDBRANCH  18  19
ENDBRANCH  14  15
ENDBRANCH  12  13
TORSDOF 6
ENDMDL
MODEL 2
REMARK VINA RESULT:      -7.2      7.659     13.454
REMARK  Name = C:\Users\Docking\Desktop\test protocol\1iep_ligandH.pdb
REMARK  8 active torsions:
REMARK  status: ('A' for Active; 'I' for Inactive)
REMARK    1  A    between atoms: _5  and  _11
REMARK    2  A    between atoms: _19  and  _21
REMARK    3  A    between atoms: _22  and  _66
REMARK    4  A    between atoms: _27  and  _30
REMARK    5  A    between atoms: _32  and  _33
REMARK    6  A    between atoms: _38  and  _43
REMARK    7  A    between atoms: _43  and  _46
REMARK    8  A    between atoms: _53  and  _55
REMARK                            x       y       z     vdW  Elec       q    Type
REMARK                         _______ _______ _______ _____ _____    ______ ____
ROOT
ATOM     10  C   UNL     1       1.669  -3.562  39.739  0.00  0.00    +0.038 A 
ATOM     11  C   UNL     1       1.450  -2.323  40.393  0.00  0.00    +0.047 A 
ATOM     12  C   UNL     1       0.172  -2.018  41.018  0.00  0.00    +0.035 A 
ATOM     32  C   UNL     1      -0.860  -2.999  40.959  0.00  0.00    +0.024 A 
ATOM     33  C   UNL     1      -0.655  -4.263  40.297  0.00  0.00    +0.007 A 
ATOM     34  C   UNL     1       0.602  -4.569  39.677  0.00  0.00    -0.029 A 
ATOM     35  C   UNL     1       0.764  -5.938  38.976  0.00  0.00    +0.045 C 
ENDROOT
BRANCH  10   9
ATOM      4  C   UNL     1       4.673  -3.504  35.996  0.00  0.00    +0.077 A 
ATOM      5  C   UNL     1       3.667  -2.974  35.121  0.00  0.00    +0.048 A 
ATOM      6  C   UNL     1       2.388  -2.738  35.672  0.00  0.00    +0.116 A 
ATOM      7  N   UNL     1       2.144  -3.014  37.000  0.00  0.00    -0.223 NA
ATOM      8  C   UNL     1       3.136  -3.525  37.816  0.00  0.00    +0.220 A 
ATOM      9  N   UNL     1       2.915  -3.803  39.156  0.00  0.00    -0.283 N 
ATOM     36  H   UNL     1       3.671  -4.187  39.723  0.00  0.00    +0.155 HD
ATOM     37  N   UNL     1       4.366  -3.762  37.313  0.00  0.00    -0.214 NA
BRANCH   4   3
ATOM      1  C   UNL     1       8.250  -5.069  35.749  0.00  0.00    +0.020 A 
ATOM      2  C   UNL     1       6.903  -4.817  36.206  0.00  0.00    +0.013 A 
ATOM      3  C   UNL     1       6.075  -3.804  35.563  0.00  0.00    +0.019 A 
ATOM     38  C   UNL     1       6.645  -3.058  34.452  0.00  0.00    +0.120 A 
ATOM     39  N   UNL     1       7.946  -3.320  34.035  0.00  0.00    -0.263 NA
ATOM     40  C   UNL     1       8.752  -4.292  34.646  0.00  0.00    +0.111 A 
ENDBRANCH   4   3
ENDBRANCH  10   9
BRANCH  12  13
ATOM     13  N   UNL     1      -0.111  -0.774  41.689  0.00  0.00    -0.281 N 
ATOM     14  C   UNL     1      -1.185  -0.475  42.512  0.00  0.00    +0.248 C 
ATOM     30  O   UNL     1      -2.184  -1.171  42.625  0.00  0.00    -0.270 OA
ATOM     31  H   UNL     1       0.562  -0.022  41.540  0.00  0.00    +0.155 HD
BRANCH  14  15
ATOM     15  C   UNL     1      -1.151   0.785  43.315  0.00  0.00    +0.037 A 
ATOM     16  C   UNL     1      -2.384   1.490  43.675  0.00  0.00    +0.013 A 
ATOM     17  C   UNL     1      -2.323   2.713  44.436  0.00  0.00    +0.005 A 
ATOM     18  C   UNL     1      -1.022   3.238  44.842  0.00  0.00    -0.033 A 
ATOM     28  C   UNL     1       0.186   2.516  44.475  0.00  0.00    +0.005 A 
ATOM     29  C   UNL     1       0.129   1.318  43.729  0.00  0.00    +0.013 A 
BRANCH  18  19
ATOM     19  C   UNL     1      -0.860   4.547  45.637  0.00  0.00    +0.119 C 
BRANCH  19  20
ATOM     20  N   UNL     1      -1.229   4.519  47.084  0.00  0.00    -0.302 NA
ATOM     21  C   UNL     1      -1.121   3.111  47.677  0.00  0.00    +0.066 C 
ATOM     22  C   UNL     1      -1.489   3.104  49.196  0.00  0.00    -0.064 C 
ATOM     23  N   UNL     1      -2.902   3.661  49.378  0.00  0.00    +0.379 N 
ATOM     24  C   UNL     1      -3.274   3.602  50.800  0.00  0.00    -0.096 C 
ATOM     25  H   UNL     1      -3.602   2.998  48.818  0.00  0.00    -0.082 HD
ATOM     26  C   UNL     1      -3.020   5.060  48.789  0.00  0.00    -0.064 C 
ATOM     27  C   UNL     1      -2.623   5.061  47.286  0.00  0.00    +0.066 C 
ENDBRANCH  19  20
ENDBRANCH  18  19
ENDBRANCH  14  15
ENDBRANCH  12  13
TORSDOF 6
ENDMDL
MODEL 3
REMARK VINA RESULT:      -7.1     20.781     24.198
REMARK  Name = C:\Users\Docking\Desktop\test protocol\1iep_ligandH.pdb
REMARK  8 active torsions:
REMARK  status: ('A' for Active; 'I' for Inactive)
REMARK    1  A    between atoms: _5  and  _11
REMARK    2  A    between atoms: _19  and  _21
REMARK    3  A    between atoms: _22  and  _66
REMARK    4  A    between atoms: _27  and  _30
REMARK    5  A    between atoms: _32  and  _33
REMARK    6  A    between atoms: _38  and  _43
REMARK    7  A    between atoms: _43  and  _46
REMARK    8  A    between atoms: _53  and  _55
REMARK                            x       y       z     vdW  Elec       q    Type
REMARK                         _______ _______ _______ _____ _____    ______ ____
ROOT
ATOM     10  C   UNL     1      16.886  17.682  53.740  0.00  0.00    +0.038 A 
ATOM     11  C   UNL     1      17.206  17.210  52.441  0.00  0.00    +0.047 A 
ATOM     12  C   UNL     1      18.007  16.010  52.252  0.00  0.00    +0.035 A 
ATOM     32  C   UNL     1      18.464  15.314  53.409  0.00  0.00    +0.024 A 
ATOM     33  C   UNL     1      18.149  15.780  54.737  0.00  0.00    +0.007 A 
ATOM     34  C   UNL     1      17.361  16.964  54.929  0.00  0.00    -0.029 A 
ATOM     35  C   UNL     1      17.059  17.422  56.375  0.00  0.00    +0.045 C 
ENDROOT
BRANCH  10   9
ATOM      4  C   UNL     1      12.667  19.928  54.174  0.00  0.00    +0.077 A 
ATOM      5  C   UNL     1      11.937  18.693  54.125  0.00  0.00    +0.048 A 
ATOM      6  C   UNL     1      12.685  17.503  53.980  0.00  0.00    +0.116 A 
ATOM      7  N   UNL     1      14.060  17.556  53.892  0.00  0.00    -0.223 NA
ATOM      8  C   UNL     1      14.732  18.763  53.941  0.00  0.00    +0.220 A 
ATOM      9  N   UNL     1      16.114  18.839  53.863  0.00  0.00    -0.283 N 
ATOM     36  H   UNL     1      16.571  19.750  53.895  0.00  0.00    +0.155 HD
ATOM     37  N   UNL     1      14.040  19.914  54.077  0.00  0.00    -0.214 NA
BRANCH   4   3
ATOM      1  C   UNL     1      11.604  23.648  53.599  0.00  0.00    +0.020 A 
ATOM      2  C   UNL     1      12.255  22.373  53.406  0.00  0.00    +0.013 A 
ATOM      3  C   UNL     1      12.018  21.269  54.327  0.00  0.00    +0.019 A 
ATOM     38  C   UNL     1      11.109  21.489  55.442  0.00  0.00    +0.120 A 
ATOM     39  N   UNL     1      10.497  22.728  55.603  0.00  0.00    -0.263 NA
ATOM     40  C   UNL     1      10.719  23.798  54.724  0.00  0.00    +0.111 A 
ENDBRANCH   4   3
ENDBRANCH  10   9
BRANCH  12  13
ATOM     13  N   UNL     1      18.370  15.488  50.958  0.00  0.00    -0.281 N 
ATOM     14  C   UNL     1      19.575  15.631  50.290  0.00  0.00    +0.248 C 
ATOM     30  O   UNL     1      20.456  16.415  50.613  0.00  0.00    -0.270 OA
ATOM     31  H   UNL     1      17.652  14.948  50.477  0.00  0.00    +0.155 HD
BRANCH  14  15
ATOM     15  C   UNL     1      19.834  14.793  49.080  0.00  0.00    +0.037 A 
ATOM     16  C   UNL     1      18.771  13.987  48.473  0.00  0.00    +0.013 A 
ATOM     17  C   UNL     1      19.052  13.174  47.316  0.00  0.00    +0.005 A 
ATOM     18  C   UNL     1      20.402  13.164  46.757  0.00  0.00    -0.033 A 
ATOM     28  C   UNL     1      21.435  13.978  47.376  0.00  0.00    +0.005 A 
ATOM     29  C   UNL     1      21.164  14.775  48.511  0.00  0.00    +0.013 A 
BRANCH  18  19
ATOM     19  C   UNL     1      20.796  12.311  45.538  0.00  0.00    +0.119 C 
BRANCH  19  20
ATOM     20  N   UNL     1      21.341  10.946  45.805  0.00  0.00    -0.302 NA
ATOM     21  C   UNL     1      20.711  10.310  47.048  0.00  0.00    +0.066 C 
ATOM     22  C   UNL     1      21.276   8.874  47.301  0.00  0.00    -0.064 C 
ATOM     23  N   UNL     1      22.798   8.945  47.440  0.00  0.00    +0.379 N 
ATOM     24  C   UNL     1      23.326   7.605  47.735  0.00  0.00    -0.096 C 
ATOM     25  H   UNL     1      23.027   9.599  48.313  0.00  0.00    -0.082 HD
ATOM     26  C   UNL     1      23.431   9.578  46.209  0.00  0.00    -0.064 C 
ATOM     27  C   UNL     1      22.842  10.993  45.950  0.00  0.00    +0.066 C 
ENDBRANCH  19  20
ENDBRANCH  18  19
ENDBRANCH  14  15
ENDBRANCH  12  13
TORSDOF 6
ENDMDL
MODEL 4
REMARK VINA RESULT:      -7.0     20.608     23.926
REMARK  Name = C:\Users\Docking\Desktop\test protocol\1iep_ligandH.pdb
REMARK  8 active torsions:
REMARK  status: ('A' for Active; 'I' for Inactive)
REMARK    1  A    between atoms: _5  and  _11
REMARK    2  A    between atoms: _19  and  _21
REMARK    3  A    between atoms: _22  and  _66
REMARK    4  A    between atoms: _27  and  _30
REMARK    5  A    between atoms: _32  and  _33
REMARK    6  A    between atoms: _38  and  _43
REMARK    7  A    between atoms: _43  and  _46
REMARK    8  A    between atoms: _53  and  _55
REMARK                            x       y       z     vdW  Elec       q    Type
REMARK                         _______ _______ _______ _____ _____    ______ ____
ROOT
ATOM     10  C   UNL     1      12.606  19.215  53.821  0.00  0.00    +0.038 A 
ATOM     11  C   UNL     1      13.729  18.630  53.181  0.00  0.00    +0.047 A 
ATOM     12  C   UNL     1      14.274  17.358  53.632  0.00  0.00    +0.035 A 
ATOM     32  C   UNL     1      13.648  16.709  54.736  0.00  0.00    +0.024 A 
ATOM     33  C   UNL     1      12.507  17.290  55.398  0.00  0.00    +0.007 A 
ATOM     34  C   UNL     1      11.967  18.545  54.960  0.00  0.00    -0.029 A 
ATOM     35  C   UNL     1      10.746  19.124  55.711  0.00  0.00    +0.045 C 
ENDROOT
BRANCH  10   9
ATOM      4  C   UNL     1      12.412  24.010  53.911  0.00  0.00    +0.077 A 
ATOM      5  C   UNL     1      13.327  24.085  55.013  0.00  0.00    +0.048 A 
ATOM      6  C   UNL     1      13.819  22.867  55.533  0.00  0.00    +0.116 A 
ATOM      7  N   UNL     1      13.419  21.668  54.983  0.00  0.00    -0.223 NA
ATOM      8  C   UNL     1      12.534  21.631  53.921  0.00  0.00    +0.220 A 
ATOM      9  N   UNL     1      12.125  20.437  53.346  0.00  0.00    -0.283 N 
ATOM     36  H   UNL     1      11.465  20.452  52.569  0.00  0.00    +0.155 HD
ATOM     37  N   UNL     1      12.049  22.780  53.408  0.00  0.00    -0.214 NA
BRANCH   4   3
ATOM      1  C   UNL     1      11.840  27.089  51.567  0.00  0.00    +0.020 A 
ATOM      2  C   UNL     1      12.466  25.936  52.171  0.00  0.00    +0.013 A 
ATOM      3  C   UNL     1      11.808  25.210  53.250  0.00  0.00    +0.019 A 
ATOM     38  C   UNL     1      10.506  25.680  53.698  0.00  0.00    +0.120 A 
ATOM     39  N   UNL     1       9.927  26.794  53.098  0.00  0.00    -0.263 NA
ATOM     40  C   UNL     1      10.552  27.502  52.060  0.00  0.00    +0.111 A 
ENDBRANCH   4   3
ENDBRANCH  10   9
BRANCH  12  13
ATOM     13  N   UNL     1      15.416  16.720  53.027  0.00  0.00    -0.281 N 
ATOM     14  C   UNL     1      16.754  16.895  53.339  0.00  0.00    +0.248 C 
ATOM     30  O   UNL     1      17.187  17.793  54.046  0.00  0.00    -0.270 OA
ATOM     31  H   UNL     1      15.214  16.058  52.278  0.00  0.00    +0.155 HD
BRANCH  14  15
ATOM     15  C   UNL     1      17.759  15.945  52.772  0.00  0.00    +0.037 A 
ATOM     16  C   UNL     1      18.221  14.783  53.536  0.00  0.00    +0.013 A 
ATOM     17  C   UNL     1      19.204  13.891  52.973  0.00  0.00    +0.005 A 
ATOM     18  C   UNL     1      19.729  14.157  51.636  0.00  0.00    -0.033 A 
ATOM     28  C   UNL     1      19.249  15.314  50.898  0.00  0.00    +0.005 A 
ATOM     29  C   UNL     1      18.287  16.191  51.447  0.00  0.00    +0.013 A 
BRANCH  18  19
ATOM     19  C   UNL     1      20.795  13.271  50.965  0.00  0.00    +0.119 C 
BRANCH  19  20
ATOM     20  N   UNL     1      20.396  12.543  49.724  0.00  0.00    -0.302 NA
ATOM     21  C   UNL     1      20.562  11.027  49.869  0.00  0.00    +0.066 C 
ATOM     22  C   UNL     1      20.119  10.279  48.569  0.00  0.00    -0.064 C 
ATOM     23  N   UNL     1      20.928  10.802  47.382  0.00  0.00    +0.379 N 
ATOM     24  C   UNL     1      20.555  10.060  46.169  0.00  0.00    -0.096 C 
ATOM     25  H   UNL     1      22.004  10.594  47.588  0.00  0.00    -0.082 HD
ATOM     26  C   UNL     1      20.770  12.308  47.232  0.00  0.00    -0.064 C 
ATOM     27  C   UNL     1      21.186  13.040  48.539  0.00  0.00    +0.066 C 
ENDBRANCH  19  20
ENDBRANCH  18  19
ENDBRANCH  14  15
ENDBRANCH  12  13
TORSDOF 6
ENDMDL
MODEL 5
REMARK VINA RESULT:      -6.9     20.357     24.359
REMARK  Name = C:\Users\Docking\Desktop\test protocol\1iep_ligandH.pdb
REMARK  8 active torsions:
REMARK  status: ('A' for Active; 'I' for Inactive)
REMARK    1  A    between atoms: _5  and  _11
REMARK    2  A    between atoms: _19  and  _21
REMARK    3  A    between atoms: _22  and  _66
REMARK    4  A    between atoms: _27  and  _30
REMARK    5  A    between atoms: _32  and  _33
REMARK    6  A    between atoms: _38  and  _43
REMARK    7  A    between atoms: _43  and  _46
REMARK    8  A    between atoms: _53  and  _55
REMARK                            x       y       z     vdW  Elec       q    Type
REMARK                         _______ _______ _______ _____ _____    ______ ____
ROOT
ATOM     10  C   UNL     1      21.556  11.283  47.397  0.00  0.00    +0.038 A 
ATOM     11  C   UNL     1      21.119  11.785  48.650  0.00  0.00    +0.047 A 
ATOM     12  C   UNL     1      20.026  12.740  48.738  0.00  0.00    +0.035 A 
ATOM     32  C   UNL     1      19.398  13.161  47.530  0.00  0.00    +0.024 A 
ATOM     33  C   UNL     1      19.830  12.663  46.248  0.00  0.00    +0.007 A 
ATOM     34  C   UNL     1      20.910  11.722  46.154  0.00  0.00    -0.029 A 
ATOM     35  C   UNL     1      21.335  11.226  44.753  0.00  0.00    +0.045 C 
ENDROOT
BRANCH  10   9
ATOM      4  C   UNL     1      26.203  10.193  46.886  0.00  0.00    +0.077 A 
ATOM      5  C   UNL     1      26.555  11.559  46.623  0.00  0.00    +0.048 A 
ATOM      6  C   UNL     1      25.510  12.510  46.621  0.00  0.00    +0.116 A 
ATOM      7  N   UNL     1      24.213  12.113  46.866  0.00  0.00    -0.223 NA
ATOM      8  C   UNL     1      23.907  10.788  47.114  0.00  0.00    +0.220 A 
ATOM      9  N   UNL     1      22.611  10.368  47.370  0.00  0.00    -0.283 N 
ATOM     36  H   UNL     1      22.426   9.380  47.542  0.00  0.00    +0.155 HD
ATOM     37  N   UNL     1      24.887   9.860  47.120  0.00  0.00    -0.214 NA
BRANCH   4   3
ATOM      1  C   UNL     1      28.221   7.031  47.994  0.00  0.00    +0.020 A 
ATOM      2  C   UNL     1      27.243   8.094  48.004  0.00  0.00    +0.013 A 
ATOM      3  C   UNL     1      27.195   9.073  46.925  0.00  0.00    +0.019 A 
ATOM     38  C   UNL     1      28.158   8.946  45.841  0.00  0.00    +0.120 A 
ATOM     39  N   UNL     1      29.090   7.913  45.859  0.00  0.00    -0.263 NA
ATOM     40  C   UNL     1      29.146   6.966  46.893  0.00  0.00    +0.111 A 
ENDBRANCH   4   3
ENDBRANCH  10   9
BRANCH  12  13
ATOM     13  N   UNL     1      19.544  13.289  49.981  0.00  0.00    -0.281 N 
ATOM     14  C   UNL     1      19.834  14.526  50.534  0.00  0.00    +0.248 C 
ATOM     30  O   UNL     1      20.725  15.266  50.145  0.00  0.00    -0.270 OA
ATOM     31  H   UNL     1      18.913  12.695  50.518  0.00  0.00    +0.155 HD
BRANCH  14  15
ATOM     15  C   UNL     1      19.026  15.003  51.698  0.00  0.00    +0.037 A 
ATOM     16  C   UNL     1      18.988  14.253  52.956  0.00  0.00    +0.013 A 
ATOM     17  C   UNL     1      18.187  14.727  54.057  0.00  0.00    +0.005 A 
ATOM     18  C   UNL     1      17.418  15.960  53.904  0.00  0.00    -0.033 A 
ATOM     28  C   UNL     1      17.478  16.687  52.647  0.00  0.00    +0.005 A 
ATOM     29  C   UNL     1      18.261  16.225  51.565  0.00  0.00    +0.013 A 
BRANCH  18  19
ATOM     19  C   UNL     1      16.520  16.529  55.019  0.00  0.00    +0.119 C 
BRANCH  19  20
ATOM     20  N   UNL     1      15.253  17.199  54.600  0.00  0.00    -0.302 NA
ATOM     21  C   UNL     1      14.766  18.209  55.643  0.00  0.00    +0.066 C 
ATOM     22  C   UNL     1      13.451  18.917  55.179  0.00  0.00    -0.064 C 
ATOM     23  N   UNL     1      12.378  17.863  54.903  0.00  0.00    +0.379 N 
ATOM     24  C   UNL     1      11.123  18.529  54.522  0.00  0.00    -0.096 C 
ATOM     25  H   UNL     1      12.193  17.311  55.854  0.00  0.00    -0.082 HD
ATOM     26  C   UNL     1      12.855  16.853  53.868  0.00  0.00    -0.064 C 
ATOM     27  C   UNL     1      14.178  16.177  54.326  0.00  0.00    +0.066 C 
ENDBRANCH  19  20
ENDBRANCH  18  19
ENDBRANCH  14  15
ENDBRANCH  12  13
TORSDOF 6
ENDMDL
