MODEL 1
REMARK VINA RESULT:      -9.7      0.000      0.000
REMARK  Name = C:\Users\Docking\Desktop\test protocol\1iep_ligandH.pdb
REMARK  8 active torsions:
REMARK  status: ('A' for Active; 'I' for Inactive)
REMARK    1  A    between atoms: _5  and  _11
REMARK    2  A    between atoms: _19  and  _21
REMARK    3  A    between atoms: _22  and  _66
REMARK    4  A    between atoms: _27  and  _30
REMARK    5  A    between atoms: _32  and  _33
REMARK    6  A    between atoms: _38  and  _43
REMARK    7  A    between atoms: _43  and  _46
REMARK    8  A    between atoms: _53  and  _55
REMARK                            x       y       z     vdW  Elec       q    Type
REMARK                         _______ _______ _______ _____ _____    ______ ____
ROOT
ATOM     10  C   UNL     1      39.001   4.909   7.823  0.00  0.00    +0.038 A 
ATOM     11  C   UNL     1      40.221   4.198   7.948  0.00  0.00    +0.047 A 
ATOM     12  C   UNL     1      40.760   3.427   6.838  0.00  0.00    +0.035 A 
ATOM     32  C   UNL     1      40.030   3.406   5.614  0.00  0.00    +0.024 A 
ATOM     33  C   UNL     1      38.788   4.123   5.470  0.00  0.00    +0.007 A 
ATOM     34  C   UNL     1      38.250   4.882   6.562  0.00  0.00    -0.029 A 
ATOM     35  C   UNL     1      36.910   5.626   6.354  0.00  0.00    +0.045 C 
ENDROOT
BRANCH  10   9
ATOM      4  C   UNL     1      36.685   5.209  12.017  0.00  0.00    +0.077 A 
ATOM      5  C   UNL     1      36.363   3.811  12.006  0.00  0.00    +0.048 A 
ATOM      6  C   UNL     1      36.805   3.051  10.900  0.00  0.00    +0.116 A 
ATOM      7  N   UNL     1      37.517   3.655   9.886  0.00  0.00    -0.223 NA
ATOM      8  C   UNL     1      37.809   5.006   9.926  0.00  0.00    +0.220 A 
ATOM      9  N   UNL     1      38.530   5.633   8.922  0.00  0.00    -0.283 N 
ATOM     36  H   UNL     1      38.719   6.633   8.985  0.00  0.00    +0.155 HD
ATOM     37  N   UNL     1      37.396   5.754  10.971  0.00  0.00    -0.214 NA
BRANCH   4   3
ATOM      1  C   UNL     1      36.825   7.685  15.041  0.00  0.00    +0.020 A 
ATOM      2  C   UNL     1      37.259   6.791  13.993  0.00  0.00    +0.013 A 
ATOM      3  C   UNL     1      36.290   6.143  13.118  0.00  0.00    +0.019 A 
ATOM     38  C   UNL     1      34.878   6.423  13.333  0.00  0.00    +0.120 A 
ATOM     39  N   UNL     1      34.490   7.287  14.351  0.00  0.00    -0.263 NA
ATOM     40  C   UNL     1      35.413   7.916  15.200  0.00  0.00    +0.111 A 
ENDBRANCH   4   3
ENDBRANCH  10   9
BRANCH  12  13
ATOM     13  N   UNL     1      41.990   2.679   6.908  0.00  0.00    -0.281 N 
ATOM     14  C   UNL     1      43.284   3.170   6.972  0.00  0.00    +0.248 C 
ATOM     30  O   UNL     1      43.592   4.334   6.762  0.00  0.00    -0.270 OA
ATOM     31  H   UNL     1      41.896   1.663   6.911  0.00  0.00    +0.155 HD
BRANCH  14  15
ATOM     15  C   UNL     1      44.398   2.230   7.303  0.00  0.00    +0.037 A 
ATOM     16  C   UNL     1      44.673   1.835   8.686  0.00  0.00    +0.013 A 
ATOM     17  C   UNL     1      45.765   0.940   8.979  0.00  0.00    +0.005 A 
ATOM     18  C   UNL     1      46.588   0.433   7.885  0.00  0.00    -0.033 A 
ATOM     28  C   UNL     1      46.290   0.836   6.521  0.00  0.00    +0.005 A 
ATOM     29  C   UNL     1      45.221   1.714   6.230  0.00  0.00    +0.013 A 
BRANCH  18  19
ATOM     19  C   UNL     1      47.786  -0.510   8.107  0.00  0.00    +0.119 C 
BRANCH  19  20
ATOM     20  N   UNL     1      49.147   0.037   7.826  0.00  0.00    -0.302 NA
ATOM     21  C   UNL     1      50.242  -1.015   8.028  0.00  0.00    +0.066 C 
ATOM     22  C   UNL     1      51.657  -0.432   7.709  0.00  0.00    -0.064 C 
ATOM     23  N   UNL     1      51.913   0.791   8.590  0.00  0.00    +0.379 N 
ATOM     24  C   UNL     1      53.266   1.307   8.333  0.00  0.00    -0.096 C 
ATOM     25  H   UNL     1      51.874   0.456   9.653  0.00  0.00    -0.082 HD
ATOM     26  C   UNL     1      50.828   1.841   8.397  0.00  0.00    -0.064 C 
ATOM     27  C   UNL     1      49.423   1.244   8.689  0.00  0.00    +0.066 C 
ENDBRANCH  19  20
ENDBRANCH  18  19
ENDBRANCH  14  15
ENDBRANCH  12  13
TORSDOF 6
ENDMDL
MODEL 2
REMARK VINA RESULT:      -9.6      9.280     15.348
REMARK  Name = C:\Users\Docking\Desktop\test protocol\1iep_ligandH.pdb
REMARK  8 active torsions:
REMARK  status: ('A' for Active; 'I' for Inactive)
REMARK    1  A    between atoms: _5  and  _11
REMARK    2  A    between atoms: _19  and  _21
REMARK    3  A    between atoms: _22  and  _66
REMARK    4  A    between atoms: _27  and  _30
REMARK    5  A    between atoms: _32  and  _33
REMARK    6  A    between atoms: _38  and  _43
REMARK    7  A    between atoms: _43  and  _46
REMARK    8  A    between atoms: _53  and  _55
REMARK                            x       y       z     vdW  Elec       q    Type
REMARK                         _______ _______ _______ _____ _____    ______ ____
ROOT
ATOM     10  C   UNL     1      40.127  -3.117  18.981  0.00  0.00    +0.038 A 
ATOM     11  C   UNL     1      39.628  -2.179  18.042  0.00  0.00    +0.047 A 
ATOM     12  C   UNL     1      38.269  -1.668  18.138  0.00  0.00    +0.035 A 
ATOM     32  C   UNL     1      37.447  -2.132  19.206  0.00  0.00    +0.024 A 
ATOM     33  C   UNL     1      37.938  -3.087  20.169  0.00  0.00    +0.007 A 
ATOM     34  C   UNL     1      39.276  -3.596  20.077  0.00  0.00    -0.029 A 
ATOM     35  C   UNL     1      39.747  -4.622  21.134  0.00  0.00    +0.045 C 
ENDROOT
BRANCH  10   9
ATOM      4  C   UNL     1      44.760  -3.131  20.233  0.00  0.00    +0.077 A 
ATOM      5  C   UNL     1      44.554  -2.122  21.232  0.00  0.00    +0.048 A 
ATOM      6  C   UNL     1      43.243  -1.621  21.388  0.00  0.00    +0.116 A 
ATOM      7  N   UNL     1      42.220  -2.100  20.597  0.00  0.00    -0.223 NA
ATOM      8  C   UNL     1      42.454  -3.072  19.642  0.00  0.00    +0.220 A 
ATOM      9  N   UNL     1      41.439  -3.574  18.841  0.00  0.00    -0.283 N 
ATOM     36  H   UNL     1      41.653  -4.286  18.143  0.00  0.00    +0.155 HD
ATOM     37  N   UNL     1      43.698  -3.566  19.473  0.00  0.00    -0.214 NA
BRANCH   4   3
ATOM      1  C   UNL     1      47.717  -5.685  20.054  0.00  0.00    +0.020 A 
ATOM      2  C   UNL     1      46.419  -5.124  20.350  0.00  0.00    +0.013 A 
ATOM      3  C   UNL     1      46.089  -3.761  19.952  0.00  0.00    +0.019 A 
ATOM     38  C   UNL     1      47.102  -2.987  19.250  0.00  0.00    +0.120 A 
ATOM     39  N   UNL     1      48.344  -3.554  18.980  0.00  0.00    -0.263 NA
ATOM     40  C   UNL     1      48.673  -4.864  19.359  0.00  0.00    +0.111 A 
ENDBRANCH   4   3
ENDBRANCH  10   9
BRANCH  12  13
ATOM     13  N   UNL     1      37.705  -0.720  17.209  0.00  0.00    -0.281 N 
ATOM     14  C   UNL     1      37.415   0.617  17.427  0.00  0.00    +0.248 C 
ATOM     30  O   UNL     1      37.400   1.150  18.527  0.00  0.00    -0.270 OA
ATOM     31  H   UNL     1      37.493  -1.079  16.278  0.00  0.00    +0.155 HD
BRANCH  14  15
ATOM     15  C   UNL     1      37.081   1.483  16.256  0.00  0.00    +0.037 A 
ATOM     16  C   UNL     1      37.988   2.545  15.812  0.00  0.00    +0.013 A 
ATOM     17  C   UNL     1      37.633   3.377  14.690  0.00  0.00    +0.005 A 
ATOM     18  C   UNL     1      36.364   3.150  14.003  0.00  0.00    -0.033 A 
ATOM     28  C   UNL     1      35.485   2.087  14.461  0.00  0.00    +0.005 A 
ATOM     29  C   UNL     1      35.829   1.269  15.561  0.00  0.00    +0.013 A 
BRANCH  18  19
ATOM     19  C   UNL     1      35.894   4.004  12.810  0.00  0.00    +0.119 C 
BRANCH  19  20
ATOM     20  N   UNL     1      34.718   4.898  13.030  0.00  0.00    -0.302 NA
ATOM     21  C   UNL     1      33.525   4.504  12.155  0.00  0.00    +0.066 C 
ATOM     22  C   UNL     1      32.297   5.435  12.414  0.00  0.00    -0.064 C 
ATOM     23  N   UNL     1      32.700   6.889  12.158  0.00  0.00    +0.379 N 
ATOM     24  C   UNL     1      31.531   7.762  12.345  0.00  0.00    -0.096 C 
ATOM     25  H   UNL     1      33.015   6.969  11.092  0.00  0.00    -0.082 HD
ATOM     26  C   UNL     1      33.887   7.288  13.023  0.00  0.00    -0.064 C 
ATOM     27  C   UNL     1      35.093   6.338  12.779  0.00  0.00    +0.066 C 
ENDBRANCH  19  20
ENDBRANCH  18  19
ENDBRANCH  14  15
ENDBRANCH  12  13
TORSDOF 6
ENDMDL
MODEL 3
REMARK VINA RESULT:      -9.3      5.208      8.635
REMARK  Name = C:\Users\Docking\Desktop\test protocol\1iep_ligandH.pdb
REMARK  8 active torsions:
REMARK  status: ('A' for Active; 'I' for Inactive)
REMARK    1  A    between atoms: _5  and  _11
REMARK    2  A    between atoms: _19  and  _21
REMARK    3  A    between atoms: _22  and  _66
REMARK    4  A    between atoms: _27  and  _30
REMARK    5  A    between atoms: _32  and  _33
REMARK    6  A    between atoms: _38  and  _43
REMARK    7  A    between atoms: _43  and  _46
REMARK    8  A    between atoms: _53  and  _55
REMARK                            x       y       z     vdW  Elec       q    Type
REMARK                         _______ _______ _______ _____ _____    ______ ____
ROOT
ATOM     10  C   UNL     1      37.434   6.921   4.422  0.00  0.00    +0.038 A 
ATOM     11  C   UNL     1      38.686   6.363   4.784  0.00  0.00    +0.047 A 
ATOM     12  C   UNL     1      38.820   5.508   5.954  0.00  0.00    +0.035 A 
ATOM     32  C   UNL     1      37.655   5.241   6.731  0.00  0.00    +0.024 A 
ATOM     33  C   UNL     1      36.374   5.801   6.379  0.00  0.00    +0.007 A 
ATOM     34  C   UNL     1      36.237   6.647   5.227  0.00  0.00    -0.029 A 
ATOM     35  C   UNL     1      34.841   7.225   4.900  0.00  0.00    +0.045 C 
ENDROOT
BRANCH  10   9
ATOM      4  C   UNL     1      37.673   7.598  -0.323  0.00  0.00    +0.077 A 
ATOM      5  C   UNL     1      37.993   6.221  -0.564  0.00  0.00    +0.048 A 
ATOM      6  C   UNL     1      38.093   5.372   0.562  0.00  0.00    +0.116 A 
ATOM      7  N   UNL     1      37.887   5.875   1.828  0.00  0.00    -0.223 NA
ATOM      8  C   UNL     1      37.582   7.209   2.025  0.00  0.00    +0.220 A 
ATOM      9  N   UNL     1      37.363   7.735   3.289  0.00  0.00    -0.283 N 
ATOM     36  H   UNL     1      37.148   8.726   3.393  0.00  0.00    +0.155 HD
ATOM     37  N   UNL     1      37.482   8.040   0.967  0.00  0.00    -0.214 NA
BRANCH   4   3
ATOM      1  C   UNL     1      36.191  10.289  -2.746  0.00  0.00    +0.020 A 
ATOM      2  C   UNL     1      36.277   9.312  -1.685  0.00  0.00    +0.013 A 
ATOM      3  C   UNL     1      37.529   8.618  -1.410  0.00  0.00    +0.019 A 
ATOM     38  C   UNL     1      38.685   8.939  -2.233  0.00  0.00    +0.120 A 
ATOM     39  N   UNL     1      38.572   9.884  -3.249  0.00  0.00    -0.263 NA
ATOM     40  C   UNL     1      37.372  10.556  -3.524  0.00  0.00    +0.111 A 
ENDBRANCH   4   3
ENDBRANCH  10   9
BRANCH  12  13
ATOM     13  N   UNL     1      40.067   4.920   6.375  0.00  0.00    -0.281 N 
ATOM     14  C   UNL     1      40.708   3.812   5.844  0.00  0.00    +0.248 C 
ATOM     30  O   UNL     1      40.196   3.028   5.059  0.00  0.00    -0.270 OA
ATOM     31  H   UNL     1      40.534   5.375   7.159  0.00  0.00    +0.155 HD
BRANCH  14  15
ATOM     15  C   UNL     1      42.116   3.527   6.256  0.00  0.00    +0.037 A 
ATOM     16  C   UNL     1      42.440   2.389   7.120  0.00  0.00    +0.013 A 
ATOM     17  C   UNL     1      43.804   2.147   7.516  0.00  0.00    +0.005 A 
ATOM     18  C   UNL     1      44.857   3.044   7.046  0.00  0.00    -0.033 A 
ATOM     28  C   UNL     1      44.508   4.162   6.185  0.00  0.00    +0.005 A 
ATOM     29  C   UNL     1      43.172   4.404   5.796  0.00  0.00    +0.013 A 
BRANCH  18  19
ATOM     19  C   UNL     1      46.337   2.874   7.436  0.00  0.00    +0.119 C 
BRANCH  19  20
ATOM     20  N   UNL     1      46.841   1.479   7.613  0.00  0.00    -0.302 NA
ATOM     21  C   UNL     1      46.854   1.056   9.085  0.00  0.00    +0.066 C 
ATOM     22  C   UNL     1      47.363  -0.413   9.250  0.00  0.00    -0.064 C 
ATOM     23  N   UNL     1      48.759  -0.538   8.639  0.00  0.00    +0.379 N 
ATOM     24  C   UNL     1      49.264  -1.903   8.844  0.00  0.00    -0.096 C 
ATOM     25  H   UNL     1      49.433   0.159   9.190  0.00  0.00    -0.082 HD
ATOM     26  C   UNL     1      48.756  -0.116   7.176  0.00  0.00    -0.064 C 
ATOM     27  C   UNL     1      48.221   1.335   7.020  0.00  0.00    +0.066 C 
ENDBRANCH  19  20
ENDBRANCH  18  19
ENDBRANCH  14  15
ENDBRANCH  12  13
TORSDOF 6
ENDMDL
MODEL 4
REMARK VINA RESULT:      -9.0     14.735     21.690
REMARK  Name = C:\Users\Docking\Desktop\test protocol\1iep_ligandH.pdb
REMARK  8 active torsions:
REMARK  status: ('A' for Active; 'I' for Inactive)
REMARK    1  A    between atoms: _5  and  _11
REMARK    2  A    between atoms: _19  and  _21
REMARK    3  A    between atoms: _22  and  _66
REMARK    4  A    between atoms: _27  and  _30
REMARK    5  A    between atoms: _32  and  _33
REMARK    6  A    between atoms: _38  and  _43
REMARK    7  A    between atoms: _43  and  _46
REMARK    8  A    between atoms: _53  and  _55
REMARK                            x       y       z     vdW  Elec       q    Type
REMARK                         _______ _______ _______ _____ _____    ______ ____
ROOT
ATOM     10  C   UNL     1      34.298  17.247  16.682  0.00  0.00    +0.038 A 
ATOM     11  C   UNL     1      32.994  16.939  17.144  0.00  0.00    +0.047 A 
ATOM     12  C   UNL     1      31.907  17.899  17.028  0.00  0.00    +0.035 A 
ATOM     32  C   UNL     1      32.185  19.164  16.433  0.00  0.00    +0.024 A 
ATOM     33  C   UNL     1      33.506  19.495  15.958  0.00  0.00    +0.007 A 
ATOM     34  C   UNL     1      34.582  18.552  16.072  0.00  0.00    -0.029 A 
ATOM     35  C   UNL     1      35.979  18.963  15.552  0.00  0.00    +0.045 C 
ENDROOT
BRANCH  10   9
ATOM      4  C   UNL     1      37.546  14.860  19.288  0.00  0.00    +0.077 A 
ATOM      5  C   UNL     1      37.232  15.607  20.472  0.00  0.00    +0.048 A 
ATOM      6  C   UNL     1      36.234  16.601  20.366  0.00  0.00    +0.116 A 
ATOM      7  N   UNL     1      35.603  16.823  19.161  0.00  0.00    -0.223 NA
ATOM      8  C   UNL     1      35.931  16.087  18.038  0.00  0.00    +0.220 A 
ATOM      9  N   UNL     1      35.304  16.287  16.818  0.00  0.00    -0.283 N 
ATOM     36  H   UNL     1      35.579  15.728  16.011  0.00  0.00    +0.155 HD
ATOM     37  N   UNL     1      36.882  15.132  18.112  0.00  0.00    -0.214 NA
BRANCH   4   3
ATOM      1  C   UNL     1      39.455  11.561  18.408  0.00  0.00    +0.020 A 
ATOM      2  C   UNL     1      38.430  12.580  18.417  0.00  0.00    +0.013 A 
ATOM      3  C   UNL     1      38.576  13.774  19.240  0.00  0.00    +0.019 A 
ATOM     38  C   UNL     1      39.779  13.908  20.047  0.00  0.00    +0.120 A 
ATOM     39  N   UNL     1      40.748  12.910  20.019  0.00  0.00    -0.263 NA
ATOM     40  C   UNL     1      40.618  11.756  19.232  0.00  0.00    +0.111 A 
ENDBRANCH   4   3
ENDBRANCH  10   9
BRANCH  12  13
ATOM     13  N   UNL     1      30.564  17.645  17.488  0.00  0.00    -0.281 N 
ATOM     14  C   UNL     1      29.598  16.849  16.895  0.00  0.00    +0.248 C 
ATOM     30  O   UNL     1      29.673  16.400  15.761  0.00  0.00    -0.270 OA
ATOM     31  H   UNL     1      30.293  18.109  18.355  0.00  0.00    +0.155 HD
BRANCH  14  15
ATOM     15  C   UNL     1      28.365  16.513  17.670  0.00  0.00    +0.037 A 
ATOM     16  C   UNL     1      27.032  16.662  17.079  0.00  0.00    +0.013 A 
ATOM     17  C   UNL     1      25.858  16.348  17.853  0.00  0.00    +0.005 A 
ATOM     18  C   UNL     1      26.012  15.880  19.229  0.00  0.00    -0.033 A 
ATOM     28  C   UNL     1      27.346  15.736  19.788  0.00  0.00    +0.005 A 
ATOM     29  C   UNL     1      28.499  16.044  19.032  0.00  0.00    +0.013 A 
BRANCH  18  19
ATOM     19  C   UNL     1      24.814  15.541  20.136  0.00  0.00    +0.119 C 
BRANCH  19  20
ATOM     20  N   UNL     1      24.367  14.117  20.175  0.00  0.00    -0.302 NA
ATOM     21  C   UNL     1      25.226  13.271  21.118  0.00  0.00    +0.066 C 
ATOM     22  C   UNL     1      24.730  11.789  21.164  0.00  0.00    -0.064 C 
ATOM     23  N   UNL     1      24.743  11.205  19.750  0.00  0.00    +0.379 N 
ATOM     24  C   UNL     1      24.333   9.794  19.798  0.00  0.00    -0.096 C 
ATOM     25  H   UNL     1      25.794  11.240  19.380  0.00  0.00    -0.082 HD
ATOM     26  C   UNL     1      23.893  12.042  18.805  0.00  0.00    -0.064 C 
ATOM     27  C   UNL     1      24.376  13.520  18.789  0.00  0.00    +0.066 C 
ENDBRANCH  19  20
ENDBRANCH  18  19
ENDBRANCH  14  15
ENDBRANCH  12  13
TORSDOF 6
ENDMDL
MODEL 5
REMARK VINA RESULT:      -8.9      6.177     11.297
REMARK  Name = C:\Users\Docking\Desktop\test protocol\1iep_ligandH.pdb
REMARK  8 active torsions:
REMARK  status: ('A' for Active; 'I' for Inactive)
REMARK    1  A    between atoms: _5  and  _11
REMARK    2  A    between atoms: _19  and  _21
REMARK    3  A    between atoms: _22  and  _66
REMARK    4  A    between atoms: _27  and  _30
REMARK    5  A    between atoms: _32  and  _33
REMARK    6  A    between atoms: _38  and  _43
REMARK    7  A    between atoms: _43  and  _46
REMARK    8  A    between atoms: _53  and  _55
REMARK                            x       y       z     vdW  Elec       q    Type
REMARK                         _______ _______ _______ _____ _____    ______ ____
ROOT
ATOM     10  C   UNL     1      38.613   4.413   7.608  0.00  0.00    +0.038 A 
ATOM     11  C   UNL     1      38.122   5.027   6.427  0.00  0.00    +0.047 A 
ATOM     12  C   UNL     1      38.721   4.751   5.130  0.00  0.00    +0.035 A 
ATOM     32  C   UNL     1      39.817   3.842   5.072  0.00  0.00    +0.024 A 
ATOM     33  C   UNL     1      40.330   3.210   6.263  0.00  0.00    +0.007 A 
ATOM     34  C   UNL     1      39.745   3.481   7.545  0.00  0.00    -0.029 A 
ATOM     35  C   UNL     1      40.339   2.780   8.788  0.00  0.00    +0.045 C 
ENDROOT
BRANCH  10   9
ATOM      4  C   UNL     1      37.509   7.455  11.152  0.00  0.00    +0.077 A 
ATOM      5  C   UNL     1      38.238   8.528  10.538  0.00  0.00    +0.048 A 
ATOM      6  C   UNL     1      38.888   8.254   9.314  0.00  0.00    +0.116 A 
ATOM      7  N   UNL     1      38.809   6.997   8.755  0.00  0.00    -0.223 NA
ATOM      8  C   UNL     1      38.100   5.984   9.374  0.00  0.00    +0.220 A 
ATOM      9  N   UNL     1      38.000   4.715   8.826  0.00  0.00    -0.283 N 
ATOM     36  H   UNL     1      37.474   3.993   9.317  0.00  0.00    +0.155 HD
ATOM     37  N   UNL     1      37.471   6.220  10.545  0.00  0.00    -0.214 NA
BRANCH   4   3
ATOM      1  C   UNL     1      34.705   8.134  13.793  0.00  0.00    +0.020 A 
ATOM      2  C   UNL     1      35.376   8.021  12.519  0.00  0.00    +0.013 A 
ATOM      3  C   UNL     1      36.767   7.590  12.445  0.00  0.00    +0.019 A 
ATOM     38  C   UNL     1      37.455   7.278  13.689  0.00  0.00    +0.120 A 
ATOM     39  N   UNL     1      36.783   7.398  14.902  0.00  0.00    -0.263 NA
ATOM     40  C   UNL     1      35.445   7.813  14.985  0.00  0.00    +0.111 A 
ENDBRANCH   4   3
ENDBRANCH  10   9
BRANCH  12  13
ATOM     13  N   UNL     1      38.270   5.350   3.899  0.00  0.00    -0.281 N 
ATOM     14  C   UNL     1      37.613   6.558   3.730  0.00  0.00    +0.248 C 
ATOM     30  O   UNL     1      37.120   7.209   4.639  0.00  0.00    -0.270 OA
ATOM     31  H   UNL     1      38.459   4.820   3.048  0.00  0.00    +0.155 HD
BRANCH  14  15
ATOM     15  C   UNL     1      37.469   7.115   2.350  0.00  0.00    +0.037 A 
ATOM     16  C   UNL     1      36.149   7.369   1.767  0.00  0.00    +0.013 A 
ATOM     17  C   UNL     1      36.039   7.891   0.428  0.00  0.00    +0.005 A 
ATOM     18  C   UNL     1      37.254   8.164  -0.337  0.00  0.00    -0.033 A 
ATOM     28  C   UNL     1      38.550   7.908   0.268  0.00  0.00    +0.005 A 
ATOM     29  C   UNL     1      38.662   7.395   1.580  0.00  0.00    +0.013 A 
BRANCH  18  19
ATOM     19  C   UNL     1      37.230   8.702  -1.780  0.00  0.00    +0.119 C 
BRANCH  19  20
ATOM     20  N   UNL     1      36.758  10.104  -1.979  0.00  0.00    -0.302 NA
ATOM     21  C   UNL     1      36.049  10.286  -3.325  0.00  0.00    +0.066 C 
ATOM     22  C   UNL     1      35.542  11.754  -3.507  0.00  0.00    -0.064 C 
ATOM     23  N   UNL     1      36.722  12.718  -3.382  0.00  0.00    +0.379 N 
ATOM     24  C   UNL     1      36.258  14.094  -3.610  0.00  0.00    -0.096 C 
ATOM     25  H   UNL     1      37.450  12.468  -4.188  0.00  0.00    -0.082 HD
ATOM     26  C   UNL     1      37.434  12.542  -2.048  0.00  0.00    -0.064 C 
ATOM     27  C   UNL     1      37.908  11.074  -1.864  0.00  0.00    +0.066 C 
ENDBRANCH  19  20
ENDBRANCH  18  19
ENDBRANCH  14  15
ENDBRANCH  12  13
TORSDOF 6
ENDMDL
