MODEL 1
REMARK VINA RESULT:     -10.6      0.000      0.000
REMARK  Name = C:\Users\Docking\Desktop\test protocol\1iep_ligandH.pdb
REMARK  8 active torsions:
REMARK  status: ('A' for Active; 'I' for Inactive)
REMARK    1  A    between atoms: _5  and  _11
REMARK    2  A    between atoms: _19  and  _21
REMARK    3  A    between atoms: _22  and  _66
REMARK    4  A    between atoms: _27  and  _30
REMARK    5  A    between atoms: _32  and  _33
REMARK    6  A    between atoms: _38  and  _43
REMARK    7  A    between atoms: _43  and  _46
REMARK    8  A    between atoms: _53  and  _55
REMARK                            x       y       z     vdW  Elec       q    Type
REMARK                         _______ _______ _______ _____ _____    ______ ____
ROOT
ATOM     10  C   UNL     1      39.763   3.954   7.659  0.00  0.00    +0.038 A 
ATOM     11  C   UNL     1      39.494   4.670   8.853  0.00  0.00    +0.047 A 
ATOM     12  C   UNL     1      38.363   5.580   8.946  0.00  0.00    +0.035 A 
ATOM     32  C   UNL     1      37.526   5.737   7.804  0.00  0.00    +0.024 A 
ATOM     33  C   UNL     1      37.785   5.018   6.581  0.00  0.00    +0.007 A 
ATOM     34  C   UNL     1      38.900   4.120   6.483  0.00  0.00    -0.029 A 
ATOM     35  C   UNL     1      39.135   3.380   5.145  0.00  0.00    +0.045 C 
ENDROOT
BRANCH  10   9
ATOM      4  C   UNL     1      44.478   3.119   7.335  0.00  0.00    +0.077 A 
ATOM      5  C   UNL     1      44.776   4.515   7.195  0.00  0.00    +0.048 A 
ATOM      6  C   UNL     1      43.686   5.415   7.203  0.00  0.00    +0.116 A 
ATOM      7  N   UNL     1      42.400   4.942   7.343  0.00  0.00    -0.223 NA
ATOM      8  C   UNL     1      42.147   3.589   7.475  0.00  0.00    +0.220 A 
ATOM      9  N   UNL     1      40.862   3.092   7.625  0.00  0.00    -0.283 N 
ATOM     36  H   UNL     1      40.717   2.087   7.712  0.00  0.00    +0.155 HD
ATOM     37  N   UNL     1      43.170   2.709   7.468  0.00  0.00    -0.214 NA
BRANCH   4   3
ATOM      1  C   UNL     1      46.243  -0.372   7.361  0.00  0.00    +0.020 A 
ATOM      2  C   UNL     1      45.197   0.624   7.349  0.00  0.00    +0.013 A 
ATOM      3  C   UNL     1      45.522   2.045   7.348  0.00  0.00    +0.019 A 
ATOM     38  C   UNL     1      46.926   2.427   7.359  0.00  0.00    +0.120 A 
ATOM     39  N   UNL     1      47.911   1.445   7.372  0.00  0.00    -0.263 NA
ATOM     40  C   UNL     1      47.611   0.075   7.375  0.00  0.00    +0.111 A 
ENDBRANCH   4   3
ENDBRANCH  10   9
BRANCH  12  13
ATOM     13  N   UNL     1      38.045   6.340  10.130  0.00  0.00    -0.281 N 
ATOM     14  C   UNL     1      37.013   6.124  11.029  0.00  0.00    +0.248 C 
ATOM     30  O   UNL     1      36.073   5.368  10.833  0.00  0.00    -0.270 OA
ATOM     31  H   UNL     1      38.655   7.133  10.329  0.00  0.00    +0.155 HD
BRANCH  14  15
ATOM     15  C   UNL     1      37.019   6.866  12.326  0.00  0.00    +0.037 A 
ATOM     16  C   UNL     1      36.578   8.261  12.406  0.00  0.00    +0.013 A 
ATOM     17  C   UNL     1      36.609   8.958  13.667  0.00  0.00    +0.005 A 
ATOM     18  C   UNL     1      37.082   8.260  14.860  0.00  0.00    -0.033 A 
ATOM     28  C   UNL     1      37.509   6.875  14.753  0.00  0.00    +0.005 A 
ATOM     29  C   UNL     1      37.481   6.188  13.519  0.00  0.00    +0.013 A 
BRANCH  18  19
ATOM     19  C   UNL     1      37.170   8.933  16.243  0.00  0.00    +0.119 C 
BRANCH  19  20
ATOM     20  N   UNL     1      38.399   9.728  16.540  0.00  0.00    -0.302 NA
ATOM     21  C   UNL     1      39.436   8.913  17.318  0.00  0.00    +0.066 C 
ATOM     22  C   UNL     1      40.724   9.752  17.601  0.00  0.00    -0.064 C 
ATOM     23  N   UNL     1      40.345  11.020  18.368  0.00  0.00    +0.379 N 
ATOM     24  C   UNL     1      41.560  11.783  18.687  0.00  0.00    -0.096 C 
ATOM     25  H   UNL     1      39.880  10.706  19.332  0.00  0.00    -0.082 HD
ATOM     26  C   UNL     1      39.312  11.835  17.603  0.00  0.00    -0.064 C 
ATOM     27  C   UNL     1      38.048  10.982  17.301  0.00  0.00    +0.066 C 
ENDBRANCH  19  20
ENDBRANCH  18  19
ENDBRANCH  14  15
ENDBRANCH  12  13
TORSDOF 6
ENDMDL
MODEL 2
REMARK VINA RESULT:     -10.3      8.079     12.319
REMARK  Name = C:\Users\Docking\Desktop\test protocol\1iep_ligandH.pdb
REMARK  8 active torsions:
REMARK  status: ('A' for Active; 'I' for Inactive)
REMARK    1  A    between atoms: _5  and  _11
REMARK    2  A    between atoms: _19  and  _21
REMARK    3  A    between atoms: _22  and  _66
REMARK    4  A    between atoms: _27  and  _30
REMARK    5  A    between atoms: _32  and  _33
REMARK    6  A    between atoms: _38  and  _43
REMARK    7  A    between atoms: _43  and  _46
REMARK    8  A    between atoms: _53  and  _55
REMARK                            x       y       z     vdW  Elec       q    Type
REMARK                         _______ _______ _______ _____ _____    ______ ____
ROOT
ATOM     10  C   UNL     1      38.246  10.172  17.345  0.00  0.00    +0.038 A 
ATOM     11  C   UNL     1      38.002  11.497  17.789  0.00  0.00    +0.047 A 
ATOM     12  C   UNL     1      39.074  12.321  18.324  0.00  0.00    +0.035 A 
ATOM     32  C   UNL     1      40.385  11.765  18.389  0.00  0.00    +0.024 A 
ATOM     33  C   UNL     1      40.651  10.420  17.943  0.00  0.00    +0.007 A 
ATOM     34  C   UNL     1      39.597   9.601  17.417  0.00  0.00    -0.029 A 
ATOM     35  C   UNL     1      39.939   8.164  16.959  0.00  0.00    +0.045 C 
ENDROOT
BRANCH  10   9
ATOM      4  C   UNL     1      35.795   8.213  13.713  0.00  0.00    +0.077 A 
ATOM      5  C   UNL     1      36.701   8.745  12.736  0.00  0.00    +0.048 A 
ATOM      6  C   UNL     1      37.781   9.523  13.209  0.00  0.00    +0.116 A 
ATOM      7  N   UNL     1      37.934   9.746  14.561  0.00  0.00    -0.223 NA
ATOM      8  C   UNL     1      37.041   9.220  15.476  0.00  0.00    +0.220 A 
ATOM      9  N   UNL     1      37.180   9.425  16.840  0.00  0.00    -0.283 N 
ATOM     36  H   UNL     1      36.495   9.026  17.482  0.00  0.00    +0.155 HD
ATOM     37  N   UNL     1      36.000   8.474  15.049  0.00  0.00    -0.214 NA
BRANCH   4   3
ATOM      1  C   UNL     1      32.341   7.019  12.318  0.00  0.00    +0.020 A 
ATOM      2  C   UNL     1      33.463   7.877  12.624  0.00  0.00    +0.013 A 
ATOM      3  C   UNL     1      34.607   7.368  13.369  0.00  0.00    +0.019 A 
ATOM     38  C   UNL     1      34.586   5.977  13.793  0.00  0.00    +0.120 A 
ATOM     39  N   UNL     1      33.491   5.175  13.486  0.00  0.00    -0.263 NA
ATOM     40  C   UNL     1      32.383   5.653  12.770  0.00  0.00    +0.111 A 
ENDBRANCH   4   3
ENDBRANCH  10   9
BRANCH  12  13
ATOM     13  N   UNL     1      38.885  13.670  18.797  0.00  0.00    -0.281 N 
ATOM     14  C   UNL     1      37.918  14.581  18.406  0.00  0.00    +0.248 C 
ATOM     30  O   UNL     1      37.197  14.447  17.429  0.00  0.00    -0.270 OA
ATOM     31  H   UNL     1      39.543  13.991  19.507  0.00  0.00    +0.155 HD
BRANCH  14  15
ATOM     15  C   UNL     1      37.736  15.829  19.208  0.00  0.00    +0.037 A 
ATOM     16  C   UNL     1      36.866  16.912  18.742  0.00  0.00    +0.013 A 
ATOM     17  C   UNL     1      36.721  18.113  19.527  0.00  0.00    +0.005 A 
ATOM     18  C   UNL     1      37.449  18.236  20.788  0.00  0.00    -0.033 A 
ATOM     28  C   UNL     1      38.301  17.144  21.229  0.00  0.00    +0.005 A 
ATOM     29  C   UNL     1      38.446  15.966  20.462  0.00  0.00    +0.013 A 
BRANCH  18  19
ATOM     19  C   UNL     1      37.371  19.489  21.680  0.00  0.00    +0.119 C 
BRANCH  19  20
ATOM     20  N   UNL     1      37.915  20.762  21.119  0.00  0.00    -0.302 NA
ATOM     21  C   UNL     1      38.799  20.518  19.893  0.00  0.00    +0.066 C 
ATOM     22  C   UNL     1      39.342  21.861  19.306  0.00  0.00    -0.064 C 
ATOM     23  N   UNL     1      40.115  22.613  20.391  0.00  0.00    +0.379 N 
ATOM     24  C   UNL     1      40.676  23.850  19.826  0.00  0.00    -0.096 C 
ATOM     25  H   UNL     1      40.968  21.968  20.707  0.00  0.00    -0.082 HD
ATOM     26  C   UNL     1      39.244  22.858  21.615  0.00  0.00    -0.064 C 
ATOM     27  C   UNL     1      38.686  21.519  22.172  0.00  0.00    +0.066 C 
ENDBRANCH  19  20
ENDBRANCH  18  19
ENDBRANCH  14  15
ENDBRANCH  12  13
TORSDOF 6
ENDMDL
MODEL 3
REMARK VINA RESULT:     -10.1      3.585     11.870
REMARK  Name = C:\Users\Docking\Desktop\test protocol\1iep_ligandH.pdb
REMARK  8 active torsions:
REMARK  status: ('A' for Active; 'I' for Inactive)
REMARK    1  A    between atoms: _5  and  _11
REMARK    2  A    between atoms: _19  and  _21
REMARK    3  A    between atoms: _22  and  _66
REMARK    4  A    between atoms: _27  and  _30
REMARK    5  A    between atoms: _32  and  _33
REMARK    6  A    between atoms: _38  and  _43
REMARK    7  A    between atoms: _43  and  _46
REMARK    8  A    between atoms: _53  and  _55
REMARK                            x       y       z     vdW  Elec       q    Type
REMARK                         _______ _______ _______ _____ _____    ______ ____
ROOT
ATOM     10  C   UNL     1      36.742   8.660  13.289  0.00  0.00    +0.038 A 
ATOM     11  C   UNL     1      37.618   8.443  12.195  0.00  0.00    +0.047 A 
ATOM     12  C   UNL     1      37.382   7.368  11.244  0.00  0.00    +0.035 A 
ATOM     32  C   UNL     1      36.242   6.534  11.436  0.00  0.00    +0.024 A 
ATOM     33  C   UNL     1      35.342   6.740  12.544  0.00  0.00    +0.007 A 
ATOM     34  C   UNL     1      35.571   7.797  13.486  0.00  0.00    -0.029 A 
ATOM     35  C   UNL     1      34.576   7.967  14.658  0.00  0.00    +0.045 C 
ENDROOT
BRANCH  10   9
ATOM      4  C   UNL     1      38.834  10.439  17.225  0.00  0.00    +0.077 A 
ATOM      5  C   UNL     1      39.407   9.169  17.567  0.00  0.00    +0.048 A 
ATOM      6  C   UNL     1      39.133   8.082  16.708  0.00  0.00    +0.116 A 
ATOM      7  N   UNL     1      38.344   8.263  15.592  0.00  0.00    -0.223 NA
ATOM      8  C   UNL     1      37.806   9.500  15.293  0.00  0.00    +0.220 A 
ATOM      9  N   UNL     1      37.016   9.707  14.172  0.00  0.00    -0.283 N 
ATOM     36  H   UNL     1      36.632  10.634  13.990  0.00  0.00    +0.155 HD
ATOM     37  N   UNL     1      38.051  10.554  16.098  0.00  0.00    -0.214 NA
BRANCH   4   3
ATOM      1  C   UNL     1      40.312  13.092  19.691  0.00  0.00    +0.020 A 
ATOM      2  C   UNL     1      40.165  11.871  18.934  0.00  0.00    +0.013 A 
ATOM      3  C   UNL     1      39.034  11.684  18.033  0.00  0.00    +0.019 A 
ATOM     38  C   UNL     1      38.063  12.762  17.920  0.00  0.00    +0.120 A 
ATOM     39  N   UNL     1      38.231  13.927  18.662  0.00  0.00    -0.263 NA
ATOM     40  C   UNL     1      39.314  14.117  19.533  0.00  0.00    +0.111 A 
ENDBRANCH   4   3
ENDBRANCH  10   9
BRANCH  12  13
ATOM     13  N   UNL     1      38.241   7.094  10.119  0.00  0.00    -0.281 N 
ATOM     14  C   UNL     1      38.249   7.718   8.882  0.00  0.00    +0.248 C 
ATOM     30  O   UNL     1      37.371   8.467   8.480  0.00  0.00    -0.270 OA
ATOM     31  H   UNL     1      38.926   6.350  10.250  0.00  0.00    +0.155 HD
BRANCH  14  15
ATOM     15  C   UNL     1      39.391   7.462   7.952  0.00  0.00    +0.037 A 
ATOM     16  C   UNL     1      40.531   6.636   8.357  0.00  0.00    +0.013 A 
ATOM     17  C   UNL     1      41.627   6.419   7.446  0.00  0.00    +0.005 A 
ATOM     18  C   UNL     1      41.587   7.028   6.119  0.00  0.00    -0.033 A 
ATOM     28  C   UNL     1      40.441   7.839   5.741  0.00  0.00    +0.005 A 
ATOM     29  C   UNL     1      39.365   8.055   6.632  0.00  0.00    +0.013 A 
BRANCH  18  19
ATOM     19  C   UNL     1      42.721   6.868   5.091  0.00  0.00    +0.119 C 
BRANCH  19  20
ATOM     20  N   UNL     1      44.123   6.976   5.595  0.00  0.00    -0.302 NA
ATOM     21  C   UNL     1      44.437   8.380   6.120  0.00  0.00    +0.066 C 
ATOM     22  C   UNL     1      45.900   8.469   6.665  0.00  0.00    -0.064 C 
ATOM     23  N   UNL     1      46.879   8.073   5.559  0.00  0.00    +0.379 N 
ATOM     24  C   UNL     1      48.257   8.211   6.050  0.00  0.00    -0.096 C 
ATOM     25  H   UNL     1      46.746   8.791   4.716  0.00  0.00    -0.082 HD
ATOM     26  C   UNL     1      46.571   6.679   5.029  0.00  0.00    -0.064 C 
ATOM     27  C   UNL     1      45.106   6.593   4.517  0.00  0.00    +0.066 C 
ENDBRANCH  19  20
ENDBRANCH  18  19
ENDBRANCH  14  15
ENDBRANCH  12  13
TORSDOF 6
ENDMDL
MODEL 4
REMARK VINA RESULT:     -10.0      2.652      3.600
REMARK  Name = C:\Users\Docking\Desktop\test protocol\1iep_ligandH.pdb
REMARK  8 active torsions:
REMARK  status: ('A' for Active; 'I' for Inactive)
REMARK    1  A    between atoms: _5  and  _11
REMARK    2  A    between atoms: _19  and  _21
REMARK    3  A    between atoms: _22  and  _66
REMARK    4  A    between atoms: _27  and  _30
REMARK    5  A    between atoms: _32  and  _33
REMARK    6  A    between atoms: _38  and  _43
REMARK    7  A    between atoms: _43  and  _46
REMARK    8  A    between atoms: _53  and  _55
REMARK                            x       y       z     vdW  Elec       q    Type
REMARK                         _______ _______ _______ _____ _____    ______ ____
ROOT
ATOM     10  C   UNL     1      38.928   6.423   7.608  0.00  0.00    +0.038 A 
ATOM     11  C   UNL     1      38.760   7.034   8.877  0.00  0.00    +0.047 A 
ATOM     12  C   UNL     1      37.701   6.614   9.781  0.00  0.00    +0.035 A 
ATOM     32  C   UNL     1      36.831   5.566   9.361  0.00  0.00    +0.024 A 
ATOM     33  C   UNL     1      36.986   4.934   8.074  0.00  0.00    +0.007 A 
ATOM     34  C   UNL     1      38.028   5.346   7.177  0.00  0.00    -0.029 A 
ATOM     35  C   UNL     1      38.144   4.638   5.807  0.00  0.00    +0.045 C 
ENDROOT
BRANCH  10   9
ATOM      4  C   UNL     1      43.511   6.404   6.182  0.00  0.00    +0.077 A 
ATOM      5  C   UNL     1      43.882   5.451   7.188  0.00  0.00    +0.048 A 
ATOM      6  C   UNL     1      42.865   4.996   8.058  0.00  0.00    +0.116 A 
ATOM      7  N   UNL     1      41.577   5.466   7.921  0.00  0.00    -0.223 NA
ATOM      8  C   UNL     1      41.253   6.386   6.941  0.00  0.00    +0.220 A 
ATOM      9  N   UNL     1      39.962   6.866   6.781  0.00  0.00    -0.283 N 
ATOM     36  H   UNL     1      39.766   7.550   6.050  0.00  0.00    +0.155 HD
ATOM     37  N   UNL     1      42.206   6.837   6.100  0.00  0.00    -0.214 NA
BRANCH   4   3
ATOM      1  C   UNL     1      45.124   7.667   2.850  0.00  0.00    +0.020 A 
ATOM      2  C   UNL     1      44.160   7.107   3.769  0.00  0.00    +0.013 A 
ATOM      3  C   UNL     1      44.472   6.977   5.187  0.00  0.00    +0.019 A 
ATOM     38  C   UNL     1      45.777   7.427   5.646  0.00  0.00    +0.120 A 
ATOM     39  N   UNL     1      46.686   7.961   4.738  0.00  0.00    -0.263 NA
ATOM     40  C   UNL     1      46.398   8.090   3.371  0.00  0.00    +0.111 A 
ENDBRANCH   4   3
ENDBRANCH  10   9
BRANCH  12  13
ATOM     13  N   UNL     1      37.477   7.203  11.078  0.00  0.00    -0.281 N 
ATOM     14  C   UNL     1      37.310   6.554  12.290  0.00  0.00    +0.248 C 
ATOM     30  O   UNL     1      37.113   5.354  12.411  0.00  0.00    -0.270 OA
ATOM     31  H   UNL     1      37.437   8.222  11.106  0.00  0.00    +0.155 HD
BRANCH  14  15
ATOM     15  C   UNL     1      37.353   7.356  13.551  0.00  0.00    +0.037 A 
ATOM     16  C   UNL     1      37.599   6.721  14.848  0.00  0.00    +0.013 A 
ATOM     17  C   UNL     1      37.619   7.516  16.050  0.00  0.00    +0.005 A 
ATOM     18  C   UNL     1      37.391   8.956  15.960  0.00  0.00    -0.033 A 
ATOM     28  C   UNL     1      37.154   9.561  14.660  0.00  0.00    +0.005 A 
ATOM     29  C   UNL     1      37.134   8.785  13.479  0.00  0.00    +0.013 A 
BRANCH  18  19
ATOM     19  C   UNL     1      37.373   9.879  17.193  0.00  0.00    +0.119 C 
BRANCH  19  20
ATOM     20  N   UNL     1      38.565  10.751  17.412  0.00  0.00    -0.302 NA
ATOM     21  C   UNL     1      39.844   9.935  17.624  0.00  0.00    +0.066 C 
ATOM     22  C   UNL     1      41.084  10.864  17.829  0.00  0.00    -0.064 C 
ATOM     23  N   UNL     1      40.832  11.793  19.017  0.00  0.00    +0.379 N 
ATOM     24  C   UNL     1      42.020  12.628  19.249  0.00  0.00    -0.096 C 
ATOM     25  H   UNL     1      40.686  11.155  19.920  0.00  0.00    -0.082 HD
ATOM     26  C   UNL     1      39.561  12.606  18.816  0.00  0.00    -0.064 C 
ATOM     27  C   UNL     1      38.339  11.674  18.584  0.00  0.00    +0.066 C 
ENDBRANCH  19  20
ENDBRANCH  18  19
ENDBRANCH  14  15
ENDBRANCH  12  13
TORSDOF 6
ENDMDL
MODEL 5
REMARK VINA RESULT:     -10.0      4.572     12.543
REMARK  Name = C:\Users\Docking\Desktop\test protocol\1iep_ligandH.pdb
REMARK  8 active torsions:
REMARK  status: ('A' for Active; 'I' for Inactive)
REMARK    1  A    between atoms: _5  and  _11
REMARK    2  A    between atoms: _19  and  _21
REMARK    3  A    between atoms: _22  and  _66
REMARK    4  A    between atoms: _27  and  _30
REMARK    5  A    between atoms: _32  and  _33
REMARK    6  A    between atoms: _38  and  _43
REMARK    7  A    between atoms: _43  and  _46
REMARK    8  A    between atoms: _53  and  _55
REMARK                            x       y       z     vdW  Elec       q    Type
REMARK                         _______ _______ _______ _____ _____    ______ ____
ROOT
ATOM     10  C   UNL     1      36.686   8.771  13.372  0.00  0.00    +0.038 A 
ATOM     11  C   UNL     1      37.448   8.678  12.179  0.00  0.00    +0.047 A 
ATOM     12  C   UNL     1      37.201   7.622  11.209  0.00  0.00    +0.035 A 
ATOM     32  C   UNL     1      36.168   6.679  11.485  0.00  0.00    +0.024 A 
ATOM     33  C   UNL     1      35.385   6.758  12.693  0.00  0.00    +0.007 A 
ATOM     34  C   UNL     1      35.626   7.796  13.655  0.00  0.00    -0.029 A 
ATOM     35  C   UNL     1      34.760   7.828  14.936  0.00  0.00    +0.045 C 
ENDROOT
BRANCH  10   9
ATOM      4  C   UNL     1      38.864  10.512  17.279  0.00  0.00    +0.077 A 
ATOM      5  C   UNL     1      39.476   9.248  17.573  0.00  0.00    +0.048 A 
ATOM      6  C   UNL     1      39.198   8.173  16.699  0.00  0.00    +0.116 A 
ATOM      7  N   UNL     1      38.370   8.360  15.614  0.00  0.00    -0.223 NA
ATOM      8  C   UNL     1      37.795   9.592  15.359  0.00  0.00    +0.220 A 
ATOM      9  N   UNL     1      36.966   9.804  14.269  0.00  0.00    -0.283 N 
ATOM     36  H   UNL     1      36.555  10.726  14.120  0.00  0.00    +0.155 HD
ATOM     37  N   UNL     1      38.044  10.633  16.180  0.00  0.00    -0.214 NA
BRANCH   4   3
ATOM      1  C   UNL     1      38.362  14.023  18.928  0.00  0.00    +0.020 A 
ATOM      2  C   UNL     1      38.123  12.857  18.109  0.00  0.00    +0.013 A 
ATOM      3  C   UNL     1      39.063  11.743  18.107  0.00  0.00    +0.019 A 
ATOM     38  C   UNL     1      40.244  11.841  18.952  0.00  0.00    +0.120 A 
ATOM     39  N   UNL     1      40.449  12.977  19.728  0.00  0.00    -0.263 NA
ATOM     40  C   UNL     1      39.552  14.056  19.737  0.00  0.00    +0.111 A 
ENDBRANCH   4   3
ENDBRANCH  10   9
BRANCH  12  13
ATOM     13  N   UNL     1      37.947   7.473   9.984  0.00  0.00    -0.281 N 
ATOM     14  C   UNL     1      38.336   6.298   9.362  0.00  0.00    +0.248 C 
ATOM     30  O   UNL     1      38.285   5.192   9.880  0.00  0.00    -0.270 OA
ATOM     31  H   UNL     1      38.221   8.339   9.519  0.00  0.00    +0.155 HD
BRANCH  14  15
ATOM     15  C   UNL     1      38.873   6.363   7.969  0.00  0.00    +0.037 A 
ATOM     16  C   UNL     1      39.651   7.514   7.507  0.00  0.00    +0.013 A 
ATOM     17  C   UNL     1      40.143   7.559   6.152  0.00  0.00    +0.005 A 
ATOM     18  C   UNL     1      39.858   6.446   5.250  0.00  0.00    -0.033 A 
ATOM     28  C   UNL     1      39.088   5.313   5.736  0.00  0.00    +0.005 A 
ATOM     29  C   UNL     1      38.603   5.267   7.062  0.00  0.00    +0.013 A 
BRANCH  18  19
ATOM     19  C   UNL     1      40.325   6.418   3.783  0.00  0.00    +0.119 C 
BRANCH  19  20
ATOM     20  N   UNL     1      39.273   6.533   2.728  0.00  0.00    -0.302 NA
ATOM     21  C   UNL     1      39.829   7.110   1.423  0.00  0.00    +0.066 C 
ATOM     22  C   UNL     1      38.721   7.202   0.324  0.00  0.00    -0.064 C 
ATOM     23  N   UNL     1      37.562   8.055   0.843  0.00  0.00    +0.379 N 
ATOM     24  C   UNL     1      36.544   8.191  -0.209  0.00  0.00    -0.096 C 
ATOM     25  H   UNL     1      37.962   9.072   1.061  0.00  0.00    -0.082 HD
ATOM     26  C   UNL     1      37.005   7.490   2.142  0.00  0.00    -0.064 C 
ATOM     27  C   UNL     1      38.121   7.375   3.218  0.00  0.00    +0.066 C 
ENDBRANCH  19  20
ENDBRANCH  18  19
ENDBRANCH  14  15
ENDBRANCH  12  13
TORSDOF 6
ENDMDL
