MODEL 1
REMARK VINA RESULT:      -9.3      0.000      0.000
REMARK  Name = C:\Users\Docking\Desktop\test protocol\1iep_ligandH.pdb
REMARK  8 active torsions:
REMARK  status: ('A' for Active; 'I' for Inactive)
REMARK    1  A    between atoms: _5  and  _11
REMARK    2  A    between atoms: _19  and  _21
REMARK    3  A    between atoms: _22  and  _66
REMARK    4  A    between atoms: _27  and  _30
REMARK    5  A    between atoms: _32  and  _33
REMARK    6  A    between atoms: _38  and  _43
REMARK    7  A    between atoms: _43  and  _46
REMARK    8  A    between atoms: _53  and  _55
REMARK                            x       y       z     vdW  Elec       q    Type
REMARK                         _______ _______ _______ _____ _____    ______ ____
ROOT
ATOM     10  C   UNL     1     -23.496 -20.344   1.983  0.00  0.00    +0.038 A 
ATOM     11  C   UNL     1     -23.606 -19.981   3.350  0.00  0.00    +0.047 A 
ATOM     12  C   UNL     1     -23.363 -18.616   3.789  0.00  0.00    +0.035 A 
ATOM     32  C   UNL     1     -23.012 -17.644   2.807  0.00  0.00    +0.024 A 
ATOM     33  C   UNL     1     -22.894 -17.995   1.414  0.00  0.00    +0.007 A 
ATOM     34  C   UNL     1     -23.130 -19.341   0.976  0.00  0.00    -0.029 A 
ATOM     35  C   UNL     1     -22.983 -19.662  -0.530  0.00  0.00    +0.045 C 
ENDROOT
BRANCH  10   9
ATOM      4  C   UNL     1     -26.072 -24.388   2.201  0.00  0.00    +0.077 A 
ATOM      5  C   UNL     1     -26.993 -23.820   3.142  0.00  0.00    +0.048 A 
ATOM      6  C   UNL     1     -26.765 -22.487   3.551  0.00  0.00    +0.116 A 
ATOM      7  N   UNL     1     -25.692 -21.783   3.048  0.00  0.00    -0.223 NA
ATOM      8  C   UNL     1     -24.821 -22.361   2.142  0.00  0.00    +0.220 A 
ATOM      9  N   UNL     1     -23.740 -21.669   1.618  0.00  0.00    -0.283 N 
ATOM     36  H   UNL     1     -23.117 -22.134   0.958  0.00  0.00    +0.155 HD
ATOM     37  N   UNL     1     -25.017 -23.633   1.738  0.00  0.00    -0.214 NA
BRANCH   4   3
ATOM      1  C   UNL     1     -26.987 -28.170   1.808  0.00  0.00    +0.020 A 
ATOM      2  C   UNL     1     -26.912 -26.838   2.363  0.00  0.00    +0.013 A 
ATOM      3  C   UNL     1     -26.182 -25.784   1.671  0.00  0.00    +0.019 A 
ATOM     38  C   UNL     1     -25.535 -26.112   0.409  0.00  0.00    +0.120 A 
ATOM     39  N   UNL     1     -25.624 -27.403  -0.100  0.00  0.00    -0.263 NA
ATOM     40  C   UNL     1     -26.322 -28.427   0.558  0.00  0.00    +0.111 A 
ENDBRANCH   4   3
ENDBRANCH  10   9
BRANCH  12  13
ATOM     13  N   UNL     1     -23.453 -18.191   5.163  0.00  0.00    -0.281 N 
ATOM     14  C   UNL     1     -24.558 -17.686   5.829  0.00  0.00    +0.248 C 
ATOM     30  O   UNL     1     -25.588 -17.322   5.281  0.00  0.00    -0.270 OA
ATOM     31  H   UNL     1     -22.597 -18.272   5.713  0.00  0.00    +0.155 HD
BRANCH  14  15
ATOM     15  C   UNL     1     -24.507 -17.554   7.317  0.00  0.00    +0.037 A 
ATOM     16  C   UNL     1     -25.678 -17.846   8.147  0.00  0.00    +0.013 A 
ATOM     17  C   UNL     1     -25.607 -17.694   9.578  0.00  0.00    +0.005 A 
ATOM     18  C   UNL     1     -24.357 -17.247  10.189  0.00  0.00    -0.033 A 
ATOM     28  C   UNL     1     -23.209 -16.969   9.343  0.00  0.00    +0.005 A 
ATOM     29  C   UNL     1     -23.275 -17.117   7.939  0.00  0.00    +0.013 A 
BRANCH  18  19
ATOM     19  C   UNL     1     -24.196 -17.037  11.707  0.00  0.00    +0.119 C 
BRANCH  19  20
ATOM     20  N   UNL     1     -23.386 -18.044  12.455  0.00  0.00    -0.302 NA
ATOM     21  C   UNL     1     -21.968 -17.543  12.739  0.00  0.00    +0.066 C 
ATOM     22  C   UNL     1     -21.141 -18.600  13.542  0.00  0.00    -0.064 C 
ATOM     23  N   UNL     1     -21.105 -19.915  12.762  0.00  0.00    +0.379 N 
ATOM     24  C   UNL     1     -20.280 -20.893  13.486  0.00  0.00    -0.096 C 
ATOM     25  H   UNL     1     -20.610 -19.713  11.783  0.00  0.00    -0.082 HD
ATOM     26  C   UNL     1     -22.512 -20.419  12.472  0.00  0.00    -0.064 C 
ATOM     27  C   UNL     1     -23.334 -19.349  11.699  0.00  0.00    +0.066 C 
ENDBRANCH  19  20
ENDBRANCH  18  19
ENDBRANCH  14  15
ENDBRANCH  12  13
TORSDOF 6
ENDMDL
MODEL 2
REMARK VINA RESULT:      -9.0      4.029      5.176
REMARK  Name = C:\Users\Docking\Desktop\test protocol\1iep_ligandH.pdb
REMARK  8 active torsions:
REMARK  status: ('A' for Active; 'I' for Inactive)
REMARK    1  A    between atoms: _5  and  _11
REMARK    2  A    between atoms: _19  and  _21
REMARK    3  A    between atoms: _22  and  _66
REMARK    4  A    between atoms: _27  and  _30
REMARK    5  A    between atoms: _32  and  _33
REMARK    6  A    between atoms: _38  and  _43
REMARK    7  A    between atoms: _43  and  _46
REMARK    8  A    between atoms: _53  and  _55
REMARK                            x       y       z     vdW  Elec       q    Type
REMARK                         _______ _______ _______ _____ _____    ______ ____
ROOT
ATOM     10  C   UNL     1     -22.213 -22.980   0.537  0.00  0.00    +0.038 A 
ATOM     11  C   UNL     1     -22.901 -21.835   1.016  0.00  0.00    +0.047 A 
ATOM     12  C   UNL     1     -22.186 -20.616   1.359  0.00  0.00    +0.035 A 
ATOM     32  C   UNL     1     -20.769 -20.596   1.200  0.00  0.00    +0.024 A 
ATOM     33  C   UNL     1     -20.054 -21.750   0.716  0.00  0.00    +0.007 A 
ATOM     34  C   UNL     1     -20.754 -22.957   0.378  0.00  0.00    -0.029 A 
ATOM     35  C   UNL     1     -19.935 -24.166  -0.130  0.00  0.00    +0.045 C 
ENDROOT
BRANCH  10   9
ATOM      4  C   UNL     1     -25.771 -26.088   1.383  0.00  0.00    +0.077 A 
ATOM      5  C   UNL     1     -26.180 -25.389   2.567  0.00  0.00    +0.048 A 
ATOM      6  C   UNL     1     -25.444 -24.238   2.928  0.00  0.00    +0.116 A 
ATOM      7  N   UNL     1     -24.380 -23.826   2.155  0.00  0.00    -0.223 NA
ATOM      8  C   UNL     1     -24.011 -24.524   1.020  0.00  0.00    +0.220 A 
ATOM      9  N   UNL     1     -22.950 -24.124   0.223  0.00  0.00    -0.283 N 
ATOM     36  H   UNL     1     -22.704 -24.670  -0.602  0.00  0.00    +0.155 HD
ATOM     37  N   UNL     1     -24.697 -25.627   0.655  0.00  0.00    -0.214 NA
BRANCH   4   3
ATOM      1  C   UNL     1     -27.573 -29.555   1.198  0.00  0.00    +0.020 A 
ATOM      2  C   UNL     1     -26.922 -28.386   1.744  0.00  0.00    +0.013 A 
ATOM      3  C   UNL     1     -26.451 -27.319   0.870  0.00  0.00    +0.019 A 
ATOM     38  C   UNL     1     -26.657 -27.466  -0.563  0.00  0.00    +0.120 A 
ATOM     39  N   UNL     1     -27.286 -28.603  -1.060  0.00  0.00    -0.263 NA
ATOM     40  C   UNL     1     -27.742 -29.637  -0.229  0.00  0.00    +0.111 A 
ENDBRANCH   4   3
ENDBRANCH  10   9
BRANCH  12  13
ATOM     13  N   UNL     1     -22.830 -19.426   1.858  0.00  0.00    -0.281 N 
ATOM     14  C   UNL     1     -23.670 -19.307   2.952  0.00  0.00    +0.248 C 
ATOM     30  O   UNL     1     -24.169 -20.252   3.547  0.00  0.00    -0.270 OA
ATOM     31  H   UNL     1     -22.643 -18.567   1.341  0.00  0.00    +0.155 HD
BRANCH  14  15
ATOM     15  C   UNL     1     -24.019 -17.942   3.450  0.00  0.00    +0.037 A 
ATOM     16  C   UNL     1     -23.484 -16.739   2.807  0.00  0.00    +0.013 A 
ATOM     17  C   UNL     1     -23.822 -15.434   3.318  0.00  0.00    +0.005 A 
ATOM     18  C   UNL     1     -24.703 -15.326   4.479  0.00  0.00    -0.033 A 
ATOM     28  C   UNL     1     -25.223 -16.536   5.095  0.00  0.00    +0.005 A 
ATOM     29  C   UNL     1     -24.893 -17.816   4.597  0.00  0.00    +0.013 A 
BRANCH  18  19
ATOM     19  C   UNL     1     -25.100 -13.976   5.105  0.00  0.00    +0.119 C 
BRANCH  19  20
ATOM     20  N   UNL     1     -24.274 -13.482   6.246  0.00  0.00    -0.302 NA
ATOM     21  C   UNL     1     -24.757 -14.038   7.589  0.00  0.00    +0.066 C 
ATOM     22  C   UNL     1     -23.867 -13.528   8.769  0.00  0.00    -0.064 C 
ATOM     23  N   UNL     1     -23.871 -11.999   8.784  0.00  0.00    +0.379 N 
ATOM     24  C   UNL     1     -23.082 -11.517   9.927  0.00  0.00    -0.096 C 
ATOM     25  H   UNL     1     -24.924 -11.665   8.934  0.00  0.00    -0.082 HD
ATOM     26  C   UNL     1     -23.394 -11.438   7.451  0.00  0.00    -0.064 C 
ATOM     27  C   UNL     1     -24.267 -11.973   6.282  0.00  0.00    +0.066 C 
ENDBRANCH  19  20
ENDBRANCH  18  19
ENDBRANCH  14  15
ENDBRANCH  12  13
TORSDOF 6
ENDMDL
MODEL 3
REMARK VINA RESULT:      -8.5     21.927     26.031
REMARK  Name = C:\Users\Docking\Desktop\test protocol\1iep_ligandH.pdb
REMARK  8 active torsions:
REMARK  status: ('A' for Active; 'I' for Inactive)
REMARK    1  A    between atoms: _5  and  _11
REMARK    2  A    between atoms: _19  and  _21
REMARK    3  A    between atoms: _22  and  _66
REMARK    4  A    between atoms: _27  and  _30
REMARK    5  A    between atoms: _32  and  _33
REMARK    6  A    between atoms: _38  and  _43
REMARK    7  A    between atoms: _43  and  _46
REMARK    8  A    between atoms: _53  and  _55
REMARK                            x       y       z     vdW  Elec       q    Type
REMARK                         _______ _______ _______ _____ _____    ______ ____
ROOT
ATOM     10  C   UNL     1      -6.731 -18.866  22.274  0.00  0.00    +0.038 A 
ATOM     11  C   UNL     1      -6.950 -17.781  21.387  0.00  0.00    +0.047 A 
ATOM     12  C   UNL     1      -6.431 -17.804  20.028  0.00  0.00    +0.035 A 
ATOM     32  C   UNL     1      -5.695 -18.949  19.605  0.00  0.00    +0.024 A 
ATOM     33  C   UNL     1      -5.461 -20.059  20.494  0.00  0.00    +0.007 A 
ATOM     34  C   UNL     1      -5.969 -20.041  21.836  0.00  0.00    -0.029 A 
ATOM     35  C   UNL     1      -5.683 -21.257  22.748  0.00  0.00    +0.045 C 
ENDROOT
BRANCH  10   9
ATOM      4  C   UNL     1      -7.104 -16.763  26.572  0.00  0.00    +0.077 A 
ATOM      5  C   UNL     1      -6.160 -15.742  26.221  0.00  0.00    +0.048 A 
ATOM      6  C   UNL     1      -5.596 -15.797  24.926  0.00  0.00    +0.116 A 
ATOM      7  N   UNL     1      -5.957 -16.804  24.057  0.00  0.00    -0.223 NA
ATOM      8  C   UNL     1      -6.869 -17.774  24.429  0.00  0.00    +0.220 A 
ATOM      9  N   UNL     1      -7.252 -18.791  23.568  0.00  0.00    -0.283 N 
ATOM     36  H   UNL     1      -7.923 -19.492  23.882  0.00  0.00    +0.155 HD
ATOM     37  N   UNL     1      -7.421 -17.744  25.660  0.00  0.00    -0.214 NA
BRANCH   4   3
ATOM      1  C   UNL     1      -8.118 -16.099  30.292  0.00  0.00    +0.020 A 
ATOM      2  C   UNL     1      -7.425 -15.988  29.029  0.00  0.00    +0.013 A 
ATOM      3  C   UNL     1      -7.788 -16.838  27.902  0.00  0.00    +0.019 A 
ATOM     38  C   UNL     1      -8.867 -17.797  28.087  0.00  0.00    +0.120 A 
ATOM     39  N   UNL     1      -9.515 -17.883  29.315  0.00  0.00    -0.263 NA
ATOM     40  C   UNL     1      -9.173 -17.072  30.407  0.00  0.00    +0.111 A 
ENDBRANCH   4   3
ENDBRANCH  10   9
BRANCH  12  13
ATOM     13  N   UNL     1      -6.615 -16.729  19.085  0.00  0.00    -0.281 N 
ATOM     14  C   UNL     1      -7.795 -16.087  18.744  0.00  0.00    +0.248 C 
ATOM     30  O   UNL     1      -8.910 -16.487  19.044  0.00  0.00    -0.270 OA
ATOM     31  H   UNL     1      -5.774 -16.401  18.611  0.00  0.00    +0.155 HD
BRANCH  14  15
ATOM     15  C   UNL     1      -7.727 -14.828  17.943  0.00  0.00    +0.037 A 
ATOM     16  C   UNL     1      -6.523 -14.472  17.188  0.00  0.00    +0.013 A 
ATOM     17  C   UNL     1      -6.477 -13.242  16.436  0.00  0.00    +0.005 A 
ATOM     18  C   UNL     1      -7.641 -12.360  16.436  0.00  0.00    -0.033 A 
ATOM     28  C   UNL     1      -8.825 -12.740  17.190  0.00  0.00    +0.005 A 
ATOM     29  C   UNL     1      -8.873 -13.943  17.928  0.00  0.00    +0.013 A 
BRANCH  18  19
ATOM     19  C   UNL     1      -7.673 -11.018  15.680  0.00  0.00    +0.119 C 
BRANCH  19  20
ATOM     20  N   UNL     1      -6.382 -10.282  15.539  0.00  0.00    -0.302 NA
ATOM     21  C   UNL     1      -6.327  -9.042  16.436  0.00  0.00    +0.066 C 
ATOM     22  C   UNL     1      -4.961  -8.296  16.293  0.00  0.00    -0.064 C 
ATOM     23  N   UNL     1      -4.742  -7.914  14.828  0.00  0.00    +0.379 N 
ATOM     24  C   UNL     1      -3.486  -7.162  14.699  0.00  0.00    -0.096 C 
ATOM     25  H   UNL     1      -5.575  -7.237  14.527  0.00  0.00    -0.082 HD
ATOM     26  C   UNL     1      -4.798  -9.141  13.929  0.00  0.00    -0.064 C 
ATOM     27  C   UNL     1      -6.148  -9.892  14.100  0.00  0.00    +0.066 C 
ENDBRANCH  19  20
ENDBRANCH  18  19
ENDBRANCH  14  15
ENDBRANCH  12  13
TORSDOF 6
ENDMDL
MODEL 4
REMARK VINA RESULT:      -8.4      3.667      4.982
REMARK  Name = C:\Users\Docking\Desktop\test protocol\1iep_ligandH.pdb
REMARK  8 active torsions:
REMARK  status: ('A' for Active; 'I' for Inactive)
REMARK    1  A    between atoms: _5  and  _11
REMARK    2  A    between atoms: _19  and  _21
REMARK    3  A    between atoms: _22  and  _66
REMARK    4  A    between atoms: _27  and  _30
REMARK    5  A    between atoms: _32  and  _33
REMARK    6  A    between atoms: _38  and  _43
REMARK    7  A    between atoms: _43  and  _46
REMARK    8  A    between atoms: _53  and  _55
REMARK                            x       y       z     vdW  Elec       q    Type
REMARK                         _______ _______ _______ _____ _____    ______ ____
ROOT
ATOM     10  C   UNL     1     -22.943 -22.947   0.060  0.00  0.00    +0.038 A 
ATOM     11  C   UNL     1     -23.297 -21.952   1.006  0.00  0.00    +0.047 A 
ATOM     12  C   UNL     1     -22.336 -20.948   1.438  0.00  0.00    +0.035 A 
ATOM     32  C   UNL     1     -21.024 -20.987   0.883  0.00  0.00    +0.024 A 
ATOM     33  C   UNL     1     -20.647 -21.993  -0.079  0.00  0.00    +0.007 A 
ATOM     34  C   UNL     1     -21.590 -22.986  -0.507  0.00  0.00    -0.029 A 
ATOM     35  C   UNL     1     -21.129 -24.044  -1.536  0.00  0.00    +0.045 C 
ENDROOT
BRANCH  10   9
ATOM      4  C   UNL     1     -24.954 -27.296   0.338  0.00  0.00    +0.077 A 
ATOM      5  C   UNL     1     -23.990 -27.746   1.300  0.00  0.00    +0.048 A 
ATOM      6  C   UNL     1     -22.989 -26.829   1.692  0.00  0.00    +0.116 A 
ATOM      7  N   UNL     1     -22.963 -25.560   1.155  0.00  0.00    -0.223 NA
ATOM      8  C   UNL     1     -23.907 -25.159   0.228  0.00  0.00    +0.220 A 
ATOM      9  N   UNL     1     -23.906 -23.886  -0.320  0.00  0.00    -0.283 N 
ATOM     36  H   UNL     1     -24.615 -23.631  -1.006  0.00  0.00    +0.155 HD
ATOM     37  N   UNL     1     -24.873 -26.017  -0.164  0.00  0.00    -0.214 NA
BRANCH   4   3
ATOM      1  C   UNL     1     -28.078 -29.644   0.162  0.00  0.00    +0.020 A 
ATOM      2  C   UNL     1     -27.013 -28.834   0.707  0.00  0.00    +0.013 A 
ATOM      3  C   UNL     1     -26.075 -28.147  -0.173  0.00  0.00    +0.019 A 
ATOM     38  C   UNL     1     -26.246 -28.300  -1.610  0.00  0.00    +0.120 A 
ATOM     39  N   UNL     1     -27.280 -29.088  -2.106  0.00  0.00    -0.263 NA
ATOM     40  C   UNL     1     -28.187 -29.755  -1.269  0.00  0.00    +0.111 A 
ENDBRANCH   4   3
ENDBRANCH  10   9
BRANCH  12  13
ATOM     13  N   UNL     1     -22.636 -19.919   2.402  0.00  0.00    -0.281 N 
ATOM     14  C   UNL     1     -23.104 -18.637   2.161  0.00  0.00    +0.248 C 
ATOM     30  O   UNL     1     -23.134 -18.108   1.060  0.00  0.00    -0.270 OA
ATOM     31  H   UNL     1     -22.484 -20.164   3.380  0.00  0.00    +0.155 HD
BRANCH  14  15
ATOM     15  C   UNL     1     -23.597 -17.821   3.311  0.00  0.00    +0.037 A 
ATOM     16  C   UNL     1     -23.881 -16.391   3.162  0.00  0.00    +0.013 A 
ATOM     17  C   UNL     1     -24.340 -15.623   4.292  0.00  0.00    +0.005 A 
ATOM     18  C   UNL     1     -24.518 -16.284   5.583  0.00  0.00    -0.033 A 
ATOM     28  C   UNL     1     -24.234 -17.705   5.702  0.00  0.00    +0.005 A 
ATOM     29  C   UNL     1     -23.783 -18.461   4.596  0.00  0.00    +0.013 A 
BRANCH  18  19
ATOM     19  C   UNL     1     -24.983 -15.538   6.848  0.00  0.00    +0.119 C 
BRANCH  19  20
ATOM     20  N   UNL     1     -24.021 -14.580   7.469  0.00  0.00    -0.302 NA
ATOM     21  C   UNL     1     -23.554 -15.048   8.850  0.00  0.00    +0.066 C 
ATOM     22  C   UNL     1     -22.531 -14.044   9.475  0.00  0.00    -0.064 C 
ATOM     23  N   UNL     1     -23.169 -12.657   9.560  0.00  0.00    +0.379 N 
ATOM     24  C   UNL     1     -22.231 -11.724  10.201  0.00  0.00    -0.096 C 
ATOM     25  H   UNL     1     -24.067 -12.737  10.216  0.00  0.00    -0.082 HD
ATOM     26  C   UNL     1     -23.639 -12.185   8.192  0.00  0.00    -0.064 C 
ATOM     27  C   UNL     1     -24.632 -13.204   7.566  0.00  0.00    +0.066 C 
ENDBRANCH  19  20
ENDBRANCH  18  19
ENDBRANCH  14  15
ENDBRANCH  12  13
TORSDOF 6
ENDMDL
MODEL 5
REMARK VINA RESULT:      -8.4     19.859     25.639
REMARK  Name = C:\Users\Docking\Desktop\test protocol\1iep_ligandH.pdb
REMARK  8 active torsions:
REMARK  status: ('A' for Active; 'I' for Inactive)
REMARK    1  A    between atoms: _5  and  _11
REMARK    2  A    between atoms: _19  and  _21
REMARK    3  A    between atoms: _22  and  _66
REMARK    4  A    between atoms: _27  and  _30
REMARK    5  A    between atoms: _32  and  _33
REMARK    6  A    between atoms: _38  and  _43
REMARK    7  A    between atoms: _43  and  _46
REMARK    8  A    between atoms: _53  and  _55
REMARK                            x       y       z     vdW  Elec       q    Type
REMARK                         _______ _______ _______ _____ _____    ______ ____
ROOT
ATOM     10  C   UNL     1      -6.772 -19.035  22.230  0.00  0.00    +0.038 A 
ATOM     11  C   UNL     1      -6.977 -17.942  21.350  0.00  0.00    +0.047 A 
ATOM     12  C   UNL     1      -6.421 -17.943  20.006  0.00  0.00    +0.035 A 
ATOM     32  C   UNL     1      -5.662 -19.075  19.590  0.00  0.00    +0.024 A 
ATOM     33  C   UNL     1      -5.443 -20.195  20.471  0.00  0.00    +0.007 A 
ATOM     34  C   UNL     1      -5.987 -20.198  21.799  0.00  0.00    -0.029 A 
ATOM     35  C   UNL     1      -5.714 -21.423  22.704  0.00  0.00    +0.045 C 
ENDROOT
BRANCH  10   9
ATOM      4  C   UNL     1      -6.748 -17.564  26.799  0.00  0.00    +0.077 A 
ATOM      5  C   UNL     1      -5.506 -16.866  26.629  0.00  0.00    +0.048 A 
ATOM      6  C   UNL     1      -4.903 -16.916  25.352  0.00  0.00    +0.116 A 
ATOM      7  N   UNL     1      -5.505 -17.615  24.329  0.00  0.00    -0.223 NA
ATOM      8  C   UNL     1      -6.701 -18.279  24.527  0.00  0.00    +0.220 A 
ATOM      9  N   UNL     1      -7.329 -18.982  23.510  0.00  0.00    -0.283 N 
ATOM     36  H   UNL     1      -8.207 -19.465  23.698  0.00  0.00    +0.155 HD
ATOM     37  N   UNL     1      -7.297 -18.248  25.737  0.00  0.00    -0.214 NA
BRANCH   4   3
ATOM      1  C   UNL     1      -9.649 -17.733  29.417  0.00  0.00    +0.020 A 
ATOM      2  C   UNL     1      -8.962 -17.700  28.146  0.00  0.00    +0.013 A 
ATOM      3  C   UNL     1      -7.509 -17.602  28.087  0.00  0.00    +0.019 A 
ATOM     38  C   UNL     1      -6.775 -17.541  29.342  0.00  0.00    +0.120 A 
ATOM     39  N   UNL     1      -7.463 -17.574  30.551  0.00  0.00    -0.263 NA
ATOM     40  C   UNL     1      -8.861 -17.666  30.620  0.00  0.00    +0.111 A 
ENDBRANCH   4   3
ENDBRANCH  10   9
BRANCH  12  13
ATOM     13  N   UNL     1      -6.590 -16.858  19.071  0.00  0.00    -0.281 N 
ATOM     14  C   UNL     1      -7.741 -16.137  18.803  0.00  0.00    +0.248 C 
ATOM     30  O   UNL     1      -8.860 -16.458  19.174  0.00  0.00    -0.270 OA
ATOM     31  H   UNL     1      -5.759 -16.589  18.544  0.00  0.00    +0.155 HD
BRANCH  14  15
ATOM     15  C   UNL     1      -7.637 -14.885  17.993  0.00  0.00    +0.037 A 
ATOM     16  C   UNL     1      -8.723 -13.902  17.969  0.00  0.00    +0.013 A 
ATOM     17  C   UNL     1      -8.604 -12.711  17.166  0.00  0.00    +0.005 A 
ATOM     18  C   UNL     1      -7.391 -12.496  16.380  0.00  0.00    -0.033 A 
ATOM     28  C   UNL     1      -6.327 -13.485  16.425  0.00  0.00    +0.005 A 
ATOM     29  C   UNL     1      -6.441 -14.654  17.211  0.00  0.00    +0.013 A 
BRANCH  18  19
ATOM     19  C   UNL     1      -7.187 -11.265  15.478  0.00  0.00    +0.119 C 
BRANCH  19  20
ATOM     20  N   UNL     1      -7.279 -11.475  14.002  0.00  0.00    -0.302 NA
ATOM     21  C   UNL     1      -6.900 -10.216  13.218  0.00  0.00    +0.066 C 
ATOM     22  C   UNL     1      -6.980 -10.460  11.676  0.00  0.00    -0.064 C 
ATOM     23  N   UNL     1      -8.391 -10.923  11.308  0.00  0.00    +0.379 N 
ATOM     24  C   UNL     1      -8.487 -11.097   9.852  0.00  0.00    -0.096 C 
ATOM     25  H   UNL     1      -9.099 -10.112  11.599  0.00  0.00    -0.082 HD
ATOM     26  C   UNL     1      -8.778 -12.173  12.086  0.00  0.00    -0.064 C 
ATOM     27  C   UNL     1      -8.666 -11.928  13.617  0.00  0.00    +0.066 C 
ENDBRANCH  19  20
ENDBRANCH  18  19
ENDBRANCH  14  15
ENDBRANCH  12  13
TORSDOF 6
ENDMDL
