MODEL 1
REMARK VINA RESULT:     -10.6      0.000      0.000
REMARK  Name = C:\Users\Docking\Desktop\test protocol\1iep_ligandH.pdb
REMARK  8 active torsions:
REMARK  status: ('A' for Active; 'I' for Inactive)
REMARK    1  A    between atoms: _5  and  _11
REMARK    2  A    between atoms: _19  and  _21
REMARK    3  A    between atoms: _22  and  _66
REMARK    4  A    between atoms: _27  and  _30
REMARK    5  A    between atoms: _32  and  _33
REMARK    6  A    between atoms: _38  and  _43
REMARK    7  A    between atoms: _43  and  _46
REMARK    8  A    between atoms: _53  and  _55
REMARK                            x       y       z     vdW  Elec       q    Type
REMARK                         _______ _______ _______ _____ _____    ______ ____
ROOT
ATOM     10  C   UNL     1       5.103  14.817 -15.318  0.00  0.00    +0.038 A 
ATOM     11  C   UNL     1       6.143  15.720 -14.978  0.00  0.00    +0.047 A 
ATOM     12  C   UNL     1       7.439  15.240 -14.524  0.00  0.00    +0.035 A 
ATOM     32  C   UNL     1       7.642  13.832 -14.431  0.00  0.00    +0.024 A 
ATOM     33  C   UNL     1       6.597  12.900 -14.771  0.00  0.00    +0.007 A 
ATOM     34  C   UNL     1       5.315  13.368 -15.217  0.00  0.00    -0.029 A 
ATOM     35  C   UNL     1       4.229  12.323 -15.562  0.00  0.00    +0.045 C 
ENDROOT
BRANCH  10   9
ATOM      4  C   UNL     1       2.395  17.223 -18.466  0.00  0.00    +0.077 A 
ATOM      5  C   UNL     1       3.520  17.498 -19.313  0.00  0.00    +0.048 A 
ATOM      6  C   UNL     1       4.779  17.009 -18.899  0.00  0.00    +0.116 A 
ATOM      7  N   UNL     1       4.893  16.299 -17.724  0.00  0.00    -0.223 NA
ATOM      8  C   UNL     1       3.788  16.052 -16.929  0.00  0.00    +0.220 A 
ATOM      9  N   UNL     1       3.879  15.333 -15.747  0.00  0.00    -0.283 N 
ATOM     36  H   UNL     1       3.042  15.179 -15.186  0.00  0.00    +0.155 HD
ATOM     37  N   UNL     1       2.575  16.510 -17.302  0.00  0.00    -0.214 NA
BRANCH   4   3
ATOM      1  C   UNL     1      -1.488  17.280 -18.936  0.00  0.00    +0.020 A 
ATOM      2  C   UNL     1      -0.160  16.798 -18.631  0.00  0.00    +0.013 A 
ATOM      3  C   UNL     1       0.999  17.671 -18.769  0.00  0.00    +0.019 A 
ATOM     38  C   UNL     1       0.779  19.036 -19.222  0.00  0.00    +0.120 A 
ATOM     39  N   UNL     1      -0.511  19.472 -19.510  0.00  0.00    -0.263 NA
ATOM     40  C   UNL     1      -1.634  18.641 -19.382  0.00  0.00    +0.111 A 
ENDBRANCH   4   3
ENDBRANCH  10   9
BRANCH  12  13
ATOM     13  N   UNL     1       8.529  16.109 -14.158  0.00  0.00    -0.281 N 
ATOM     14  C   UNL     1       9.118  17.105 -14.921  0.00  0.00    +0.248 C 
ATOM     30  O   UNL     1       8.935  17.256 -16.120  0.00  0.00    -0.270 OA
ATOM     31  H   UNL     1       8.914  15.974 -13.223  0.00  0.00    +0.155 HD
BRANCH  14  15
ATOM     15  C   UNL     1      10.056  18.061 -14.259  0.00  0.00    +0.037 A 
ATOM     16  C   UNL     1      10.653  19.175 -15.001  0.00  0.00    +0.013 A 
ATOM     17  C   UNL     1      11.569  20.074 -14.343  0.00  0.00    +0.005 A 
ATOM     18  C   UNL     1      11.892  19.862 -12.934  0.00  0.00    -0.033 A 
ATOM     28  C   UNL     1      11.281  18.752 -12.221  0.00  0.00    +0.005 A 
ATOM     29  C   UNL     1      10.384  17.869 -12.863  0.00  0.00    +0.013 A 
BRANCH  18  19
ATOM     19  C   UNL     1      12.874  20.758 -12.157  0.00  0.00    +0.119 C 
BRANCH  19  20
ATOM     20  N   UNL     1      14.330  20.586 -12.444  0.00  0.00    -0.302 NA
ATOM     21  C   UNL     1      15.024  19.718 -11.392  0.00  0.00    +0.066 C 
ATOM     22  C   UNL     1      16.541  19.530 -11.720  0.00  0.00    -0.064 C 
ATOM     23  N   UNL     1      17.212  20.900 -11.819  0.00  0.00    +0.379 N 
ATOM     24  C   UNL     1      18.650  20.726 -12.070  0.00  0.00    -0.096 C 
ATOM     25  H   UNL     1      17.100  21.404 -10.831  0.00  0.00    -0.082 HD
ATOM     26  C   UNL     1      16.526  21.772 -12.861  0.00  0.00    -0.064 C 
ATOM     27  C   UNL     1      15.013  21.928 -12.542  0.00  0.00    +0.066 C 
ENDBRANCH  19  20
ENDBRANCH  18  19
ENDBRANCH  14  15
ENDBRANCH  12  13
TORSDOF 6
ENDMDL
MODEL 2
REMARK VINA RESULT:     -10.5      1.472      2.070
REMARK  Name = C:\Users\Docking\Desktop\test protocol\1iep_ligandH.pdb
REMARK  8 active torsions:
REMARK  status: ('A' for Active; 'I' for Inactive)
REMARK    1  A    between atoms: _5  and  _11
REMARK    2  A    between atoms: _19  and  _21
REMARK    3  A    between atoms: _22  and  _66
REMARK    4  A    between atoms: _27  and  _30
REMARK    5  A    between atoms: _32  and  _33
REMARK    6  A    between atoms: _38  and  _43
REMARK    7  A    between atoms: _43  and  _46
REMARK    8  A    between atoms: _53  and  _55
REMARK                            x       y       z     vdW  Elec       q    Type
REMARK                         _______ _______ _______ _____ _____    ______ ____
ROOT
ATOM     10  C   UNL     1       5.090  14.634 -15.492  0.00  0.00    +0.038 A 
ATOM     11  C   UNL     1       6.181  15.518 -15.293  0.00  0.00    +0.047 A 
ATOM     12  C   UNL     1       7.479  15.026 -14.860  0.00  0.00    +0.035 A 
ATOM     32  C   UNL     1       7.633  13.626 -14.642  0.00  0.00    +0.024 A 
ATOM     33  C   UNL     1       6.535  12.713 -14.840  0.00  0.00    +0.007 A 
ATOM     34  C   UNL     1       5.251  13.193 -15.264  0.00  0.00    -0.029 A 
ATOM     35  C   UNL     1       4.108  12.169 -15.453  0.00  0.00    +0.045 C 
ENDROOT
BRANCH  10   9
ATOM      4  C   UNL     1       2.405  17.237 -18.501  0.00  0.00    +0.077 A 
ATOM      5  C   UNL     1       3.543  17.600 -19.296  0.00  0.00    +0.048 A 
ATOM      6  C   UNL     1       4.802  17.102 -18.893  0.00  0.00    +0.116 A 
ATOM      7  N   UNL     1       4.904  16.301 -17.776  0.00  0.00    -0.223 NA
ATOM      8  C   UNL     1       3.787  15.971 -17.030  0.00  0.00    +0.220 A 
ATOM      9  N   UNL     1       3.865  15.161 -15.908  0.00  0.00    -0.283 N 
ATOM     36  H   UNL     1       3.019  14.947 -15.381  0.00  0.00    +0.155 HD
ATOM     37  N   UNL     1       2.574  16.435 -17.394  0.00  0.00    -0.214 NA
BRANCH   4   3
ATOM      1  C   UNL     1      -1.484  17.302 -18.916  0.00  0.00    +0.020 A 
ATOM      2  C   UNL     1      -0.155  16.823 -18.611  0.00  0.00    +0.013 A 
ATOM      3  C   UNL     1       1.007  17.682 -18.801  0.00  0.00    +0.019 A 
ATOM     38  C   UNL     1       0.789  19.030 -19.302  0.00  0.00    +0.120 A 
ATOM     39  N   UNL     1      -0.502  19.463 -19.588  0.00  0.00    -0.263 NA
ATOM     40  C   UNL     1      -1.628  18.645 -19.412  0.00  0.00    +0.111 A 
ENDBRANCH   4   3
ENDBRANCH  10   9
BRANCH  12  13
ATOM     13  N   UNL     1       8.621  15.878 -14.633  0.00  0.00    -0.281 N 
ATOM     14  C   UNL     1       8.807  16.800 -13.616  0.00  0.00    +0.248 C 
ATOM     30  O   UNL     1       7.924  17.187 -12.865  0.00  0.00    -0.270 OA
ATOM     31  H   UNL     1       9.384  15.790 -15.304  0.00  0.00    +0.155 HD
BRANCH  14  15
ATOM     15  C   UNL     1      10.166  17.387 -13.413  0.00  0.00    +0.037 A 
ATOM     16  C   UNL     1      10.366  18.565 -12.565  0.00  0.00    +0.013 A 
ATOM     17  C   UNL     1      11.686  19.121 -12.400  0.00  0.00    +0.005 A 
ATOM     18  C   UNL     1      12.816  18.499 -13.085  0.00  0.00    -0.033 A 
ATOM     28  C   UNL     1      12.590  17.328 -13.916  0.00  0.00    +0.005 A 
ATOM     29  C   UNL     1      11.298  16.780 -14.081  0.00  0.00    +0.013 A 
BRANCH  18  19
ATOM     19  C   UNL     1      14.256  19.038 -12.983  0.00  0.00    +0.119 C 
BRANCH  19  20
ATOM     20  N   UNL     1      14.511  20.411 -13.512  0.00  0.00    -0.302 NA
ATOM     21  C   UNL     1      14.165  21.495 -12.487  0.00  0.00    +0.066 C 
ATOM     22  C   UNL     1      14.459  22.924 -13.049  0.00  0.00    -0.064 C 
ATOM     23  N   UNL     1      13.671  23.132 -14.343  0.00  0.00    +0.379 N 
ATOM     24  C   UNL     1      13.900  24.495 -14.843  0.00  0.00    -0.096 C 
ATOM     25  H   UNL     1      12.588  23.038 -14.099  0.00  0.00    -0.082 HD
ATOM     26  C   UNL     1      14.007  22.056 -15.367  0.00  0.00    -0.064 C 
ATOM     27  C   UNL     1      13.739  20.639 -14.788  0.00  0.00    +0.066 C 
ENDBRANCH  19  20
ENDBRANCH  18  19
ENDBRANCH  14  15
ENDBRANCH  12  13
TORSDOF 6
ENDMDL
MODEL 3
REMARK VINA RESULT:     -10.5      1.721      2.030
REMARK  Name = C:\Users\Docking\Desktop\test protocol\1iep_ligandH.pdb
REMARK  8 active torsions:
REMARK  status: ('A' for Active; 'I' for Inactive)
REMARK    1  A    between atoms: _5  and  _11
REMARK    2  A    between atoms: _19  and  _21
REMARK    3  A    between atoms: _22  and  _66
REMARK    4  A    between atoms: _27  and  _30
REMARK    5  A    between atoms: _32  and  _33
REMARK    6  A    between atoms: _38  and  _43
REMARK    7  A    between atoms: _43  and  _46
REMARK    8  A    between atoms: _53  and  _55
REMARK                            x       y       z     vdW  Elec       q    Type
REMARK                         _______ _______ _______ _____ _____    ______ ____
ROOT
ATOM     10  C   UNL     1       4.949  14.594 -15.438  0.00  0.00    +0.038 A 
ATOM     11  C   UNL     1       6.053  15.464 -15.252  0.00  0.00    +0.047 A 
ATOM     12  C   UNL     1       7.344  14.958 -14.813  0.00  0.00    +0.035 A 
ATOM     32  C   UNL     1       7.476  13.559 -14.576  0.00  0.00    +0.024 A 
ATOM     33  C   UNL     1       6.364  12.660 -14.759  0.00  0.00    +0.007 A 
ATOM     34  C   UNL     1       5.087  13.154 -15.189  0.00  0.00    -0.029 A 
ATOM     35  C   UNL     1       3.928  12.145 -15.363  0.00  0.00    +0.045 C 
ENDROOT
BRANCH  10   9
ATOM      4  C   UNL     1       2.303  17.202 -18.477  0.00  0.00    +0.077 A 
ATOM      5  C   UNL     1       3.446  17.540 -19.276  0.00  0.00    +0.048 A 
ATOM      6  C   UNL     1       4.698  17.028 -18.866  0.00  0.00    +0.116 A 
ATOM      7  N   UNL     1       4.788  16.238 -17.740  0.00  0.00    -0.223 NA
ATOM      8  C   UNL     1       3.666  15.933 -16.992  0.00  0.00    +0.220 A 
ATOM      9  N   UNL     1       3.732  15.134 -15.861  0.00  0.00    -0.283 N 
ATOM     36  H   UNL     1       2.882  14.938 -15.332  0.00  0.00    +0.155 HD
ATOM     37  N   UNL     1       2.459  16.410 -17.362  0.00  0.00    -0.214 NA
BRANCH   4   3
ATOM      1  C   UNL     1      -1.582  17.310 -18.919  0.00  0.00    +0.020 A 
ATOM      2  C   UNL     1      -0.260  16.815 -18.609  0.00  0.00    +0.013 A 
ATOM      3  C   UNL     1       0.912  17.664 -18.783  0.00  0.00    +0.019 A 
ATOM     38  C   UNL     1       0.711  19.018 -19.275  0.00  0.00    +0.120 A 
ATOM     39  N   UNL     1      -0.574  19.467 -19.566  0.00  0.00    -0.263 NA
ATOM     40  C   UNL     1      -1.709  18.659 -19.404  0.00  0.00    +0.111 A 
ENDBRANCH   4   3
ENDBRANCH  10   9
BRANCH  12  13
ATOM     13  N   UNL     1       8.499  15.795 -14.600  0.00  0.00    -0.281 N 
ATOM     14  C   UNL     1       8.687  16.752 -13.616  0.00  0.00    +0.248 C 
ATOM     30  O   UNL     1       7.800  17.186 -12.895  0.00  0.00    -0.270 OA
ATOM     31  H   UNL     1       9.272  15.666 -15.253  0.00  0.00    +0.155 HD
BRANCH  14  15
ATOM     15  C   UNL     1      10.054  17.319 -13.412  0.00  0.00    +0.037 A 
ATOM     16  C   UNL     1      10.263  18.535 -12.621  0.00  0.00    +0.013 A 
ATOM     17  C   UNL     1      11.591  19.071 -12.455  0.00  0.00    +0.005 A 
ATOM     18  C   UNL     1      12.721  18.389 -13.080  0.00  0.00    -0.033 A 
ATOM     28  C   UNL     1      12.487  17.182 -13.855  0.00  0.00    +0.005 A 
ATOM     29  C   UNL     1      11.187  16.655 -14.021  0.00  0.00    +0.013 A 
BRANCH  18  19
ATOM     19  C   UNL     1      14.170  18.902 -12.973  0.00  0.00    +0.119 C 
BRANCH  19  20
ATOM     20  N   UNL     1      15.251  17.877 -12.856  0.00  0.00    -0.302 NA
ATOM     21  C   UNL     1      16.173  18.148 -11.665  0.00  0.00    +0.066 C 
ATOM     22  C   UNL     1      17.284  17.055 -11.544  0.00  0.00    -0.064 C 
ATOM     23  N   UNL     1      18.084  17.000 -12.847  0.00  0.00    +0.379 N 
ATOM     24  C   UNL     1      19.166  16.013 -12.716  0.00  0.00    -0.096 C 
ATOM     25  H   UNL     1      18.554  17.999 -12.998  0.00  0.00    -0.082 HD
ATOM     26  C   UNL     1      17.174  16.733 -14.038  0.00  0.00    -0.064 C 
ATOM     27  C   UNL     1      16.056  17.809 -14.131  0.00  0.00    +0.066 C 
ENDBRANCH  19  20
ENDBRANCH  18  19
ENDBRANCH  14  15
ENDBRANCH  12  13
TORSDOF 6
ENDMDL
MODEL 4
REMARK VINA RESULT:     -10.4      1.999      3.042
REMARK  Name = C:\Users\Docking\Desktop\test protocol\1iep_ligandH.pdb
REMARK  8 active torsions:
REMARK  status: ('A' for Active; 'I' for Inactive)
REMARK    1  A    between atoms: _5  and  _11
REMARK    2  A    between atoms: _19  and  _21
REMARK    3  A    between atoms: _22  and  _66
REMARK    4  A    between atoms: _27  and  _30
REMARK    5  A    between atoms: _32  and  _33
REMARK    6  A    between atoms: _38  and  _43
REMARK    7  A    between atoms: _43  and  _46
REMARK    8  A    between atoms: _53  and  _55
REMARK                            x       y       z     vdW  Elec       q    Type
REMARK                         _______ _______ _______ _____ _____    ______ ____
ROOT
ATOM     10  C   UNL     1       6.914  17.747 -19.092  0.00  0.00    +0.038 A 
ATOM     11  C   UNL     1       7.551  18.201 -17.909  0.00  0.00    +0.047 A 
ATOM     12  C   UNL     1       8.938  17.867 -17.625  0.00  0.00    +0.035 A 
ATOM     32  C   UNL     1       9.648  17.069 -18.569  0.00  0.00    +0.024 A 
ATOM     33  C   UNL     1       9.015  16.598 -19.776  0.00  0.00    +0.007 A 
ATOM     34  C   UNL     1       7.647  16.922 -20.061  0.00  0.00    -0.029 A 
ATOM     35  C   UNL     1       7.018  16.384 -21.367  0.00  0.00    +0.045 C 
ENDROOT
BRANCH  10   9
ATOM      4  C   UNL     1       2.201  17.052 -18.511  0.00  0.00    +0.077 A 
ATOM      5  C   UNL     1       2.412  15.875 -17.720  0.00  0.00    +0.048 A 
ATOM      6  C   UNL     1       3.749  15.477 -17.491  0.00  0.00    +0.116 A 
ATOM      7  N   UNL     1       4.789  16.211 -18.020  0.00  0.00    -0.223 NA
ATOM      8  C   UNL     1       4.550  17.341 -18.780  0.00  0.00    +0.220 A 
ATOM      9  N   UNL     1       5.581  18.098 -19.315  0.00  0.00    -0.283 N 
ATOM     36  H   UNL     1       5.363  18.921 -19.876  0.00  0.00    +0.155 HD
ATOM     37  N   UNL     1       3.283  17.740 -19.014  0.00  0.00    -0.214 NA
BRANCH   4   3
ATOM      1  C   UNL     1      -1.652  17.376 -19.107  0.00  0.00    +0.020 A 
ATOM      2  C   UNL     1      -0.368  16.797 -18.783  0.00  0.00    +0.013 A 
ATOM      3  C   UNL     1       0.847  17.601 -18.837  0.00  0.00    +0.019 A 
ATOM     38  C   UNL     1       0.727  18.998 -19.226  0.00  0.00    +0.120 A 
ATOM     39  N   UNL     1      -0.523  19.527 -19.534  0.00  0.00    -0.263 NA
ATOM     40  C   UNL     1      -1.698  18.763 -19.487  0.00  0.00    +0.111 A 
ENDBRANCH   4   3
ENDBRANCH  10   9
BRANCH  12  13
ATOM     13  N   UNL     1       9.635  18.293 -16.437  0.00  0.00    -0.281 N 
ATOM     14  C   UNL     1       9.975  17.533 -15.330  0.00  0.00    +0.248 C 
ATOM     30  O   UNL     1       9.540  16.414 -15.100  0.00  0.00    -0.270 OA
ATOM     31  H   UNL     1       9.911  19.274 -16.408  0.00  0.00    +0.155 HD
BRANCH  14  15
ATOM     15  C   UNL     1      10.923  18.103 -14.325  0.00  0.00    +0.037 A 
ATOM     16  C   UNL     1      10.453  18.584 -13.024  0.00  0.00    +0.013 A 
ATOM     17  C   UNL     1      11.387  19.145 -12.080  0.00  0.00    +0.005 A 
ATOM     18  C   UNL     1      12.802  19.227 -12.435  0.00  0.00    -0.033 A 
ATOM     28  C   UNL     1      13.242  18.738 -13.731  0.00  0.00    +0.005 A 
ATOM     29  C   UNL     1      12.329  18.188 -14.659  0.00  0.00    +0.013 A 
BRANCH  18  19
ATOM     19  C   UNL     1      13.865  19.831 -11.498  0.00  0.00    +0.119 C 
BRANCH  19  20
ATOM     20  N   UNL     1      15.066  20.449 -12.135  0.00  0.00    -0.302 NA
ATOM     21  C   UNL     1      16.280  20.439 -11.203  0.00  0.00    +0.066 C 
ATOM     22  C   UNL     1      17.533  21.070 -11.894  0.00  0.00    -0.064 C 
ATOM     23  N   UNL     1      17.204  22.496 -12.338  0.00  0.00    +0.379 N 
ATOM     24  C   UNL     1      18.397  23.112 -12.936  0.00  0.00    -0.096 C 
ATOM     25  H   UNL     1      16.941  23.082 -11.427  0.00  0.00    -0.082 HD
ATOM     26  C   UNL     1      15.995  22.515 -13.264  0.00  0.00    -0.064 C 
ATOM     27  C   UNL     1      14.764  21.860 -12.579  0.00  0.00    +0.066 C 
ENDBRANCH  19  20
ENDBRANCH  18  19
ENDBRANCH  14  15
ENDBRANCH  12  13
TORSDOF 6
ENDMDL
MODEL 5
REMARK VINA RESULT:     -10.2      1.381      2.077
REMARK  Name = C:\Users\Docking\Desktop\test protocol\1iep_ligandH.pdb
REMARK  8 active torsions:
REMARK  status: ('A' for Active; 'I' for Inactive)
REMARK    1  A    between atoms: _5  and  _11
REMARK    2  A    between atoms: _19  and  _21
REMARK    3  A    between atoms: _22  and  _66
REMARK    4  A    between atoms: _27  and  _30
REMARK    5  A    between atoms: _32  and  _33
REMARK    6  A    between atoms: _38  and  _43
REMARK    7  A    between atoms: _43  and  _46
REMARK    8  A    between atoms: _53  and  _55
REMARK                            x       y       z     vdW  Elec       q    Type
REMARK                         _______ _______ _______ _____ _____    ______ ____
ROOT
ATOM     10  C   UNL     1       5.159  14.340 -15.272  0.00  0.00    +0.038 A 
ATOM     11  C   UNL     1       6.254  15.135 -14.845  0.00  0.00    +0.047 A 
ATOM     12  C   UNL     1       7.487  14.526 -14.372  0.00  0.00    +0.035 A 
ATOM     32  C   UNL     1       7.572  13.103 -14.349  0.00  0.00    +0.024 A 
ATOM     33  C   UNL     1       6.469  12.280 -14.777  0.00  0.00    +0.007 A 
ATOM     34  C   UNL     1       5.249  12.875 -15.243  0.00  0.00    -0.029 A 
ATOM     35  C   UNL     1       4.096  11.944 -15.684  0.00  0.00    +0.045 C 
ENDROOT
BRANCH  10   9
ATOM      4  C   UNL     1       2.741  16.978 -18.470  0.00  0.00    +0.077 A 
ATOM      5  C   UNL     1       3.894  17.121 -19.312  0.00  0.00    +0.048 A 
ATOM      6  C   UNL     1       5.091  16.506 -18.883  0.00  0.00    +0.116 A 
ATOM      7  N   UNL     1       5.122  15.803 -17.698  0.00  0.00    -0.223 NA
ATOM      8  C   UNL     1       3.993  15.686 -16.908  0.00  0.00    +0.220 A 
ATOM      9  N   UNL     1       3.999  14.978 -15.717  0.00  0.00    -0.283 N 
ATOM     36  H   UNL     1       3.147  14.921 -15.159  0.00  0.00    +0.155 HD
ATOM     37  N   UNL     1       2.838  16.266 -17.296  0.00  0.00    -0.214 NA
BRANCH   4   3
ATOM      1  C   UNL     1      -1.098  17.408 -19.086  0.00  0.00    +0.020 A 
ATOM      2  C   UNL     1       0.170  16.790 -18.770  0.00  0.00    +0.013 A 
ATOM      3  C   UNL     1       1.402  17.568 -18.789  0.00  0.00    +0.019 A 
ATOM     38  C   UNL     1       1.317  18.979 -19.134  0.00  0.00    +0.120 A 
ATOM     39  N   UNL     1       0.083  19.546 -19.435  0.00  0.00    -0.263 NA
ATOM     40  C   UNL     1      -1.110  18.807 -19.421  0.00  0.00    +0.111 A 
ENDBRANCH   4   3
ENDBRANCH  10   9
BRANCH  12  13
ATOM     13  N   UNL     1       8.629  15.281 -13.919  0.00  0.00    -0.281 N 
ATOM     14  C   UNL     1       9.493  16.054 -14.677  0.00  0.00    +0.248 C 
ATOM     30  O   UNL     1       9.542  16.041 -15.898  0.00  0.00    -0.270 OA
ATOM     31  H   UNL     1       8.823  15.242 -12.918  0.00  0.00    +0.155 HD
BRANCH  14  15
ATOM     15  C   UNL     1      10.452  16.963 -13.976  0.00  0.00    +0.037 A 
ATOM     16  C   UNL     1      10.007  17.854 -12.902  0.00  0.00    +0.013 A 
ATOM     17  C   UNL     1      10.949  18.733 -12.255  0.00  0.00    +0.005 A 
ATOM     18  C   UNL     1      12.346  18.722 -12.680  0.00  0.00    -0.033 A 
ATOM     28  C   UNL     1      12.762  17.824 -13.744  0.00  0.00    +0.005 A 
ATOM     29  C   UNL     1      11.841  16.962 -14.382  0.00  0.00    +0.013 A 
BRANCH  18  19
ATOM     19  C   UNL     1      13.416  19.641 -12.059  0.00  0.00    +0.119 C 
BRANCH  19  20
ATOM     20  N   UNL     1      13.368  21.088 -12.423  0.00  0.00    -0.302 NA
ATOM     21  C   UNL     1      12.564  21.333 -13.703  0.00  0.00    +0.066 C 
ATOM     22  C   UNL     1      12.506  22.855 -14.056  0.00  0.00    -0.064 C 
ATOM     23  N   UNL     1      13.929  23.398 -14.198  0.00  0.00    +0.379 N 
ATOM     24  C   UNL     1      13.877  24.815 -14.587  0.00  0.00    -0.096 C 
ATOM     25  H   UNL     1      14.423  22.838 -15.026  0.00  0.00    -0.082 HD
ATOM     26  C   UNL     1      14.736  23.156 -12.931  0.00  0.00    -0.064 C 
ATOM     27  C   UNL     1      14.763  21.644 -12.572  0.00  0.00    +0.066 C 
ENDBRANCH  19  20
ENDBRANCH  18  19
ENDBRANCH  14  15
ENDBRANCH  12  13
TORSDOF 6
ENDMDL
