MODEL 1
REMARK VINA RESULT:      -7.9      0.000      0.000
REMARK  Name = C:\Users\Docking\Desktop\test protocol\1iep_ligandH.pdb
REMARK  8 active torsions:
REMARK  status: ('A' for Active; 'I' for Inactive)
REMARK    1  A    between atoms: _5  and  _11
REMARK    2  A    between atoms: _19  and  _21
REMARK    3  A    between atoms: _22  and  _66
REMARK    4  A    between atoms: _27  and  _30
REMARK    5  A    between atoms: _32  and  _33
REMARK    6  A    between atoms: _38  and  _43
REMARK    7  A    between atoms: _43  and  _46
REMARK    8  A    between atoms: _53  and  _55
REMARK                            x       y       z     vdW  Elec       q    Type
REMARK                         _______ _______ _______ _____ _____    ______ ____
ROOT
ATOM     10  C   UNL     1     -19.907 -41.000   6.732  0.00  0.00    +0.038 A 
ATOM     11  C   UNL     1     -18.557 -41.015   7.166  0.00  0.00    +0.047 A 
ATOM     12  C   UNL     1     -18.210 -40.751   8.553  0.00  0.00    +0.035 A 
ATOM     32  C   UNL     1     -19.264 -40.477   9.473  0.00  0.00    +0.024 A 
ATOM     33  C   UNL     1     -20.641 -40.456   9.049  0.00  0.00    +0.007 A 
ATOM     34  C   UNL     1     -20.990 -40.714   7.681  0.00  0.00    -0.029 A 
ATOM     35  C   UNL     1     -22.483 -40.672   7.281  0.00  0.00    +0.045 C 
ENDROOT
BRANCH  10   9
ATOM      4  C   UNL     1     -20.711 -44.013   3.083  0.00  0.00    +0.077 A 
ATOM      5  C   UNL     1     -20.538 -45.165   3.919  0.00  0.00    +0.048 A 
ATOM      6  C   UNL     1     -20.237 -44.940   5.281  0.00  0.00    +0.116 A 
ATOM      7  N   UNL     1     -20.119 -43.653   5.760  0.00  0.00    -0.223 NA
ATOM      8  C   UNL     1     -20.290 -42.563   4.926  0.00  0.00    +0.220 A 
ATOM      9  N   UNL     1     -20.184 -41.260   5.388  0.00  0.00    -0.283 N 
ATOM     36  H   UNL     1     -20.309 -40.484   4.739  0.00  0.00    +0.155 HD
ATOM     37  N   UNL     1     -20.577 -42.752   3.621  0.00  0.00    -0.214 NA
BRANCH   4   3
ATOM      1  C   UNL     1     -20.988 -43.174  -0.728  0.00  0.00    +0.020 A 
ATOM      2  C   UNL     1     -20.650 -43.053   0.672  0.00  0.00    +0.013 A 
ATOM      3  C   UNL     1     -21.035 -44.088   1.623  0.00  0.00    +0.019 A 
ATOM     38  C   UNL     1     -21.767 -45.242   1.122  0.00  0.00    +0.120 A 
ATOM     39  N   UNL     1     -22.079 -45.330  -0.231  0.00  0.00    -0.263 NA
ATOM     40  C   UNL     1     -21.716 -44.340  -1.155  0.00  0.00    +0.111 A 
ENDBRANCH   4   3
ENDBRANCH  10   9
BRANCH  12  13
ATOM     13  N   UNL     1     -16.856 -40.745   9.050  0.00  0.00    -0.281 N 
ATOM     14  C   UNL     1     -16.046 -41.834   9.327  0.00  0.00    +0.248 C 
ATOM     30  O   UNL     1     -16.439 -42.990   9.392  0.00  0.00    -0.270 OA
ATOM     31  H   UNL     1     -16.446 -39.827   9.219  0.00  0.00    +0.155 HD
BRANCH  14  15
ATOM     15  C   UNL     1     -14.592 -41.605   9.584  0.00  0.00    +0.037 A 
ATOM     16  C   UNL     1     -14.140 -40.722  10.662  0.00  0.00    +0.013 A 
ATOM     17  C   UNL     1     -12.731 -40.505  10.876  0.00  0.00    +0.005 A 
ATOM     18  C   UNL     1     -11.763 -41.175  10.011  0.00  0.00    -0.033 A 
ATOM     28  C   UNL     1     -12.239 -42.051   8.953  0.00  0.00    +0.005 A 
ATOM     29  C   UNL     1     -13.619 -42.265   8.739  0.00  0.00    +0.013 A 
BRANCH  18  19
ATOM     19  C   UNL     1     -10.241 -40.986  10.155  0.00  0.00    +0.119 C 
BRANCH  19  20
ATOM     20  N   UNL     1      -9.552 -41.769  11.223  0.00  0.00    -0.302 NA
ATOM     21  C   UNL     1     -10.314 -43.049  11.578  0.00  0.00    +0.066 C 
ATOM     22  C   UNL     1      -9.567 -43.868  12.682  0.00  0.00    -0.064 C 
ATOM     23  N   UNL     1      -9.374 -42.992  13.920  0.00  0.00    +0.379 N 
ATOM     24  C   UNL     1      -8.724 -43.776  14.980  0.00  0.00    -0.096 C 
ATOM     25  H   UNL     1     -10.384 -42.698  14.288  0.00  0.00    -0.082 HD
ATOM     26  C   UNL     1      -8.620 -41.715  13.575  0.00  0.00    -0.064 C 
ATOM     27  C   UNL     1      -9.354 -40.924  12.457  0.00  0.00    +0.066 C 
ENDBRANCH  19  20
ENDBRANCH  18  19
ENDBRANCH  14  15
ENDBRANCH  12  13
TORSDOF 6
ENDMDL
MODEL 2
REMARK VINA RESULT:      -7.6      5.497      8.469
REMARK  Name = C:\Users\Docking\Desktop\test protocol\1iep_ligandH.pdb
REMARK  8 active torsions:
REMARK  status: ('A' for Active; 'I' for Inactive)
REMARK    1  A    between atoms: _5  and  _11
REMARK    2  A    between atoms: _19  and  _21
REMARK    3  A    between atoms: _22  and  _66
REMARK    4  A    between atoms: _27  and  _30
REMARK    5  A    between atoms: _32  and  _33
REMARK    6  A    between atoms: _38  and  _43
REMARK    7  A    between atoms: _43  and  _46
REMARK    8  A    between atoms: _53  and  _55
REMARK                            x       y       z     vdW  Elec       q    Type
REMARK                         _______ _______ _______ _____ _____    ______ ____
ROOT
ATOM     10  C   UNL     1     -24.003 -38.548   7.062  0.00  0.00    +0.038 A 
ATOM     11  C   UNL     1     -22.686 -38.621   7.583  0.00  0.00    +0.047 A 
ATOM     12  C   UNL     1     -22.111 -39.890   8.000  0.00  0.00    +0.035 A 
ATOM     32  C   UNL     1     -22.905 -41.067   7.870  0.00  0.00    +0.024 A 
ATOM     33  C   UNL     1     -24.246 -41.011   7.343  0.00  0.00    +0.007 A 
ATOM     34  C   UNL     1     -24.819 -39.761   6.933  0.00  0.00    -0.029 A 
ATOM     35  C   UNL     1     -26.264 -39.760   6.381  0.00  0.00    +0.045 C 
ENDROOT
BRANCH  10   9
ATOM      4  C   UNL     1     -26.483 -34.531   7.930  0.00  0.00    +0.077 A 
ATOM      5  C   UNL     1     -26.829 -34.961   9.254  0.00  0.00    +0.048 A 
ATOM      6  C   UNL     1     -26.356 -36.226   9.671  0.00  0.00    +0.116 A 
ATOM      7  N   UNL     1     -25.593 -36.994   8.819  0.00  0.00    -0.223 NA
ATOM      8  C   UNL     1     -25.278 -36.550   7.547  0.00  0.00    +0.220 A 
ATOM      9  N   UNL     1     -24.506 -37.303   6.676  0.00  0.00    -0.283 N 
ATOM     36  H   UNL     1     -24.302 -36.944   5.744  0.00  0.00    +0.155 HD
ATOM     37  N   UNL     1     -25.720 -35.347   7.125  0.00  0.00    -0.214 NA
BRANCH   4   3
ATOM      1  C   UNL     1     -28.452 -31.779   5.969  0.00  0.00    +0.020 A 
ATOM      2  C   UNL     1     -28.087 -33.069   6.507  0.00  0.00    +0.013 A 
ATOM      3  C   UNL     1     -26.906 -33.219   7.347  0.00  0.00    +0.019 A 
ATOM     38  C   UNL     1     -26.108 -32.034   7.626  0.00  0.00    +0.120 A 
ATOM     39  N   UNL     1     -26.483 -30.805   7.092  0.00  0.00    -0.263 NA
ATOM     40  C   UNL     1     -27.617 -30.649   6.281  0.00  0.00    +0.111 A 
ENDBRANCH   4   3
ENDBRANCH  10   9
BRANCH  12  13
ATOM     13  N   UNL     1     -20.782 -40.024   8.544  0.00  0.00    -0.281 N 
ATOM     14  C   UNL     1     -20.408 -40.074   9.876  0.00  0.00    +0.248 C 
ATOM     30  O   UNL     1     -21.144 -39.795  10.811  0.00  0.00    -0.270 OA
ATOM     31  H   UNL     1     -20.025 -40.090   7.863  0.00  0.00    +0.155 HD
BRANCH  14  15
ATOM     15  C   UNL     1     -19.011 -40.479  10.220  0.00  0.00    +0.037 A 
ATOM     16  C   UNL     1     -17.991 -40.644   9.182  0.00  0.00    +0.013 A 
ATOM     17  C   UNL     1     -16.655 -41.052   9.539  0.00  0.00    +0.005 A 
ATOM     18  C   UNL     1     -16.332 -41.296  10.942  0.00  0.00    -0.033 A 
ATOM     28  C   UNL     1     -17.362 -41.119  11.953  0.00  0.00    +0.005 A 
ATOM     29  C   UNL     1     -18.672 -40.720  11.606  0.00  0.00    +0.013 A 
BRANCH  18  19
ATOM     19  C   UNL     1     -14.939 -41.754  11.412  0.00  0.00    +0.119 C 
BRANCH  19  20
ATOM     20  N   UNL     1     -13.756 -41.048  10.835  0.00  0.00    -0.302 NA
ATOM     21  C   UNL     1     -12.987 -41.928   9.846  0.00  0.00    +0.066 C 
ATOM     22  C   UNL     1     -11.766 -41.166   9.236  0.00  0.00    -0.064 C 
ATOM     23  N   UNL     1     -10.849 -40.691  10.364  0.00  0.00    +0.379 N 
ATOM     24  C   UNL     1      -9.671 -40.024   9.790  0.00  0.00    -0.096 C 
ATOM     25  H   UNL     1     -10.494 -41.593  10.913  0.00  0.00    -0.082 HD
ATOM     26  C   UNL     1     -11.606 -39.817  11.353  0.00  0.00    -0.064 C 
ATOM     27  C   UNL     1     -12.835 -40.573  11.932  0.00  0.00    +0.066 C 
ENDBRANCH  19  20
ENDBRANCH  18  19
ENDBRANCH  14  15
ENDBRANCH  12  13
TORSDOF 6
ENDMDL
MODEL 3
REMARK VINA RESULT:      -7.5     18.644     21.107
REMARK  Name = C:\Users\Docking\Desktop\test protocol\1iep_ligandH.pdb
REMARK  8 active torsions:
REMARK  status: ('A' for Active; 'I' for Inactive)
REMARK    1  A    between atoms: _5  and  _11
REMARK    2  A    between atoms: _19  and  _21
REMARK    3  A    between atoms: _22  and  _66
REMARK    4  A    between atoms: _27  and  _30
REMARK    5  A    between atoms: _32  and  _33
REMARK    6  A    between atoms: _38  and  _43
REMARK    7  A    between atoms: _43  and  _46
REMARK    8  A    between atoms: _53  and  _55
REMARK                            x       y       z     vdW  Elec       q    Type
REMARK                         _______ _______ _______ _____ _____    ______ ____
ROOT
ATOM     10  C   UNL     1       0.866 -53.047  -3.320  0.00  0.00    +0.038 A 
ATOM     11  C   UNL     1       0.705 -52.214  -2.184  0.00  0.00    +0.047 A 
ATOM     12  C   UNL     1       1.560 -52.361  -1.016  0.00  0.00    +0.035 A 
ATOM     32  C   UNL     1       2.570 -53.366  -1.040  0.00  0.00    +0.024 A 
ATOM     33  C   UNL     1       2.746 -54.223  -2.186  0.00  0.00    +0.007 A 
ATOM     34  C   UNL     1       1.905 -54.084  -3.340  0.00  0.00    -0.029 A 
ATOM     35  C   UNL     1       2.135 -55.035  -4.538  0.00  0.00    +0.045 C 
ENDROOT
BRANCH  10   9
ATOM      4  C   UNL     1      -2.901 -54.306  -6.015  0.00  0.00    +0.077 A 
ATOM      5  C   UNL     1      -3.187 -55.444  -5.190  0.00  0.00    +0.048 A 
ATOM      6  C   UNL     1      -2.336 -55.674  -4.085  0.00  0.00    +0.116 A 
ATOM      7  N   UNL     1      -1.282 -54.823  -3.834  0.00  0.00    -0.223 NA
ATOM      8  C   UNL     1      -1.033 -53.736  -4.652  0.00  0.00    +0.220 A 
ATOM      9  N   UNL     1       0.017 -52.862  -4.414  0.00  0.00    -0.283 N 
ATOM     36  H   UNL     1       0.172 -52.076  -5.044  0.00  0.00    +0.155 HD
ATOM     37  N   UNL     1      -1.830 -53.495  -5.714  0.00  0.00    -0.214 NA
BRANCH   4   3
ATOM      1  C   UNL     1      -4.418 -52.310  -9.017  0.00  0.00    +0.020 A 
ATOM      2  C   UNL     1      -3.614 -52.623  -7.859  0.00  0.00    +0.013 A 
ATOM      3  C   UNL     1      -3.710 -53.929  -7.217  0.00  0.00    +0.019 A 
ATOM     38  C   UNL     1      -4.636 -54.901  -7.777  0.00  0.00    +0.120 A 
ATOM     39  N   UNL     1      -5.399 -54.570  -8.893  0.00  0.00    -0.263 NA
ATOM     40  C   UNL     1      -5.316 -53.317  -9.518  0.00  0.00    +0.111 A 
ENDBRANCH   4   3
ENDBRANCH  10   9
BRANCH  12  13
ATOM     13  N   UNL     1       1.439 -51.549   0.170  0.00  0.00    -0.281 N 
ATOM     14  C   UNL     1       1.643 -50.184   0.292  0.00  0.00    +0.248 C 
ATOM     30  O   UNL     1       2.172 -49.486  -0.560  0.00  0.00    -0.270 OA
ATOM     31  H   UNL     1       1.169 -52.040   1.022  0.00  0.00    +0.155 HD
BRANCH  14  15
ATOM     15  C   UNL     1       1.211 -49.499   1.548  0.00  0.00    +0.037 A 
ATOM     16  C   UNL     1       1.405 -50.122   2.859  0.00  0.00    +0.013 A 
ATOM     17  C   UNL     1       0.963 -49.447   4.054  0.00  0.00    +0.005 A 
ATOM     18  C   UNL     1       0.323 -48.138   3.941  0.00  0.00    -0.033 A 
ATOM     28  C   UNL     1       0.147 -47.541   2.628  0.00  0.00    +0.005 A 
ATOM     29  C   UNL     1       0.578 -48.200   1.455  0.00  0.00    +0.013 A 
BRANCH  18  19
ATOM     19  C   UNL     1      -0.199 -47.355   5.160  0.00  0.00    +0.119 C 
BRANCH  19  20
ATOM     20  N   UNL     1       0.807 -46.917   6.173  0.00  0.00    -0.302 NA
ATOM     21  C   UNL     1       0.151 -46.231   7.375  0.00  0.00    +0.066 C 
ATOM     22  C   UNL     1       1.216 -45.800   8.435  0.00  0.00    -0.064 C 
ATOM     23  N   UNL     1       2.242 -44.876   7.777  0.00  0.00    +0.379 N 
ATOM     24  C   UNL     1       3.211 -44.422   8.785  0.00  0.00    -0.096 C 
ATOM     25  H   UNL     1       1.697 -43.978   7.403  0.00  0.00    -0.082 HD
ATOM     26  C   UNL     1       2.897 -45.549   6.580  0.00  0.00    -0.064 C 
ATOM     27  C   UNL     1       1.828 -46.000   5.546  0.00  0.00    +0.066 C 
ENDBRANCH  19  20
ENDBRANCH  18  19
ENDBRANCH  14  15
ENDBRANCH  12  13
TORSDOF 6
ENDMDL
MODEL 4
REMARK VINA RESULT:      -7.1     12.234     19.150
REMARK  Name = C:\Users\Docking\Desktop\test protocol\1iep_ligandH.pdb
REMARK  8 active torsions:
REMARK  status: ('A' for Active; 'I' for Inactive)
REMARK    1  A    between atoms: _5  and  _11
REMARK    2  A    between atoms: _19  and  _21
REMARK    3  A    between atoms: _22  and  _66
REMARK    4  A    between atoms: _27  and  _30
REMARK    5  A    between atoms: _32  and  _33
REMARK    6  A    between atoms: _38  and  _43
REMARK    7  A    between atoms: _43  and  _46
REMARK    8  A    between atoms: _53  and  _55
REMARK                            x       y       z     vdW  Elec       q    Type
REMARK                         _______ _______ _______ _____ _____    ______ ____
ROOT
ATOM     10  C   UNL     1      -0.170 -47.377   2.087  0.00  0.00    +0.038 A 
ATOM     11  C   UNL     1      -1.576 -47.205   2.009  0.00  0.00    +0.047 A 
ATOM     12  C   UNL     1      -2.327 -47.668   0.852  0.00  0.00    +0.035 A 
ATOM     32  C   UNL     1      -1.615 -48.304  -0.206  0.00  0.00    +0.024 A 
ATOM     33  C   UNL     1      -0.186 -48.486  -0.143  0.00  0.00    +0.007 A 
ATOM     34  C   UNL     1       0.561 -48.029   0.994  0.00  0.00    -0.029 A 
ATOM     35  C   UNL     1       2.092 -48.245   1.004  0.00  0.00    +0.045 C 
ENDROOT
BRANCH  10   9
ATOM      4  C   UNL     1       0.233 -46.828   6.838  0.00  0.00    +0.077 A 
ATOM      5  C   UNL     1      -1.012 -47.498   7.081  0.00  0.00    +0.048 A 
ATOM      6  C   UNL     1      -1.729 -47.962   5.955  0.00  0.00    +0.116 A 
ATOM      7  N   UNL     1      -1.228 -47.766   4.686  0.00  0.00    -0.223 NA
ATOM      8  C   UNL     1      -0.025 -47.114   4.487  0.00  0.00    +0.220 A 
ATOM      9  N   UNL     1       0.501 -46.913   3.220  0.00  0.00    -0.283 N 
ATOM     36  H   UNL     1       1.388 -46.421   3.115  0.00  0.00    +0.155 HD
ATOM     37  N   UNL     1       0.678 -46.660   5.545  0.00  0.00    -0.214 NA
BRANCH   4   3
ATOM      1  C   UNL     1       1.678 -45.889  10.350  0.00  0.00    +0.020 A 
ATOM      2  C   UNL     1       0.800 -46.434   9.340  0.00  0.00    +0.013 A 
ATOM      3  C   UNL     1       1.108 -46.283   7.924  0.00  0.00    +0.019 A 
ATOM     38  C   UNL     1       2.323 -45.569   7.560  0.00  0.00    +0.120 A 
ATOM     39  N   UNL     1       3.149 -45.054   8.554  0.00  0.00    -0.263 NA
ATOM     40  C   UNL     1       2.861 -45.192   9.920  0.00  0.00    +0.111 A 
ENDBRANCH   4   3
ENDBRANCH  10   9
BRANCH  12  13
ATOM     13  N   UNL     1      -3.754 -47.514   0.714  0.00  0.00    -0.281 N 
ATOM     14  C   UNL     1      -4.740 -48.458   0.954  0.00  0.00    +0.248 C 
ATOM     30  O   UNL     1      -4.529 -49.650   1.120  0.00  0.00    -0.270 OA
ATOM     31  H   UNL     1      -4.077 -46.599   0.400  0.00  0.00    +0.155 HD
BRANCH  14  15
ATOM     15  C   UNL     1      -6.167 -48.016   1.001  0.00  0.00    +0.037 A 
ATOM     16  C   UNL     1      -6.622 -46.836   0.261  0.00  0.00    +0.013 A 
ATOM     17  C   UNL     1      -8.000 -46.421   0.337  0.00  0.00    +0.005 A 
ATOM     18  C   UNL     1      -8.934 -47.188   1.157  0.00  0.00    -0.033 A 
ATOM     28  C   UNL     1      -8.457 -48.358   1.877  0.00  0.00    +0.005 A 
ATOM     29  C   UNL     1      -7.107 -48.767   1.805  0.00  0.00    +0.013 A 
BRANCH  18  19
ATOM     19  C   UNL     1     -10.418 -46.806   1.314  0.00  0.00    +0.119 C 
BRANCH  19  20
ATOM     20  N   UNL     1     -11.402 -47.513   0.440  0.00  0.00    -0.302 NA
ATOM     21  C   UNL     1     -12.414 -46.547  -0.183  0.00  0.00    +0.066 C 
ATOM     22  C   UNL     1     -13.422 -47.299  -1.111  0.00  0.00    -0.064 C 
ATOM     23  N   UNL     1     -14.136 -48.388  -0.309  0.00  0.00    +0.379 N 
ATOM     24  C   UNL     1     -15.126 -49.059  -1.164  0.00  0.00    -0.096 C 
ATOM     25  H   UNL     1     -14.688 -47.888   0.521  0.00  0.00    -0.082 HD
ATOM     26  C   UNL     1     -13.137 -49.351   0.317  0.00  0.00    -0.064 C 
ATOM     27  C   UNL     1     -12.122 -48.590   1.214  0.00  0.00    +0.066 C 
ENDBRANCH  19  20
ENDBRANCH  18  19
ENDBRANCH  14  15
ENDBRANCH  12  13
TORSDOF 6
ENDMDL
MODEL 5
REMARK VINA RESULT:      -7.0     19.063     22.849
REMARK  Name = C:\Users\Docking\Desktop\test protocol\1iep_ligandH.pdb
REMARK  8 active torsions:
REMARK  status: ('A' for Active; 'I' for Inactive)
REMARK    1  A    between atoms: _5  and  _11
REMARK    2  A    between atoms: _19  and  _21
REMARK    3  A    between atoms: _22  and  _66
REMARK    4  A    between atoms: _27  and  _30
REMARK    5  A    between atoms: _32  and  _33
REMARK    6  A    between atoms: _38  and  _43
REMARK    7  A    between atoms: _43  and  _46
REMARK    8  A    between atoms: _53  and  _55
REMARK                            x       y       z     vdW  Elec       q    Type
REMARK                         _______ _______ _______ _____ _____    ______ ____
ROOT
ATOM     10  C   UNL     1       1.437 -46.344   3.533  0.00  0.00    +0.038 A 
ATOM     11  C   UNL     1       2.584 -46.409   2.701  0.00  0.00    +0.047 A 
ATOM     12  C   UNL     1       3.925 -46.350   3.263  0.00  0.00    +0.035 A 
ATOM     32  C   UNL     1       4.060 -46.228   4.677  0.00  0.00    +0.024 A 
ATOM     33  C   UNL     1       2.905 -46.161   5.537  0.00  0.00    +0.007 A 
ATOM     34  C   UNL     1       1.580 -46.216   4.988  0.00  0.00    -0.029 A 
ATOM     35  C   UNL     1       0.378 -46.132   5.957  0.00  0.00    +0.045 C 
ENDROOT
BRANCH  10   9
ATOM      4  C   UNL     1      -2.414 -48.775   2.016  0.00  0.00    +0.077 A 
ATOM      5  C   UNL     1      -1.850 -50.033   2.413  0.00  0.00    +0.048 A 
ATOM      6  C   UNL     1      -0.563 -50.012   2.997  0.00  0.00    +0.116 A 
ATOM      7  N   UNL     1       0.100 -48.816   3.167  0.00  0.00    -0.223 NA
ATOM      8  C   UNL     1      -0.472 -47.621   2.772  0.00  0.00    +0.220 A 
ATOM      9  N   UNL     1       0.174 -46.405   2.940  0.00  0.00    -0.283 N 
ATOM     36  H   UNL     1      -0.279 -45.546   2.628  0.00  0.00    +0.155 HD
ATOM     37  N   UNL     1      -1.699 -47.614   2.210  0.00  0.00    -0.214 NA
BRANCH   4   3
ATOM      1  C   UNL     1      -5.607 -47.273   0.329  0.00  0.00    +0.020 A 
ATOM      2  C   UNL     1      -4.296 -47.355   0.930  0.00  0.00    +0.013 A 
ATOM      3  C   UNL     1      -3.765 -48.633   1.387  0.00  0.00    +0.019 A 
ATOM     38  C   UNL     1      -4.592 -49.818   1.219  0.00  0.00    +0.120 A 
ATOM     39  N   UNL     1      -5.852 -49.708   0.638  0.00  0.00    -0.263 NA
ATOM     40  C   UNL     1      -6.374 -48.484   0.196  0.00  0.00    +0.111 A 
ENDBRANCH   4   3
ENDBRANCH  10   9
BRANCH  12  13
ATOM     13  N   UNL     1       5.127 -46.403   2.468  0.00  0.00    -0.281 N 
ATOM     14  C   UNL     1       5.665 -45.406   1.671  0.00  0.00    +0.248 C 
ATOM     30  O   UNL     1       5.077 -44.383   1.352  0.00  0.00    -0.270 OA
ATOM     31  H   UNL     1       5.643 -47.282   2.496  0.00  0.00    +0.155 HD
BRANCH  14  15
ATOM     15  C   UNL     1       7.052 -45.575   1.140  0.00  0.00    +0.037 A 
ATOM     16  C   UNL     1       7.759 -46.853   1.256  0.00  0.00    +0.013 A 
ATOM     17  C   UNL     1       9.102 -46.985   0.751  0.00  0.00    +0.005 A 
ATOM     18  C   UNL     1       9.748 -45.834   0.124  0.00  0.00    -0.033 A 
ATOM     28  C   UNL     1       9.022 -44.579   0.018  0.00  0.00    +0.005 A 
ATOM     29  C   UNL     1       7.705 -44.446   0.513  0.00  0.00    +0.013 A 
BRANCH  18  19
ATOM     19  C   UNL     1      11.187 -45.878  -0.424  0.00  0.00    +0.119 C 
BRANCH  19  20
ATOM     20  N   UNL     1      11.406 -45.370  -1.811  0.00  0.00    -0.302 NA
ATOM     21  C   UNL     1      11.598 -46.508  -2.816  0.00  0.00    +0.066 C 
ATOM     22  C   UNL     1      11.803 -45.960  -4.266  0.00  0.00    -0.064 C 
ATOM     23  N   UNL     1      13.005 -45.013  -4.284  0.00  0.00    +0.379 N 
ATOM     24  C   UNL     1      13.236 -44.541  -5.657  0.00  0.00    -0.096 C 
ATOM     25  H   UNL     1      13.901 -45.599  -3.972  0.00  0.00    -0.082 HD
ATOM     26  C   UNL     1      12.824 -43.879  -3.285  0.00  0.00    -0.064 C 
ATOM     27  C   UNL     1      12.591 -44.436  -1.853  0.00  0.00    +0.066 C 
ENDBRANCH  19  20
ENDBRANCH  18  19
ENDBRANCH  14  15
ENDBRANCH  12  13
TORSDOF 6
ENDMDL
