MODEL 1
REMARK VINA RESULT:     -10.9      0.000      0.000
REMARK  Name = C:\Users\Docking\Desktop\test protocol\1iep_ligandH.pdb
REMARK  8 active torsions:
REMARK  status: ('A' for Active; 'I' for Inactive)
REMARK    1  A    between atoms: _5  and  _11
REMARK    2  A    between atoms: _19  and  _21
REMARK    3  A    between atoms: _22  and  _66
REMARK    4  A    between atoms: _27  and  _30
REMARK    5  A    between atoms: _32  and  _33
REMARK    6  A    between atoms: _38  and  _43
REMARK    7  A    between atoms: _43  and  _46
REMARK    8  A    between atoms: _53  and  _55
REMARK                            x       y       z     vdW  Elec       q    Type
REMARK                         _______ _______ _______ _____ _____    ______ ____
ROOT
ATOM     10  C   UNL     1      23.156  22.814   5.035  0.00  0.00    +0.038 A 
ATOM     11  C   UNL     1      24.333  23.094   4.295  0.00  0.00    +0.047 A 
ATOM     12  C   UNL     1      24.263  23.599   2.933  0.00  0.00    +0.035 A 
ATOM     32  C   UNL     1      22.977  23.811   2.355  0.00  0.00    +0.024 A 
ATOM     33  C   UNL     1      21.770  23.530   3.093  0.00  0.00    +0.007 A 
ATOM     34  C   UNL     1      21.833  23.029   4.436  0.00  0.00    -0.029 A 
ATOM     35  C   UNL     1      20.506  22.740   5.177  0.00  0.00    +0.045 C 
ENDROOT
BRANCH  10   9
ATOM      4  C   UNL     1      25.589  22.290   9.139  0.00  0.00    +0.077 A 
ATOM      5  C   UNL     1      26.717  23.017   8.632  0.00  0.00    +0.048 A 
ATOM      6  C   UNL     1      26.634  23.503   7.308  0.00  0.00    +0.116 A 
ATOM      7  N   UNL     1      25.502  23.274   6.556  0.00  0.00    -0.223 NA
ATOM      8  C   UNL     1      24.432  22.567   7.075  0.00  0.00    +0.220 A 
ATOM      9  N   UNL     1      23.281  22.331   6.339  0.00  0.00    -0.283 N 
ATOM     36  H   UNL     1      22.517  21.799   6.755  0.00  0.00    +0.155 HD
ATOM     37  N   UNL     1      24.488  22.091   8.336  0.00  0.00    -0.214 NA
BRANCH   4   3
ATOM      1  C   UNL     1      26.558  20.569  12.515  0.00  0.00    +0.020 A 
ATOM      2  C   UNL     1      26.673  21.108  11.180  0.00  0.00    +0.013 A 
ATOM      3  C   UNL     1      25.525  21.716  10.520  0.00  0.00    +0.019 A 
ATOM     38  C   UNL     1      24.264  21.763  11.245  0.00  0.00    +0.120 A 
ATOM     39  N   UNL     1      24.182  21.234  12.529  0.00  0.00    -0.263 NA
ATOM     40  C   UNL     1      25.281  20.645  13.173  0.00  0.00    +0.111 A 
ENDBRANCH   4   3
ENDBRANCH  10   9
BRANCH  12  13
ATOM     13  N   UNL     1      25.424  23.894   2.130  0.00  0.00    -0.281 N 
ATOM     14  C   UNL     1      26.734  23.500   2.350  0.00  0.00    +0.248 C 
ATOM     30  O   UNL     1      27.142  23.010   3.392  0.00  0.00    -0.270 OA
ATOM     31  H   UNL     1      25.260  24.462   1.299  0.00  0.00    +0.155 HD
BRANCH  14  15
ATOM     15  C   UNL     1      27.738  23.691   1.260  0.00  0.00    +0.037 A 
ATOM     16  C   UNL     1      29.061  23.066   1.327  0.00  0.00    +0.013 A 
ATOM     17  C   UNL     1      30.017  23.280   0.270  0.00  0.00    +0.005 A 
ATOM     18  C   UNL     1      29.652  24.124  -0.865  0.00  0.00    -0.033 A 
ATOM     28  C   UNL     1      28.331  24.729  -0.909  0.00  0.00    +0.005 A 
ATOM     29  C   UNL     1      27.392  24.521   0.126  0.00  0.00    +0.013 A 
BRANCH  18  19
ATOM     19  C   UNL     1      30.617  24.425  -2.028  0.00  0.00    +0.119 C 
BRANCH  19  20
ATOM     20  N   UNL     1      31.198  23.257  -2.754  0.00  0.00    -0.302 NA
ATOM     21  C   UNL     1      32.484  22.752  -2.094  0.00  0.00    +0.066 C 
ATOM     22  C   UNL     1      33.066  21.515  -2.853  0.00  0.00    -0.064 C 
ATOM     23  N   UNL     1      33.319  21.890  -4.315  0.00  0.00    +0.379 N 
ATOM     24  C   UNL     1      33.920  20.748  -5.018  0.00  0.00    -0.096 C 
ATOM     25  H   UNL     1      34.060  22.723  -4.326  0.00  0.00    -0.082 HD
ATOM     26  C   UNL     1      32.046  22.397  -4.978  0.00  0.00    -0.064 C 
ATOM     27  C   UNL     1      31.460  23.607  -4.199  0.00  0.00    +0.066 C 
ENDBRANCH  19  20
ENDBRANCH  18  19
ENDBRANCH  14  15
ENDBRANCH  12  13
TORSDOF 6
ENDMDL
MODEL 2
REMARK VINA RESULT:     -10.6      2.746     12.730
REMARK  Name = C:\Users\Docking\Desktop\test protocol\1iep_ligandH.pdb
REMARK  8 active torsions:
REMARK  status: ('A' for Active; 'I' for Inactive)
REMARK    1  A    between atoms: _5  and  _11
REMARK    2  A    between atoms: _19  and  _21
REMARK    3  A    between atoms: _22  and  _66
REMARK    4  A    between atoms: _27  and  _30
REMARK    5  A    between atoms: _32  and  _33
REMARK    6  A    between atoms: _38  and  _43
REMARK    7  A    between atoms: _43  and  _46
REMARK    8  A    between atoms: _53  and  _55
REMARK                            x       y       z     vdW  Elec       q    Type
REMARK                         _______ _______ _______ _____ _____    ______ ____
ROOT
ATOM     10  C   UNL     1      30.173  22.304  -2.781  0.00  0.00    +0.038 A 
ATOM     11  C   UNL     1      29.298  22.209  -1.669  0.00  0.00    +0.047 A 
ATOM     12  C   UNL     1      28.756  23.400  -1.033  0.00  0.00    +0.035 A 
ATOM     32  C   UNL     1      29.125  24.673  -1.557  0.00  0.00    +0.024 A 
ATOM     33  C   UNL     1      30.015  24.788  -2.686  0.00  0.00    +0.007 A 
ATOM     34  C   UNL     1      30.554  23.617  -3.316  0.00  0.00    -0.029 A 
ATOM     35  C   UNL     1      31.508  23.801  -4.519  0.00  0.00    +0.045 C 
ENDROOT
BRANCH  10   9
ATOM      4  C   UNL     1      33.219  18.597  -2.880  0.00  0.00    +0.077 A 
ATOM      5  C   UNL     1      33.910  19.056  -1.710  0.00  0.00    +0.048 A 
ATOM      6  C   UNL     1      33.454  20.255  -1.116  0.00  0.00    +0.116 A 
ATOM      7  N   UNL     1      32.386  20.935  -1.661  0.00  0.00    -0.223 NA
ATOM      8  C   UNL     1      31.744  20.465  -2.792  0.00  0.00    +0.220 A 
ATOM      9  N   UNL     1      30.663  21.128  -3.352  0.00  0.00    -0.283 N 
ATOM     36  H   UNL     1      30.221  20.753  -4.191  0.00  0.00    +0.155 HD
ATOM     37  N   UNL     1      32.161  19.324  -3.378  0.00  0.00    -0.214 NA
BRANCH   4   3
ATOM      1  C   UNL     1      32.991  15.182  -4.775  0.00  0.00    +0.020 A 
ATOM      2  C   UNL     1      32.589  16.374  -4.064  0.00  0.00    +0.013 A 
ATOM      3  C   UNL     1      33.580  17.346  -3.619  0.00  0.00    +0.019 A 
ATOM     38  C   UNL     1      34.981  17.079  -3.912  0.00  0.00    +0.120 A 
ATOM     39  N   UNL     1      35.338  15.922  -4.596  0.00  0.00    -0.263 NA
ATOM     40  C   UNL     1      34.393  14.979  -5.028  0.00  0.00    +0.111 A 
ENDBRANCH   4   3
ENDBRANCH  10   9
BRANCH  12  13
ATOM     13  N   UNL     1      27.870  23.365   0.104  0.00  0.00    -0.281 N 
ATOM     14  C   UNL     1      28.062  22.721   1.315  0.00  0.00    +0.248 C 
ATOM     30  O   UNL     1      28.938  21.895   1.527  0.00  0.00    -0.270 OA
ATOM     31  H   UNL     1      26.993  23.878   0.003  0.00  0.00    +0.155 HD
BRANCH  14  15
ATOM     15  C   UNL     1      27.141  23.028   2.451  0.00  0.00    +0.037 A 
ATOM     16  C   UNL     1      25.742  23.395   2.217  0.00  0.00    +0.013 A 
ATOM     17  C   UNL     1      24.879  23.703   3.329  0.00  0.00    +0.005 A 
ATOM     18  C   UNL     1      25.413  23.644   4.688  0.00  0.00    -0.033 A 
ATOM     28  C   UNL     1      26.803  23.271   4.892  0.00  0.00    +0.005 A 
ATOM     29  C   UNL     1      27.652  22.970   3.804  0.00  0.00    +0.013 A 
BRANCH  18  19
ATOM     19  C   UNL     1      24.570  23.977   5.933  0.00  0.00    +0.119 C 
BRANCH  19  20
ATOM     20  N   UNL     1      24.027  22.828   6.718  0.00  0.00    -0.302 NA
ATOM     21  C   UNL     1      22.561  23.041   7.107  0.00  0.00    +0.066 C 
ATOM     22  C   UNL     1      22.002  21.820   7.908  0.00  0.00    -0.064 C 
ATOM     23  N   UNL     1      22.864  21.591   9.150  0.00  0.00    +0.379 N 
ATOM     24  C   UNL     1      22.306  20.480   9.936  0.00  0.00    -0.096 C 
ATOM     25  H   UNL     1      22.805  22.511   9.776  0.00  0.00    -0.082 HD
ATOM     26  C   UNL     1      24.323  21.381   8.773  0.00  0.00    -0.064 C 
ATOM     27  C   UNL     1      24.861  22.587   7.952  0.00  0.00    +0.066 C 
ENDBRANCH  19  20
ENDBRANCH  18  19
ENDBRANCH  14  15
ENDBRANCH  12  13
TORSDOF 6
ENDMDL
MODEL 3
REMARK VINA RESULT:     -10.5      4.530     13.961
REMARK  Name = C:\Users\Docking\Desktop\test protocol\1iep_ligandH.pdb
REMARK  8 active torsions:
REMARK  status: ('A' for Active; 'I' for Inactive)
REMARK    1  A    between atoms: _5  and  _11
REMARK    2  A    between atoms: _19  and  _21
REMARK    3  A    between atoms: _22  and  _66
REMARK    4  A    between atoms: _27  and  _30
REMARK    5  A    between atoms: _32  and  _33
REMARK    6  A    between atoms: _38  and  _43
REMARK    7  A    between atoms: _43  and  _46
REMARK    8  A    between atoms: _53  and  _55
REMARK                            x       y       z     vdW  Elec       q    Type
REMARK                         _______ _______ _______ _____ _____    ______ ____
ROOT
ATOM     10  C   UNL     1      32.316  20.850  -3.821  0.00  0.00    +0.038 A 
ATOM     11  C   UNL     1      31.276  21.162  -2.909  0.00  0.00    +0.047 A 
ATOM     12  C   UNL     1      31.565  21.748  -1.609  0.00  0.00    +0.035 A 
ATOM     32  C   UNL     1      32.926  22.004  -1.271  0.00  0.00    +0.024 A 
ATOM     33  C   UNL     1      33.996  21.691  -2.186  0.00  0.00    +0.007 A 
ATOM     34  C   UNL     1      33.717  21.111  -3.468  0.00  0.00    -0.029 A 
ATOM     35  C   UNL     1      34.905  20.791  -4.406  0.00  0.00    +0.045 C 
ENDROOT
BRANCH  10   9
ATOM      4  C   UNL     1      31.402  17.082  -6.650  0.00  0.00    +0.077 A 
ATOM      5  C   UNL     1      31.637  16.150  -5.585  0.00  0.00    +0.048 A 
ATOM      6  C   UNL     1      31.998  16.681  -4.326  0.00  0.00    +0.116 A 
ATOM      7  N   UNL     1      32.112  18.044  -4.157  0.00  0.00    -0.223 NA
ATOM      8  C   UNL     1      31.880  18.915  -5.205  0.00  0.00    +0.220 A 
ATOM      9  N   UNL     1      31.982  20.289  -5.055  0.00  0.00    -0.283 N 
ATOM     36  H   UNL     1      31.810  20.898  -5.855  0.00  0.00    +0.155 HD
ATOM     37  N   UNL     1      31.535  18.433  -6.418  0.00  0.00    -0.214 NA
BRANCH   4   3
ATOM      1  C   UNL     1      29.970  17.130 -10.290  0.00  0.00    +0.020 A 
ATOM      2  C   UNL     1      30.327  17.572  -8.962  0.00  0.00    +0.013 A 
ATOM      3  C   UNL     1      31.009  16.676  -8.037  0.00  0.00    +0.019 A 
ATOM     38  C   UNL     1      31.320  15.329  -8.491  0.00  0.00    +0.120 A 
ATOM     39  N   UNL     1      30.963  14.931  -9.776  0.00  0.00    -0.263 NA
ATOM     40  C   UNL     1      30.305  15.784 -10.674  0.00  0.00    +0.111 A 
ENDBRANCH   4   3
ENDBRANCH  10   9
BRANCH  12  13
ATOM     13  N   UNL     1      30.551  22.079  -0.639  0.00  0.00    -0.281 N 
ATOM     14  C   UNL     1      29.880  23.281  -0.485  0.00  0.00    +0.248 C 
ATOM     30  O   UNL     1      30.204  24.328  -1.026  0.00  0.00    -0.270 OA
ATOM     31  H   UNL     1      30.297  21.337   0.014  0.00  0.00    +0.155 HD
BRANCH  14  15
ATOM     15  C   UNL     1      28.684  23.331   0.410  0.00  0.00    +0.037 A 
ATOM     16  C   UNL     1      27.679  24.389   0.277  0.00  0.00    +0.013 A 
ATOM     17  C   UNL     1      26.544  24.423   1.165  0.00  0.00    +0.005 A 
ATOM     18  C   UNL     1      26.407  23.394   2.192  0.00  0.00    -0.033 A 
ATOM     28  C   UNL     1      27.415  22.353   2.298  0.00  0.00    +0.005 A 
ATOM     29  C   UNL     1      28.530  22.316   1.431  0.00  0.00    +0.013 A 
BRANCH  18  19
ATOM     19  C   UNL     1      25.239  23.365   3.196  0.00  0.00    +0.119 C 
BRANCH  19  20
ATOM     20  N   UNL     1      23.870  23.134   2.646  0.00  0.00    -0.302 NA
ATOM     21  C   UNL     1      22.801  23.912   3.419  0.00  0.00    +0.066 C 
ATOM     22  C   UNL     1      21.378  23.677   2.816  0.00  0.00    -0.064 C 
ATOM     23  N   UNL     1      21.067  22.179   2.819  0.00  0.00    +0.379 N 
ATOM     24  C   UNL     1      19.706  21.960   2.306  0.00  0.00    -0.096 C 
ATOM     25  H   UNL     1      21.090  21.831   3.878  0.00  0.00    -0.082 HD
ATOM     26  C   UNL     1      22.126  21.398   2.054  0.00  0.00    -0.064 C 
ATOM     27  C   UNL     1      23.540  21.662   2.643  0.00  0.00    +0.066 C 
ENDBRANCH  19  20
ENDBRANCH  18  19
ENDBRANCH  14  15
ENDBRANCH  12  13
TORSDOF 6
ENDMDL
MODEL 4
REMARK VINA RESULT:     -10.4      2.424      3.726
REMARK  Name = C:\Users\Docking\Desktop\test protocol\1iep_ligandH.pdb
REMARK  8 active torsions:
REMARK  status: ('A' for Active; 'I' for Inactive)
REMARK    1  A    between atoms: _5  and  _11
REMARK    2  A    between atoms: _19  and  _21
REMARK    3  A    between atoms: _22  and  _66
REMARK    4  A    between atoms: _27  and  _30
REMARK    5  A    between atoms: _32  and  _33
REMARK    6  A    between atoms: _38  and  _43
REMARK    7  A    between atoms: _43  and  _46
REMARK    8  A    between atoms: _53  and  _55
REMARK                            x       y       z     vdW  Elec       q    Type
REMARK                         _______ _______ _______ _____ _____    ______ ____
ROOT
ATOM     10  C   UNL     1      24.724  24.031   3.731  0.00  0.00    +0.038 A 
ATOM     11  C   UNL     1      26.004  23.634   3.266  0.00  0.00    +0.047 A 
ATOM     12  C   UNL     1      26.471  24.007   1.940  0.00  0.00    +0.035 A 
ATOM     32  C   UNL     1      25.610  24.787   1.115  0.00  0.00    +0.024 A 
ATOM     33  C   UNL     1      24.305  25.198   1.571  0.00  0.00    +0.007 A 
ATOM     34  C   UNL     1      23.838  24.831   2.877  0.00  0.00    -0.029 A 
ATOM     35  C   UNL     1      22.428  25.294   3.312  0.00  0.00    +0.045 C 
ENDROOT
BRANCH  10   9
ATOM      4  C   UNL     1      22.380  21.114   6.737  0.00  0.00    +0.077 A 
ATOM      5  C   UNL     1      21.885  20.306   5.660  0.00  0.00    +0.048 A 
ATOM      6  C   UNL     1      22.250  20.679   4.348  0.00  0.00    +0.116 A 
ATOM      7  N   UNL     1      23.052  21.780   4.139  0.00  0.00    -0.223 NA
ATOM      8  C   UNL     1      23.512  22.539   5.200  0.00  0.00    +0.220 A 
ATOM      9  N   UNL     1      24.326  23.645   5.013  0.00  0.00    -0.283 N 
ATOM     36  H   UNL     1      24.638  24.183   5.821  0.00  0.00    +0.155 HD
ATOM     37  N   UNL     1      23.175  22.204   6.463  0.00  0.00    -0.214 NA
BRANCH   4   3
ATOM      1  C   UNL     1      20.497  20.463  10.103  0.00  0.00    +0.020 A 
ATOM      2  C   UNL     1      20.728  20.723   8.701  0.00  0.00    +0.013 A 
ATOM      3  C   UNL     1      22.084  20.846   8.180  0.00  0.00    +0.019 A 
ATOM     38  C   UNL     1      23.192  20.698   9.112  0.00  0.00    +0.120 A 
ATOM     39  N   UNL     1      22.938  20.450  10.457  0.00  0.00    -0.263 NA
ATOM     40  C   UNL     1      21.638  20.332  10.970  0.00  0.00    +0.111 A 
ENDBRANCH   4   3
ENDBRANCH  10   9
BRANCH  12  13
ATOM     13  N   UNL     1      27.757  23.627   1.411  0.00  0.00    -0.281 N 
ATOM     14  C   UNL     1      28.314  22.360   1.355  0.00  0.00    +0.248 C 
ATOM     30  O   UNL     1      27.877  21.386   1.950  0.00  0.00    -0.270 OA
ATOM     31  H   UNL     1      28.326  24.383   1.031  0.00  0.00    +0.155 HD
BRANCH  14  15
ATOM     15  C   UNL     1      29.543  22.146   0.531  0.00  0.00    +0.037 A 
ATOM     16  C   UNL     1      29.741  22.855  -0.736  0.00  0.00    +0.013 A 
ATOM     17  C   UNL     1      30.927  22.618  -1.519  0.00  0.00    +0.005 A 
ATOM     18  C   UNL     1      31.927  21.668  -1.036  0.00  0.00    -0.033 A 
ATOM     28  C   UNL     1      31.708  20.983   0.227  0.00  0.00    +0.005 A 
ATOM     29  C   UNL     1      30.545  21.212   0.997  0.00  0.00    +0.013 A 
BRANCH  18  19
ATOM     19  C   UNL     1      33.212  21.338  -1.817  0.00  0.00    +0.119 C 
BRANCH  19  20
ATOM     20  N   UNL     1      33.087  20.409  -2.980  0.00  0.00    -0.302 NA
ATOM     21  C   UNL     1      32.795  21.157  -4.284  0.00  0.00    +0.066 C 
ATOM     22  C   UNL     1      32.689  20.172  -5.493  0.00  0.00    -0.064 C 
ATOM     23  N   UNL     1      31.602  19.134  -5.209  0.00  0.00    +0.379 N 
ATOM     24  C   UNL     1      31.460  18.242  -6.368  0.00  0.00    -0.096 C 
ATOM     25  H   UNL     1      30.638  19.680  -5.082  0.00  0.00    -0.082 HD
ATOM     26  C   UNL     1      31.883  18.388  -3.912  0.00  0.00    -0.064 C 
ATOM     27  C   UNL     1      32.015  19.378  -2.722  0.00  0.00    +0.066 C 
ENDBRANCH  19  20
ENDBRANCH  18  19
ENDBRANCH  14  15
ENDBRANCH  12  13
TORSDOF 6
ENDMDL
MODEL 5
REMARK VINA RESULT:     -10.4      3.693     13.927
REMARK  Name = C:\Users\Docking\Desktop\test protocol\1iep_ligandH.pdb
REMARK  8 active torsions:
REMARK  status: ('A' for Active; 'I' for Inactive)
REMARK    1  A    between atoms: _5  and  _11
REMARK    2  A    between atoms: _19  and  _21
REMARK    3  A    between atoms: _22  and  _66
REMARK    4  A    between atoms: _27  and  _30
REMARK    5  A    between atoms: _32  and  _33
REMARK    6  A    between atoms: _38  and  _43
REMARK    7  A    between atoms: _43  and  _46
REMARK    8  A    between atoms: _53  and  _55
REMARK                            x       y       z     vdW  Elec       q    Type
REMARK                         _______ _______ _______ _____ _____    ______ ____
ROOT
ATOM     10  C   UNL     1      32.236  20.981  -3.759  0.00  0.00    +0.038 A 
ATOM     11  C   UNL     1      31.165  21.391  -2.924  0.00  0.00    +0.047 A 
ATOM     12  C   UNL     1      31.413  22.011  -1.632  0.00  0.00    +0.035 A 
ATOM     32  C   UNL     1      32.765  22.201  -1.222  0.00  0.00    +0.024 A 
ATOM     33  C   UNL     1      33.866  21.789  -2.058  0.00  0.00    +0.007 A 
ATOM     34  C   UNL     1      33.627  21.174  -3.332  0.00  0.00    -0.029 A 
ATOM     35  C   UNL     1      34.846  20.747  -4.183  0.00  0.00    +0.045 C 
ENDROOT
BRANCH  10   9
ATOM      4  C   UNL     1      31.421  17.145  -6.527  0.00  0.00    +0.077 A 
ATOM      5  C   UNL     1      31.629  16.239  -5.434  0.00  0.00    +0.048 A 
ATOM      6  C   UNL     1      31.950  16.800  -4.178  0.00  0.00    +0.116 A 
ATOM      7  N   UNL     1      32.054  18.167  -4.037  0.00  0.00    -0.223 NA
ATOM      8  C   UNL     1      31.849  19.012  -5.111  0.00  0.00    +0.220 A 
ATOM      9  N   UNL     1      31.941  20.390  -4.990  0.00  0.00    -0.283 N 
ATOM     36  H   UNL     1      31.790  20.980  -5.808  0.00  0.00    +0.155 HD
ATOM     37  N   UNL     1      31.542  18.501  -6.322  0.00  0.00    -0.214 NA
BRANCH   4   3
ATOM      1  C   UNL     1      30.139  17.116 -10.222  0.00  0.00    +0.020 A 
ATOM      2  C   UNL     1      30.456  17.591  -8.895  0.00  0.00    +0.013 A 
ATOM      3  C   UNL     1      31.072  16.705  -7.915  0.00  0.00    +0.019 A 
ATOM     38  C   UNL     1      31.357  15.335  -8.313  0.00  0.00    +0.120 A 
ATOM     39  N   UNL     1      31.039  14.906  -9.598  0.00  0.00    -0.263 NA
ATOM     40  C   UNL     1      30.445  15.748 -10.549  0.00  0.00    +0.111 A 
ENDBRANCH   4   3
ENDBRANCH  10   9
BRANCH  12  13
ATOM     13  N   UNL     1      30.367  22.440  -0.738  0.00  0.00    -0.281 N 
ATOM     14  C   UNL     1      29.740  23.674  -0.692  0.00  0.00    +0.248 C 
ATOM     30  O   UNL     1      30.135  24.673  -1.275  0.00  0.00    -0.270 OA
ATOM     31  H   UNL     1      30.049  21.750  -0.057  0.00  0.00    +0.155 HD
BRANCH  14  15
ATOM     15  C   UNL     1      28.503  23.826   0.134  0.00  0.00    +0.037 A 
ATOM     16  C   UNL     1      28.196  22.892   1.221  0.00  0.00    +0.013 A 
ATOM     17  C   UNL     1      26.988  23.050   1.991  0.00  0.00    +0.005 A 
ATOM     18  C   UNL     1      26.078  24.149   1.678  0.00  0.00    -0.033 A 
ATOM     28  C   UNL     1      26.410  25.064   0.598  0.00  0.00    +0.005 A 
ATOM     29  C   UNL     1      27.592  24.911  -0.160  0.00  0.00    +0.013 A 
BRANCH  18  19
ATOM     19  C   UNL     1      24.756  24.382   2.433  0.00  0.00    +0.119 C 
BRANCH  19  20
ATOM     20  N   UNL     1      24.534  23.592   3.681  0.00  0.00    -0.302 NA
ATOM     21  C   UNL     1      23.062  23.212   3.866  0.00  0.00    +0.066 C 
ATOM     22  C   UNL     1      22.852  22.367   5.165  0.00  0.00    -0.064 C 
ATOM     23  N   UNL     1      23.362  23.156   6.372  0.00  0.00    +0.379 N 
ATOM     24  C   UNL     1      23.113  22.389   7.601  0.00  0.00    -0.096 C 
ATOM     25  H   UNL     1      22.770  24.099   6.434  0.00  0.00    -0.082 HD
ATOM     26  C   UNL     1      24.824  23.541   6.195  0.00  0.00    -0.064 C 
ATOM     27  C   UNL     1      25.027  24.355   4.886  0.00  0.00    +0.066 C 
ENDBRANCH  19  20
ENDBRANCH  18  19
ENDBRANCH  14  15
ENDBRANCH  12  13
TORSDOF 6
ENDMDL
