MODEL 1
REMARK VINA RESULT:      -9.4      0.000      0.000
REMARK  Name = C:\Users\Docking\Desktop\test protocol\1iep_ligandH.pdb
REMARK  8 active torsions:
REMARK  status: ('A' for Active; 'I' for Inactive)
REMARK    1  A    between atoms: _5  and  _11
REMARK    2  A    between atoms: _19  and  _21
REMARK    3  A    between atoms: _22  and  _66
REMARK    4  A    between atoms: _27  and  _30
REMARK    5  A    between atoms: _32  and  _33
REMARK    6  A    between atoms: _38  and  _43
REMARK    7  A    between atoms: _43  and  _46
REMARK    8  A    between atoms: _53  and  _55
REMARK                            x       y       z     vdW  Elec       q    Type
REMARK                         _______ _______ _______ _____ _____    ______ ____
ROOT
ATOM     10  C   UNL     1     -25.034 -16.630   6.351  0.00  0.00    +0.038 A 
ATOM     11  C   UNL     1     -24.262 -17.405   5.448  0.00  0.00    +0.047 A 
ATOM     12  C   UNL     1     -24.347 -18.857   5.439  0.00  0.00    +0.035 A 
ATOM     32  C   UNL     1     -25.231 -19.488   6.362  0.00  0.00    +0.024 A 
ATOM     33  C   UNL     1     -26.022 -18.715   7.288  0.00  0.00    +0.007 A 
ATOM     34  C   UNL     1     -25.941 -17.283   7.303  0.00  0.00    -0.029 A 
ATOM     35  C   UNL     1     -26.807 -16.506   8.321  0.00  0.00    +0.045 C 
ENDROOT
BRANCH  10   9
ATOM      4  C   UNL     1     -22.962 -12.526   7.729  0.00  0.00    +0.077 A 
ATOM      5  C   UNL     1     -22.062 -13.208   8.614  0.00  0.00    +0.048 A 
ATOM      6  C   UNL     1     -22.170 -14.615   8.691  0.00  0.00    +0.116 A 
ATOM      7  N   UNL     1     -23.111 -15.280   7.934  0.00  0.00    -0.223 NA
ATOM      8  C   UNL     1     -23.964 -14.591   7.092  0.00  0.00    +0.220 A 
ATOM      9  N   UNL     1     -24.912 -15.239   6.316  0.00  0.00    -0.283 N 
ATOM     36  H   UNL     1     -25.528 -14.695   5.713  0.00  0.00    +0.155 HD
ATOM     37  N   UNL     1     -23.882 -13.247   7.002  0.00  0.00    -0.214 NA
BRANCH   4   3
ATOM      1  C   UNL     1     -23.431  -8.965   6.180  0.00  0.00    +0.020 A 
ATOM      2  C   UNL     1     -23.445 -10.403   6.315  0.00  0.00    +0.013 A 
ATOM      3  C   UNL     1     -22.968 -11.041   7.536  0.00  0.00    +0.019 A 
ATOM     38  C   UNL     1     -22.480 -10.189   8.609  0.00  0.00    +0.120 A 
ATOM     39  N   UNL     1     -22.477  -8.806   8.450  0.00  0.00    -0.263 NA
ATOM     40  C   UNL     1     -22.932  -8.181   7.279  0.00  0.00    +0.111 A 
ENDBRANCH   4   3
ENDBRANCH  10   9
BRANCH  12  13
ATOM     13  N   UNL     1     -23.582 -19.697   4.551  0.00  0.00    -0.281 N 
ATOM     14  C   UNL     1     -23.824 -19.966   3.214  0.00  0.00    +0.248 C 
ATOM     30  O   UNL     1     -24.863 -19.694   2.632  0.00  0.00    -0.270 OA
ATOM     31  H   UNL     1     -22.761 -20.147   4.958  0.00  0.00    +0.155 HD
BRANCH  14  15
ATOM     15  C   UNL     1     -22.765 -20.650   2.412  0.00  0.00    +0.037 A 
ATOM     16  C   UNL     1     -21.572 -19.931   1.958  0.00  0.00    +0.013 A 
ATOM     17  C   UNL     1     -20.573 -20.610   1.171  0.00  0.00    +0.005 A 
ATOM     18  C   UNL     1     -20.764 -22.019   0.834  0.00  0.00    -0.033 A 
ATOM     28  C   UNL     1     -21.954 -22.710   1.301  0.00  0.00    +0.005 A 
ATOM     29  C   UNL     1     -22.935 -22.047   2.072  0.00  0.00    +0.013 A 
BRANCH  18  19
ATOM     19  C   UNL     1     -19.761 -22.817  -0.020  0.00  0.00    +0.119 C 
BRANCH  19  20
ATOM     20  N   UNL     1     -18.755 -23.649   0.707  0.00  0.00    -0.302 NA
ATOM     21  C   UNL     1     -19.313 -25.023   1.088  0.00  0.00    +0.066 C 
ATOM     22  C   UNL     1     -18.241 -25.888   1.827  0.00  0.00    -0.064 C 
ATOM     23  N   UNL     1     -17.752 -25.139   3.068  0.00  0.00    +0.379 N 
ATOM     24  C   UNL     1     -16.787 -25.974   3.796  0.00  0.00    -0.096 C 
ATOM     25  H   UNL     1     -18.632 -24.979   3.734  0.00  0.00    -0.082 HD
ATOM     26  C   UNL     1     -17.198 -23.770   2.698  0.00  0.00    -0.064 C 
ATOM     27  C   UNL     1     -18.262 -22.930   1.938  0.00  0.00    +0.066 C 
ENDBRANCH  19  20
ENDBRANCH  18  19
ENDBRANCH  14  15
ENDBRANCH  12  13
TORSDOF 6
ENDMDL
MODEL 2
REMARK VINA RESULT:      -9.3      0.868      1.523
REMARK  Name = C:\Users\Docking\Desktop\test protocol\1iep_ligandH.pdb
REMARK  8 active torsions:
REMARK  status: ('A' for Active; 'I' for Inactive)
REMARK    1  A    between atoms: _5  and  _11
REMARK    2  A    between atoms: _19  and  _21
REMARK    3  A    between atoms: _22  and  _66
REMARK    4  A    between atoms: _27  and  _30
REMARK    5  A    between atoms: _32  and  _33
REMARK    6  A    between atoms: _38  and  _43
REMARK    7  A    between atoms: _43  and  _46
REMARK    8  A    between atoms: _53  and  _55
REMARK                            x       y       z     vdW  Elec       q    Type
REMARK                         _______ _______ _______ _____ _____    ______ ____
ROOT
ATOM     10  C   UNL     1     -24.726 -16.743   6.633  0.00  0.00    +0.038 A 
ATOM     11  C   UNL     1     -23.946 -17.483   5.708  0.00  0.00    +0.047 A 
ATOM     12  C   UNL     1     -24.218 -18.888   5.449  0.00  0.00    +0.035 A 
ATOM     32  C   UNL     1     -25.294 -19.508   6.148  0.00  0.00    +0.024 A 
ATOM     33  C   UNL     1     -26.097 -18.772   7.092  0.00  0.00    +0.007 A 
ATOM     34  C   UNL     1     -25.832 -17.386   7.354  0.00  0.00    -0.029 A 
ATOM     35  C   UNL     1     -26.721 -16.647   8.381  0.00  0.00    +0.045 C 
ENDROOT
BRANCH  10   9
ATOM      4  C   UNL     1     -22.197 -13.257   8.751  0.00  0.00    +0.077 A 
ATOM      5  C   UNL     1     -21.437 -14.197   9.524  0.00  0.00    +0.048 A 
ATOM      6  C   UNL     1     -21.733 -15.568   9.352  0.00  0.00    +0.116 A 
ATOM      7  N   UNL     1     -22.717 -15.958   8.470  0.00  0.00    -0.223 NA
ATOM      8  C   UNL     1     -23.433 -15.026   7.742  0.00  0.00    +0.220 A 
ATOM      9  N   UNL     1     -24.421 -15.397   6.843  0.00  0.00    -0.283 N 
ATOM     36  H   UNL     1     -24.931 -14.678   6.330  0.00  0.00    +0.155 HD
ATOM     37  N   UNL     1     -23.170 -13.711   7.888  0.00  0.00    -0.214 NA
BRANCH   4   3
ATOM      1  C   UNL     1     -20.989  -9.698   9.834  0.00  0.00    +0.020 A 
ATOM      2  C   UNL     1     -21.147 -11.134   9.812  0.00  0.00    +0.013 A 
ATOM      3  C   UNL     1     -21.999 -11.775   8.819  0.00  0.00    +0.019 A 
ATOM     38  C   UNL     1     -22.683 -10.927   7.853  0.00  0.00    +0.120 A 
ATOM     39  N   UNL     1     -22.513  -9.547   7.900  0.00  0.00    -0.263 NA
ATOM     40  C   UNL     1     -21.697  -8.919   8.853  0.00  0.00    +0.111 A 
ENDBRANCH   4   3
ENDBRANCH  10   9
BRANCH  12  13
ATOM     13  N   UNL     1     -23.454 -19.693   4.527  0.00  0.00    -0.281 N 
ATOM     14  C   UNL     1     -23.723 -19.943   3.191  0.00  0.00    +0.248 C 
ATOM     30  O   UNL     1     -24.782 -19.685   2.639  0.00  0.00    -0.270 OA
ATOM     31  H   UNL     1     -22.614 -20.130   4.905  0.00  0.00    +0.155 HD
BRANCH  14  15
ATOM     15  C   UNL     1     -22.667 -20.586   2.351  0.00  0.00    +0.037 A 
ATOM     16  C   UNL     1     -22.776 -21.987   1.936  0.00  0.00    +0.013 A 
ATOM     17  C   UNL     1     -21.735 -22.588   1.140  0.00  0.00    +0.005 A 
ATOM     18  C   UNL     1     -20.577 -21.786   0.752  0.00  0.00    -0.033 A 
ATOM     28  C   UNL     1     -20.497 -20.398   1.174  0.00  0.00    +0.005 A 
ATOM     29  C   UNL     1     -21.515 -19.806   1.955  0.00  0.00    +0.013 A 
BRANCH  18  19
ATOM     19  C   UNL     1     -19.409 -22.351  -0.078  0.00  0.00    +0.119 C 
BRANCH  19  20
ATOM     20  N   UNL     1     -18.500 -23.326   0.595  0.00  0.00    -0.302 NA
ATOM     21  C   UNL     1     -19.010 -24.765   0.474  0.00  0.00    +0.066 C 
ATOM     22  C   UNL     1     -18.035 -25.774   1.164  0.00  0.00    -0.064 C 
ATOM     23  N   UNL     1     -17.857 -25.383   2.633  0.00  0.00    +0.379 N 
ATOM     24  C   UNL     1     -16.987 -26.364   3.299  0.00  0.00    -0.096 C 
ATOM     25  H   UNL     1     -18.858 -25.433   3.120  0.00  0.00    -0.082 HD
ATOM     26  C   UNL     1     -17.352 -23.953   2.761  0.00  0.00    -0.064 C 
ATOM     27  C   UNL     1     -18.312 -22.962   2.047  0.00  0.00    +0.066 C 
ENDBRANCH  19  20
ENDBRANCH  18  19
ENDBRANCH  14  15
ENDBRANCH  12  13
TORSDOF 6
ENDMDL
MODEL 3
REMARK VINA RESULT:      -9.0      1.966      2.577
REMARK  Name = C:\Users\Docking\Desktop\test protocol\1iep_ligandH.pdb
REMARK  8 active torsions:
REMARK  status: ('A' for Active; 'I' for Inactive)
REMARK    1  A    between atoms: _5  and  _11
REMARK    2  A    between atoms: _19  and  _21
REMARK    3  A    between atoms: _22  and  _66
REMARK    4  A    between atoms: _27  and  _30
REMARK    5  A    between atoms: _32  and  _33
REMARK    6  A    between atoms: _38  and  _43
REMARK    7  A    between atoms: _43  and  _46
REMARK    8  A    between atoms: _53  and  _55
REMARK                            x       y       z     vdW  Elec       q    Type
REMARK                         _______ _______ _______ _____ _____    ______ ____
ROOT
ATOM     10  C   UNL     1     -26.087 -18.319   7.544  0.00  0.00    +0.038 A 
ATOM     11  C   UNL     1     -25.433 -19.126   6.579  0.00  0.00    +0.047 A 
ATOM     12  C   UNL     1     -25.622 -20.568   6.550  0.00  0.00    +0.035 A 
ATOM     32  C   UNL     1     -26.487 -21.155   7.518  0.00  0.00    +0.024 A 
ATOM     33  C   UNL     1     -27.160 -20.350   8.508  0.00  0.00    +0.007 A 
ATOM     34  C   UNL     1     -26.975 -18.927   8.542  0.00  0.00    -0.029 A 
ATOM     35  C   UNL     1     -27.716 -18.115   9.630  0.00  0.00    +0.045 C 
ENDROOT
BRANCH  10   9
ATOM      4  C   UNL     1     -23.700 -14.392   8.928  0.00  0.00    +0.077 A 
ATOM      5  C   UNL     1     -22.830 -15.149   9.781  0.00  0.00    +0.048 A 
ATOM      6  C   UNL     1     -23.035 -16.546   9.841  0.00  0.00    +0.116 A 
ATOM      7  N   UNL     1     -24.037 -17.131   9.098  0.00  0.00    -0.223 NA
ATOM      8  C   UNL     1     -24.860 -16.371   8.287  0.00  0.00    +0.220 A 
ATOM      9  N   UNL     1     -25.870 -16.939   7.526  0.00  0.00    -0.283 N 
ATOM     36  H   UNL     1     -26.460 -16.344   6.946  0.00  0.00    +0.155 HD
ATOM     37  N   UNL     1     -24.686 -15.035   8.214  0.00  0.00    -0.214 NA
BRANCH   4   3
ATOM      1  C   UNL     1     -23.883 -10.539   9.581  0.00  0.00    +0.020 A 
ATOM      2  C   UNL     1     -23.993 -11.963   9.798  0.00  0.00    +0.013 A 
ATOM      3  C   UNL     1     -23.608 -12.907   8.756  0.00  0.00    +0.019 A 
ATOM     38  C   UNL     1     -23.111 -12.373   7.497  0.00  0.00    +0.120 A 
ATOM     39  N   UNL     1     -23.018 -10.997   7.316  0.00  0.00    -0.263 NA
ATOM     40  C   UNL     1     -23.387 -10.079   8.311  0.00  0.00    +0.111 A 
ENDBRANCH   4   3
ENDBRANCH  10   9
BRANCH  12  13
ATOM     13  N   UNL     1     -24.978 -21.439   5.599  0.00  0.00    -0.281 N 
ATOM     14  C   UNL     1     -25.545 -22.077   4.508  0.00  0.00    +0.248 C 
ATOM     30  O   UNL     1     -26.748 -22.166   4.308  0.00  0.00    -0.270 OA
ATOM     31  H   UNL     1     -23.982 -21.605   5.747  0.00  0.00    +0.155 HD
BRANCH  14  15
ATOM     15  C   UNL     1     -24.648 -22.722   3.501  0.00  0.00    +0.037 A 
ATOM     16  C   UNL     1     -23.670 -21.939   2.743  0.00  0.00    +0.013 A 
ATOM     17  C   UNL     1     -22.829 -22.583   1.766  0.00  0.00    +0.005 A 
ATOM     18  C   UNL     1     -22.961 -24.021   1.543  0.00  0.00    -0.033 A 
ATOM     28  C   UNL     1     -23.936 -24.775   2.313  0.00  0.00    +0.005 A 
ATOM     29  C   UNL     1     -24.764 -24.147   3.271  0.00  0.00    +0.013 A 
BRANCH  18  19
ATOM     19  C   UNL     1     -22.120 -24.788   0.506  0.00  0.00    +0.119 C 
BRANCH  19  20
ATOM     20  N   UNL     1     -20.786 -25.294   0.947  0.00  0.00    -0.302 NA
ATOM     21  C   UNL     1     -20.895 -26.220   2.161  0.00  0.00    +0.066 C 
ATOM     22  C   UNL     1     -19.493 -26.757   2.595  0.00  0.00    -0.064 C 
ATOM     23  N   UNL     1     -18.568 -25.577   2.896  0.00  0.00    +0.379 N 
ATOM     24  C   UNL     1     -17.266 -26.079   3.360  0.00  0.00    -0.096 C 
ATOM     25  H   UNL     1     -19.023 -24.994   3.730  0.00  0.00    -0.082 HD
ATOM     26  C   UNL     1     -18.455 -24.649   1.694  0.00  0.00    -0.064 C 
ATOM     27  C   UNL     1     -19.857 -24.144   1.252  0.00  0.00    +0.066 C 
ENDBRANCH  19  20
ENDBRANCH  18  19
ENDBRANCH  14  15
ENDBRANCH  12  13
TORSDOF 6
ENDMDL
MODEL 4
REMARK VINA RESULT:      -8.9      3.629      5.074
REMARK  Name = C:\Users\Docking\Desktop\test protocol\1iep_ligandH.pdb
REMARK  8 active torsions:
REMARK  status: ('A' for Active; 'I' for Inactive)
REMARK    1  A    between atoms: _5  and  _11
REMARK    2  A    between atoms: _19  and  _21
REMARK    3  A    between atoms: _22  and  _66
REMARK    4  A    between atoms: _27  and  _30
REMARK    5  A    between atoms: _32  and  _33
REMARK    6  A    between atoms: _38  and  _43
REMARK    7  A    between atoms: _43  and  _46
REMARK    8  A    between atoms: _53  and  _55
REMARK                            x       y       z     vdW  Elec       q    Type
REMARK                         _______ _______ _______ _____ _____    ______ ____
ROOT
ATOM     10  C   UNL     1     -25.402 -17.640   8.571  0.00  0.00    +0.038 A 
ATOM     11  C   UNL     1     -25.405 -18.337   7.337  0.00  0.00    +0.047 A 
ATOM     12  C   UNL     1     -25.677 -19.765   7.279  0.00  0.00    +0.035 A 
ATOM     32  C   UNL     1     -25.945 -20.451   8.500  0.00  0.00    +0.024 A 
ATOM     33  C   UNL     1     -25.945 -19.758   9.764  0.00  0.00    +0.007 A 
ATOM     34  C   UNL     1     -25.675 -18.350   9.827  0.00  0.00    -0.029 A 
ATOM     35  C   UNL     1     -25.682 -17.660  11.210  0.00  0.00    +0.045 C 
ENDROOT
BRANCH  10   9
ATOM      4  C   UNL     1     -22.403 -13.912   8.954  0.00  0.00    +0.077 A 
ATOM      5  C   UNL     1     -21.279 -14.766   9.209  0.00  0.00    +0.048 A 
ATOM      6  C   UNL     1     -21.517 -16.159   9.240  0.00  0.00    +0.116 A 
ATOM      7  N   UNL     1     -22.787 -16.649   9.031  0.00  0.00    -0.223 NA
ATOM      8  C   UNL     1     -23.850 -15.797   8.789  0.00  0.00    +0.220 A 
ATOM      9  N   UNL     1     -25.134 -16.269   8.568  0.00  0.00    -0.283 N 
ATOM     36  H   UNL     1     -25.892 -15.608   8.400  0.00  0.00    +0.155 HD
ATOM     37  N   UNL     1     -23.649 -14.463   8.755  0.00  0.00    -0.214 NA
BRANCH   4   3
ATOM      1  C   UNL     1     -21.467 -10.191   9.713  0.00  0.00    +0.020 A 
ATOM      2  C   UNL     1     -21.521 -11.630   9.822  0.00  0.00    +0.013 A 
ATOM      3  C   UNL     1     -22.312 -12.419   8.886  0.00  0.00    +0.019 A 
ATOM     38  C   UNL     1     -23.041 -11.715   7.842  0.00  0.00    +0.120 A 
ATOM     39  N   UNL     1     -22.971 -10.327   7.762  0.00  0.00    -0.263 NA
ATOM     40  C   UNL     1     -22.214  -9.558   8.658  0.00  0.00    +0.111 A 
ENDBRANCH   4   3
ENDBRANCH  10   9
BRANCH  12  13
ATOM     13  N   UNL     1     -25.686 -20.528   6.056  0.00  0.00    -0.281 N 
ATOM     14  C   UNL     1     -24.658 -20.679   5.139  0.00  0.00    +0.248 C 
ATOM     30  O   UNL     1     -23.640 -20.004   5.125  0.00  0.00    -0.270 OA
ATOM     31  H   UNL     1     -26.555 -21.016   5.839  0.00  0.00    +0.155 HD
BRANCH  14  15
ATOM     15  C   UNL     1     -24.787 -21.721   4.076  0.00  0.00    +0.037 A 
ATOM     16  C   UNL     1     -25.672 -22.876   4.246  0.00  0.00    +0.013 A 
ATOM     17  C   UNL     1     -25.764 -23.876   3.212  0.00  0.00    +0.005 A 
ATOM     18  C   UNL     1     -24.969 -23.724   1.996  0.00  0.00    -0.033 A 
ATOM     28  C   UNL     1     -24.103 -22.566   1.851  0.00  0.00    +0.005 A 
ATOM     29  C   UNL     1     -24.009 -21.584   2.863  0.00  0.00    +0.013 A 
BRANCH  18  19
ATOM     19  C   UNL     1     -24.989 -24.752   0.850  0.00  0.00    +0.119 C 
BRANCH  19  20
ATOM     20  N   UNL     1     -25.216 -24.232  -0.532  0.00  0.00    -0.302 NA
ATOM     21  C   UNL     1     -26.505 -23.411  -0.631  0.00  0.00    +0.066 C 
ATOM     22  C   UNL     1     -26.716 -22.856  -2.078  0.00  0.00    -0.064 C 
ATOM     23  N   UNL     1     -26.737 -24.020  -3.070  0.00  0.00    +0.379 N 
ATOM     24  C   UNL     1     -26.993 -23.506  -4.423  0.00  0.00    -0.096 C 
ATOM     25  H   UNL     1     -27.589 -24.684  -2.793  0.00  0.00    -0.082 HD
ATOM     26  C   UNL     1     -25.461 -24.844  -2.975  0.00  0.00    -0.064 C 
ATOM     27  C   UNL     1     -25.246 -25.366  -1.527  0.00  0.00    +0.066 C 
ENDBRANCH  19  20
ENDBRANCH  18  19
ENDBRANCH  14  15
ENDBRANCH  12  13
TORSDOF 6
ENDMDL
MODEL 5
REMARK VINA RESULT:      -8.8      2.021      2.720
REMARK  Name = C:\Users\Docking\Desktop\test protocol\1iep_ligandH.pdb
REMARK  8 active torsions:
REMARK  status: ('A' for Active; 'I' for Inactive)
REMARK    1  A    between atoms: _5  and  _11
REMARK    2  A    between atoms: _19  and  _21
REMARK    3  A    between atoms: _22  and  _66
REMARK    4  A    between atoms: _27  and  _30
REMARK    5  A    between atoms: _32  and  _33
REMARK    6  A    between atoms: _38  and  _43
REMARK    7  A    between atoms: _43  and  _46
REMARK    8  A    between atoms: _53  and  _55
REMARK                            x       y       z     vdW  Elec       q    Type
REMARK                         _______ _______ _______ _____ _____    ______ ____
ROOT
ATOM     10  C   UNL     1     -25.780 -17.528   7.415  0.00  0.00    +0.038 A 
ATOM     11  C   UNL     1     -25.323 -18.196   6.250  0.00  0.00    +0.047 A 
ATOM     12  C   UNL     1     -25.704 -19.572   5.973  0.00  0.00    +0.035 A 
ATOM     32  C   UNL     1     -26.555 -20.237   6.903  0.00  0.00    +0.024 A 
ATOM     33  C   UNL     1     -27.028 -19.574   8.093  0.00  0.00    +0.007 A 
ATOM     34  C   UNL     1     -26.653 -18.217   8.372  0.00  0.00    -0.029 A 
ATOM     35  C   UNL     1     -27.184 -17.558   9.667  0.00  0.00    +0.045 C 
ENDROOT
BRANCH  10   9
ATOM      4  C   UNL     1     -22.586 -14.252   8.868  0.00  0.00    +0.077 A 
ATOM      5  C   UNL     1     -21.640 -15.259   9.253  0.00  0.00    +0.048 A 
ATOM      6  C   UNL     1     -22.017 -16.608   9.068  0.00  0.00    +0.116 A 
ATOM      7  N   UNL     1     -23.250 -16.916   8.536  0.00  0.00    -0.223 NA
ATOM      8  C   UNL     1     -24.140 -15.920   8.176  0.00  0.00    +0.220 A 
ATOM      9  N   UNL     1     -25.382 -16.206   7.631  0.00  0.00    -0.283 N 
ATOM     36  H   UNL     1     -26.013 -15.444   7.386  0.00  0.00    +0.155 HD
ATOM     37  N   UNL     1     -23.804 -14.624   8.344  0.00  0.00    -0.214 NA
BRANCH   4   3
ATOM      1  C   UNL     1     -21.313 -10.783  10.151  0.00  0.00    +0.020 A 
ATOM      2  C   UNL     1     -21.528 -12.210  10.070  0.00  0.00    +0.013 A 
ATOM      3  C   UNL     1     -22.333 -12.782   8.999  0.00  0.00    +0.019 A 
ATOM     38  C   UNL     1     -22.911 -11.877   8.017  0.00  0.00    +0.120 A 
ATOM     39  N   UNL     1     -22.689 -10.508   8.121  0.00  0.00    -0.263 NA
ATOM     40  C   UNL     1     -21.917  -9.945   9.148  0.00  0.00    +0.111 A 
ENDBRANCH   4   3
ENDBRANCH  10   9
BRANCH  12  13
ATOM     13  N   UNL     1     -25.265 -20.304   4.811  0.00  0.00    -0.281 N 
ATOM     14  C   UNL     1     -24.034 -20.238   4.179  0.00  0.00    +0.248 C 
ATOM     30  O   UNL     1     -23.193 -19.378   4.391  0.00  0.00    -0.270 OA
ATOM     31  H   UNL     1     -25.944 -20.948   4.406  0.00  0.00    +0.155 HD
BRANCH  14  15
ATOM     15  C   UNL     1     -23.695 -21.270   3.152  0.00  0.00    +0.037 A 
ATOM     16  C   UNL     1     -24.390 -22.559   3.110  0.00  0.00    +0.013 A 
ATOM     17  C   UNL     1     -24.031 -23.543   2.120  0.00  0.00    +0.005 A 
ATOM     18  C   UNL     1     -22.971 -23.240   1.161  0.00  0.00    -0.033 A 
ATOM     28  C   UNL     1     -22.301 -21.952   1.222  0.00  0.00    +0.005 A 
ATOM     29  C   UNL     1     -22.650 -20.985   2.192  0.00  0.00    +0.013 A 
BRANCH  18  19
ATOM     19  C   UNL     1     -22.508 -24.239   0.084  0.00  0.00    +0.119 C 
BRANCH  19  20
ATOM     20  N   UNL     1     -21.754 -25.442   0.546  0.00  0.00    -0.302 NA
ATOM     21  C   UNL     1     -22.670 -26.475   1.209  0.00  0.00    +0.066 C 
ATOM     22  C   UNL     1     -21.869 -27.737   1.666  0.00  0.00    -0.064 C 
ATOM     23  N   UNL     1     -20.752 -27.311   2.621  0.00  0.00    +0.379 N 
ATOM     24  C   UNL     1     -20.033 -28.501   3.098  0.00  0.00    -0.096 C 
ATOM     25  H   UNL     1     -21.230 -26.827   3.505  0.00  0.00    -0.082 HD
ATOM     26  C   UNL     1     -19.838 -26.282   1.970  0.00  0.00    -0.064 C 
ATOM     27  C   UNL     1     -20.649 -25.045   1.493  0.00  0.00    +0.066 C 
ENDBRANCH  19  20
ENDBRANCH  18  19
ENDBRANCH  14  15
ENDBRANCH  12  13
TORSDOF 6
ENDMDL
