MODEL 1
REMARK VINA RESULT:      -8.0      0.000      0.000
REMARK  Name = C:\Users\Docking\Desktop\test protocol\1iep_ligandH.pdb
REMARK  8 active torsions:
REMARK  status: ('A' for Active; 'I' for Inactive)
REMARK    1  A    between atoms: _5  and  _11
REMARK    2  A    between atoms: _19  and  _21
REMARK    3  A    between atoms: _22  and  _66
REMARK    4  A    between atoms: _27  and  _30
REMARK    5  A    between atoms: _32  and  _33
REMARK    6  A    between atoms: _38  and  _43
REMARK    7  A    between atoms: _43  and  _46
REMARK    8  A    between atoms: _53  and  _55
REMARK                            x       y       z     vdW  Elec       q    Type
REMARK                         _______ _______ _______ _____ _____    ______ ____
ROOT
ATOM     10  C   UNL     1       4.367 -13.992  18.988  0.00  0.00    +0.038 A 
ATOM     11  C   UNL     1       4.960 -15.234  19.329  0.00  0.00    +0.047 A 
ATOM     12  C   UNL     1       6.285 -15.297  19.926  0.00  0.00    +0.035 A 
ATOM     32  C   UNL     1       6.977 -14.074  20.165  0.00  0.00    +0.024 A 
ATOM     33  C   UNL     1       6.389 -12.802  19.823  0.00  0.00    +0.007 A 
ATOM     34  C   UNL     1       5.084 -12.734  19.232  0.00  0.00    -0.029 A 
ATOM     35  C   UNL     1       4.506 -11.343  18.880  0.00  0.00    +0.045 C 
ENDROOT
BRANCH  10   9
ATOM      4  C   UNL     1       1.223 -15.407  15.649  0.00  0.00    +0.077 A 
ATOM      5  C   UNL     1       2.210 -16.196  14.969  0.00  0.00    +0.048 A 
ATOM      6  C   UNL     1       3.516 -16.204  15.507  0.00  0.00    +0.116 A 
ATOM      7  N   UNL     1       3.803 -15.476  16.641  0.00  0.00    -0.223 NA
ATOM      8  C   UNL     1       2.828 -14.724  17.271  0.00  0.00    +0.220 A 
ATOM      9  N   UNL     1       3.092 -13.990  18.417  0.00  0.00    -0.283 N 
ATOM     36  H   UNL     1       2.347 -13.442  18.848  0.00  0.00    +0.155 HD
ATOM     37  N   UNL     1       1.573 -14.698  16.776  0.00  0.00    -0.214 NA
BRANCH   4   3
ATOM      1  C   UNL     1      -1.982 -14.659  13.535  0.00  0.00    +0.020 A 
ATOM      2  C   UNL     1      -0.591 -14.740  13.916  0.00  0.00    +0.013 A 
ATOM      3  C   UNL     1      -0.203 -15.299  15.205  0.00  0.00    +0.019 A 
ATOM     38  C   UNL     1      -1.255 -15.772  16.092  0.00  0.00    +0.120 A 
ATOM     39  N   UNL     1      -2.587 -15.680  15.698  0.00  0.00    -0.263 NA
ATOM     40  C   UNL     1      -2.972 -15.142  14.461  0.00  0.00    +0.111 A 
ENDBRANCH   4   3
ENDBRANCH  10   9
BRANCH  12  13
ATOM     13  N   UNL     1       6.941 -16.529  20.286  0.00  0.00    -0.281 N 
ATOM     14  C   UNL     1       7.987 -17.160  19.632  0.00  0.00    +0.248 C 
ATOM     30  O   UNL     1       8.378 -16.867  18.512  0.00  0.00    -0.270 OA
ATOM     31  H   UNL     1       6.592 -16.993  21.125  0.00  0.00    +0.155 HD
BRANCH  14  15
ATOM     15  C   UNL     1       8.691 -18.287  20.315  0.00  0.00    +0.037 A 
ATOM     16  C   UNL     1       8.778 -18.355  21.776  0.00  0.00    +0.013 A 
ATOM     17  C   UNL     1       9.478 -19.444  22.409  0.00  0.00    +0.005 A 
ATOM     18  C   UNL     1      10.095 -20.477  21.581  0.00  0.00    -0.033 A 
ATOM     28  C   UNL     1       9.988 -20.388  20.134  0.00  0.00    +0.005 A 
ATOM     29  C   UNL     1       9.304 -19.321  19.509  0.00  0.00    +0.013 A 
BRANCH  18  19
ATOM     19  C   UNL     1      10.879 -21.665  22.170  0.00  0.00    +0.119 C 
BRANCH  19  20
ATOM     20  N   UNL     1      12.050 -21.346  23.039  0.00  0.00    -0.302 NA
ATOM     21  C   UNL     1      13.357 -21.906  22.470  0.00  0.00    +0.066 C 
ATOM     22  C   UNL     1      14.575 -21.544  23.381  0.00  0.00    -0.064 C 
ATOM     23  N   UNL     1      14.329 -22.076  24.793  0.00  0.00    +0.379 N 
ATOM     24  C   UNL     1      15.497 -21.789  25.637  0.00  0.00    -0.096 C 
ATOM     25  H   UNL     1      14.226 -23.184  24.724  0.00  0.00    -0.082 HD
ATOM     26  C   UNL     1      13.029 -21.527  25.366  0.00  0.00    -0.064 C 
ATOM     27  C   UNL     1      11.829 -21.867  24.438  0.00  0.00    +0.066 C 
ENDBRANCH  19  20
ENDBRANCH  18  19
ENDBRANCH  14  15
ENDBRANCH  12  13
TORSDOF 6
ENDMDL
MODEL 2
REMARK VINA RESULT:      -8.0     32.210     37.449
REMARK  Name = C:\Users\Docking\Desktop\test protocol\1iep_ligandH.pdb
REMARK  8 active torsions:
REMARK  status: ('A' for Active; 'I' for Inactive)
REMARK    1  A    between atoms: _5  and  _11
REMARK    2  A    between atoms: _19  and  _21
REMARK    3  A    between atoms: _22  and  _66
REMARK    4  A    between atoms: _27  and  _30
REMARK    5  A    between atoms: _32  and  _33
REMARK    6  A    between atoms: _38  and  _43
REMARK    7  A    between atoms: _43  and  _46
REMARK    8  A    between atoms: _53  and  _55
REMARK                            x       y       z     vdW  Elec       q    Type
REMARK                         _______ _______ _______ _____ _____    ______ ____
ROOT
ATOM     10  C   UNL     1      19.901 -50.980  20.649  0.00  0.00    +0.038 A 
ATOM     11  C   UNL     1      18.792 -51.020  19.765  0.00  0.00    +0.047 A 
ATOM     12  C   UNL     1      18.696 -52.033  18.725  0.00  0.00    +0.035 A 
ATOM     32  C   UNL     1      19.745 -52.991  18.615  0.00  0.00    +0.024 A 
ATOM     33  C   UNL     1      20.880 -52.964  19.504  0.00  0.00    +0.007 A 
ATOM     34  C   UNL     1      20.982 -51.966  20.531  0.00  0.00    -0.029 A 
ATOM     35  C   UNL     1      22.224 -51.981  21.452  0.00  0.00    +0.045 C 
ENDROOT
BRANCH  10   9
ATOM      4  C   UNL     1      21.548 -46.824  22.396  0.00  0.00    +0.077 A 
ATOM      5  C   UNL     1      22.420 -46.630  21.274  0.00  0.00    +0.048 A 
ATOM      6  C   UNL     1      22.420 -47.626  20.272  0.00  0.00    +0.116 A 
ATOM      7  N   UNL     1      21.604 -48.730  20.394  0.00  0.00    -0.223 NA
ATOM      8  C   UNL     1      20.777 -48.888  21.490  0.00  0.00    +0.220 A 
ATOM      9  N   UNL     1      19.942 -49.986  21.629  0.00  0.00    -0.283 N 
ATOM     36  H   UNL     1      19.352 -50.070  22.457  0.00  0.00    +0.155 HD
ATOM     37  N   UNL     1      20.760 -47.951  22.461  0.00  0.00    -0.214 NA
BRANCH   4   3
ATOM      1  C   UNL     1      20.099 -44.419  25.120  0.00  0.00    +0.020 A 
ATOM      2  C   UNL     1      20.155 -45.350  24.016  0.00  0.00    +0.013 A 
ATOM      3  C   UNL     1      21.433 -45.859  23.535  0.00  0.00    +0.019 A 
ATOM     38  C   UNL     1      22.646 -45.404  24.198  0.00  0.00    +0.120 A 
ATOM     39  N   UNL     1      22.561 -44.505  25.258  0.00  0.00    -0.263 NA
ATOM     40  C   UNL     1      21.337 -44.007  25.728  0.00  0.00    +0.111 A 
ENDBRANCH   4   3
ENDBRANCH  10   9
BRANCH  12  13
ATOM     13  N   UNL     1      17.598 -52.118  17.793  0.00  0.00    -0.281 N 
ATOM     14  C   UNL     1      17.288 -51.248  16.761  0.00  0.00    +0.248 C 
ATOM     30  O   UNL     1      17.788 -50.143  16.615  0.00  0.00    -0.270 OA
ATOM     31  H   UNL     1      16.975 -52.917  17.909  0.00  0.00    +0.155 HD
BRANCH  14  15
ATOM     15  C   UNL     1      16.264 -51.661  15.753  0.00  0.00    +0.037 A 
ATOM     16  C   UNL     1      16.393 -52.916  15.009  0.00  0.00    +0.013 A 
ATOM     17  C   UNL     1      15.400 -53.282  14.030  0.00  0.00    +0.005 A 
ATOM     18  C   UNL     1      14.268 -52.390  13.790  0.00  0.00    -0.033 A 
ATOM     28  C   UNL     1      14.163 -51.152  14.545  0.00  0.00    +0.005 A 
ATOM     29  C   UNL     1      15.135 -50.790  15.505  0.00  0.00    +0.013 A 
BRANCH  18  19
ATOM     19  C   UNL     1      13.173 -52.689  12.749  0.00  0.00    +0.119 C 
BRANCH  19  20
ATOM     20  N   UNL     1      12.343 -53.912  12.962  0.00  0.00    -0.302 NA
ATOM     21  C   UNL     1      12.922 -55.132  12.240  0.00  0.00    +0.066 C 
ATOM     22  C   UNL     1      12.054 -56.408  12.492  0.00  0.00    -0.064 C 
ATOM     23  N   UNL     1      10.617 -56.141  12.040  0.00  0.00    +0.379 N 
ATOM     24  C   UNL     1       9.812 -57.357  12.222  0.00  0.00    -0.096 C 
ATOM     25  H   UNL     1      10.643 -55.912  10.949  0.00  0.00    -0.082 HD
ATOM     26  C   UNL     1      10.035 -54.928  12.752  0.00  0.00    -0.064 C 
ATOM     27  C   UNL     1      10.921 -53.673  12.519  0.00  0.00    +0.066 C 
ENDBRANCH  19  20
ENDBRANCH  18  19
ENDBRANCH  14  15
ENDBRANCH  12  13
TORSDOF 6
ENDMDL
MODEL 3
REMARK VINA RESULT:      -7.6     33.641     38.058
REMARK  Name = C:\Users\Docking\Desktop\test protocol\1iep_ligandH.pdb
REMARK  8 active torsions:
REMARK  status: ('A' for Active; 'I' for Inactive)
REMARK    1  A    between atoms: _5  and  _11
REMARK    2  A    between atoms: _19  and  _21
REMARK    3  A    between atoms: _22  and  _66
REMARK    4  A    between atoms: _27  and  _30
REMARK    5  A    between atoms: _32  and  _33
REMARK    6  A    between atoms: _38  and  _43
REMARK    7  A    between atoms: _43  and  _46
REMARK    8  A    between atoms: _53  and  _55
REMARK                            x       y       z     vdW  Elec       q    Type
REMARK                         _______ _______ _______ _____ _____    ______ ____
ROOT
ATOM     10  C   UNL     1      13.396 -53.448  13.729  0.00  0.00    +0.038 A 
ATOM     11  C   UNL     1      14.436 -53.406  14.693  0.00  0.00    +0.047 A 
ATOM     12  C   UNL     1      14.945 -52.140  15.196  0.00  0.00    +0.035 A 
ATOM     32  C   UNL     1      14.370 -50.934  14.697  0.00  0.00    +0.024 A 
ATOM     33  C   UNL     1      13.314 -50.958  13.717  0.00  0.00    +0.007 A 
ATOM     34  C   UNL     1      12.809 -52.204  13.215  0.00  0.00    -0.029 A 
ATOM     35  C   UNL     1      11.680 -52.170  12.159  0.00  0.00    +0.045 C 
ENDROOT
BRANCH  10   9
ATOM      4  C   UNL     1      13.460 -57.103  10.619  0.00  0.00    +0.077 A 
ATOM      5  C   UNL     1      14.456 -56.470   9.804  0.00  0.00    +0.048 A 
ATOM      6  C   UNL     1      14.921 -55.201  10.216  0.00  0.00    +0.116 A 
ATOM      7  N   UNL     1      14.420 -54.618  11.360  0.00  0.00    -0.223 NA
ATOM      8  C   UNL     1      13.458 -55.255  12.122  0.00  0.00    +0.220 A 
ATOM      9  N   UNL     1      12.945 -54.691  13.280  0.00  0.00    -0.283 N 
ATOM     36  H   UNL     1      12.231 -55.190  13.811  0.00  0.00    +0.155 HD
ATOM     37  N   UNL     1      12.997 -56.467  11.749  0.00  0.00    -0.214 NA
BRANCH   4   3
ATOM      1  C   UNL     1      12.223 -60.298   8.731  0.00  0.00    +0.020 A 
ATOM      2  C   UNL     1      12.800 -58.995   8.968  0.00  0.00    +0.013 A 
ATOM      3  C   UNL     1      12.872 -58.447  10.317  0.00  0.00    +0.019 A 
ATOM     38  C   UNL     1      12.347 -59.249  11.412  0.00  0.00    +0.120 A 
ATOM     39  N   UNL     1      11.796 -60.500  11.153  0.00  0.00    -0.263 NA
ATOM     40  C   UNL     1      11.720 -61.037   9.859  0.00  0.00    +0.111 A 
ENDBRANCH   4   3
ENDBRANCH  10   9
BRANCH  12  13
ATOM     13  N   UNL     1      16.004 -52.035  16.169  0.00  0.00    -0.281 N 
ATOM     14  C   UNL     1      17.321 -51.660  15.957  0.00  0.00    +0.248 C 
ATOM     30  O   UNL     1      17.843 -51.562  14.857  0.00  0.00    -0.270 OA
ATOM     31  H   UNL     1      15.753 -52.266  17.130  0.00  0.00    +0.155 HD
BRANCH  14  15
ATOM     15  C   UNL     1      18.186 -51.364  17.139  0.00  0.00    +0.037 A 
ATOM     16  C   UNL     1      19.622 -51.114  16.987  0.00  0.00    +0.013 A 
ATOM     17  C   UNL     1      20.437 -50.848  18.145  0.00  0.00    +0.005 A 
ATOM     18  C   UNL     1      19.817 -50.830  19.468  0.00  0.00    -0.033 A 
ATOM     28  C   UNL     1      18.389 -51.076  19.590  0.00  0.00    +0.005 A 
ATOM     29  C   UNL     1      17.588 -51.338  18.457  0.00  0.00    +0.013 A 
BRANCH  18  19
ATOM     19  C   UNL     1      20.613 -50.575  20.762  0.00  0.00    +0.119 C 
BRANCH  19  20
ATOM     20  N   UNL     1      20.305 -49.326  21.520  0.00  0.00    -0.302 NA
ATOM     21  C   UNL     1      21.475 -48.338  21.499  0.00  0.00    +0.066 C 
ATOM     22  C   UNL     1      21.127 -47.028  22.278  0.00  0.00    -0.064 C 
ATOM     23  N   UNL     1      20.741 -47.379  23.715  0.00  0.00    +0.379 N 
ATOM     24  C   UNL     1      20.470 -46.145  24.466  0.00  0.00    -0.096 C 
ATOM     25  H   UNL     1      21.619 -47.878  24.189  0.00  0.00    -0.082 HD
ATOM     26  C   UNL     1      19.580 -48.363  23.745  0.00  0.00    -0.064 C 
ATOM     27  C   UNL     1      19.925 -49.650  22.944  0.00  0.00    +0.066 C 
ENDBRANCH  19  20
ENDBRANCH  18  19
ENDBRANCH  14  15
ENDBRANCH  12  13
TORSDOF 6
ENDMDL
MODEL 4
REMARK VINA RESULT:      -7.5     21.249     23.753
REMARK  Name = C:\Users\Docking\Desktop\test protocol\1iep_ligandH.pdb
REMARK  8 active torsions:
REMARK  status: ('A' for Active; 'I' for Inactive)
REMARK    1  A    between atoms: _5  and  _11
REMARK    2  A    between atoms: _19  and  _21
REMARK    3  A    between atoms: _22  and  _66
REMARK    4  A    between atoms: _27  and  _30
REMARK    5  A    between atoms: _32  and  _33
REMARK    6  A    between atoms: _38  and  _43
REMARK    7  A    between atoms: _43  and  _46
REMARK    8  A    between atoms: _53  and  _55
REMARK                            x       y       z     vdW  Elec       q    Type
REMARK                         _______ _______ _______ _____ _____    ______ ____
ROOT
ATOM     10  C   UNL     1       3.131 -14.535  37.954  0.00  0.00    +0.038 A 
ATOM     11  C   UNL     1       1.986 -14.999  38.651  0.00  0.00    +0.047 A 
ATOM     12  C   UNL     1       1.919 -16.357  39.167  0.00  0.00    +0.035 A 
ATOM     32  C   UNL     1       3.038 -17.215  38.958  0.00  0.00    +0.024 A 
ATOM     33  C   UNL     1       4.209 -16.760  38.251  0.00  0.00    +0.007 A 
ATOM     34  C   UNL     1       4.280 -15.422  37.737  0.00  0.00    -0.029 A 
ATOM     35  C   UNL     1       5.558 -14.990  36.981  0.00  0.00    +0.045 C 
ENDROOT
BRANCH  10   9
ATOM      4  C   UNL     1       3.951  -9.839  38.515  0.00  0.00    +0.077 A 
ATOM      5  C   UNL     1       4.367 -10.014  39.876  0.00  0.00    +0.048 A 
ATOM      6  C   UNL     1       4.349 -11.328  40.397  0.00  0.00    +0.116 A 
ATOM      7  N   UNL     1       3.944 -12.380  39.605  0.00  0.00    -0.223 NA
ATOM      8  C   UNL     1       3.546 -12.176  38.296  0.00  0.00    +0.220 A 
ATOM      9  N   UNL     1       3.142 -13.221  37.480  0.00  0.00    -0.283 N 
ATOM     36  H   UNL     1       2.849 -13.028  36.522  0.00  0.00    +0.155 HD
ATOM     37  N   UNL     1       3.553 -10.931  37.777  0.00  0.00    -0.214 NA
BRANCH   4   3
ATOM      1  C   UNL     1       3.615  -7.064  35.778  0.00  0.00    +0.020 A 
ATOM      2  C   UNL     1       3.635  -8.369  36.399  0.00  0.00    +0.013 A 
ATOM      3  C   UNL     1       3.918  -8.512  37.821  0.00  0.00    +0.019 A 
ATOM     38  C   UNL     1       4.177  -7.307  38.594  0.00  0.00    +0.120 A 
ATOM     39  N   UNL     1       4.152  -6.064  37.968  0.00  0.00    -0.263 NA
ATOM     40  C   UNL     1       3.883  -5.914  36.600  0.00  0.00    +0.111 A 
ENDBRANCH   4   3
ENDBRANCH  10   9
BRANCH  12  13
ATOM     13  N   UNL     1       0.780 -16.887  39.875  0.00  0.00    -0.281 N 
ATOM     14  C   UNL     1      -0.036 -17.944  39.506  0.00  0.00    +0.248 C 
ATOM     30  O   UNL     1      -0.039 -18.460  38.399  0.00  0.00    -0.270 OA
ATOM     31  H   UNL     1       0.547 -16.427  40.755  0.00  0.00    +0.155 HD
BRANCH  14  15
ATOM     15  C   UNL     1      -0.998 -18.497  40.508  0.00  0.00    +0.037 A 
ATOM     16  C   UNL     1      -2.025 -19.466  40.119  0.00  0.00    +0.013 A 
ATOM     17  C   UNL     1      -2.952 -19.971  41.102  0.00  0.00    +0.005 A 
ATOM     18  C   UNL     1      -2.853 -19.508  42.484  0.00  0.00    -0.033 A 
ATOM     28  C   UNL     1      -1.820 -18.550  42.843  0.00  0.00    +0.005 A 
ATOM     29  C   UNL     1      -0.911 -18.052  41.882  0.00  0.00    +0.013 A 
BRANCH  18  19
ATOM     19  C   UNL     1      -3.812 -19.978  43.594  0.00  0.00    +0.119 C 
BRANCH  19  20
ATOM     20  N   UNL     1      -5.271 -19.993  43.275  0.00  0.00    -0.302 NA
ATOM     21  C   UNL     1      -6.095 -19.241  44.323  0.00  0.00    +0.066 C 
ATOM     22  C   UNL     1      -7.617 -19.247  43.963  0.00  0.00    -0.064 C 
ATOM     23  N   UNL     1      -8.100 -20.693  43.829  0.00  0.00    +0.379 N 
ATOM     24  C   UNL     1      -9.543 -20.703  43.547  0.00  0.00    -0.096 C 
ATOM     25  H   UNL     1      -7.943 -21.193  44.812  0.00  0.00    -0.082 HD
ATOM     26  C   UNL     1      -7.283 -21.449  42.791  0.00  0.00    -0.064 C 
ATOM     27  C   UNL     1      -5.770 -21.411  43.143  0.00  0.00    +0.066 C 
ENDBRANCH  19  20
ENDBRANCH  18  19
ENDBRANCH  14  15
ENDBRANCH  12  13
TORSDOF 6
ENDMDL
MODEL 5
REMARK VINA RESULT:      -7.5     24.685     32.005
REMARK  Name = C:\Users\Docking\Desktop\test protocol\1iep_ligandH.pdb
REMARK  8 active torsions:
REMARK  status: ('A' for Active; 'I' for Inactive)
REMARK    1  A    between atoms: _5  and  _11
REMARK    2  A    between atoms: _19  and  _21
REMARK    3  A    between atoms: _22  and  _66
REMARK    4  A    between atoms: _27  and  _30
REMARK    5  A    between atoms: _32  and  _33
REMARK    6  A    between atoms: _38  and  _43
REMARK    7  A    between atoms: _43  and  _46
REMARK    8  A    between atoms: _53  and  _55
REMARK                            x       y       z     vdW  Elec       q    Type
REMARK                         _______ _______ _______ _____ _____    ______ ____
ROOT
ATOM     10  C   UNL     1      30.562 -37.641  26.009  0.00  0.00    +0.038 A 
ATOM     11  C   UNL     1      30.172 -37.320  24.683  0.00  0.00    +0.047 A 
ATOM     12  C   UNL     1      31.126 -37.367  23.586  0.00  0.00    +0.035 A 
ATOM     32  C   UNL     1      32.469 -37.748  23.874  0.00  0.00    +0.024 A 
ATOM     33  C   UNL     1      32.883 -38.076  25.216  0.00  0.00    +0.007 A 
ATOM     34  C   UNL     1      31.947 -38.029  26.303  0.00  0.00    -0.029 A 
ATOM     35  C   UNL     1      32.448 -38.385  27.722  0.00  0.00    +0.045 C 
ENDROOT
BRANCH  10   9
ATOM      4  C   UNL     1      26.962 -39.540  28.553  0.00  0.00    +0.077 A 
ATOM      5  C   UNL     1      26.971 -40.746  27.776  0.00  0.00    +0.048 A 
ATOM      6  C   UNL     1      27.913 -40.835  26.726  0.00  0.00    +0.116 A 
ATOM      7  N   UNL     1      28.777 -39.790  26.481  0.00  0.00    -0.223 NA
ATOM      8  C   UNL     1      28.740 -38.640  27.248  0.00  0.00    +0.220 A 
ATOM      9  N   UNL     1      29.605 -37.580  27.024  0.00  0.00    -0.283 N 
ATOM     36  H   UNL     1      29.542 -36.745  27.607  0.00  0.00    +0.155 HD
ATOM     37  N   UNL     1      27.849 -38.530  28.255  0.00  0.00    -0.214 NA
BRANCH   4   3
ATOM      1  C   UNL     1      24.727 -40.056  31.721  0.00  0.00    +0.020 A 
ATOM      2  C   UNL     1      25.631 -40.343  30.632  0.00  0.00    +0.013 A 
ATOM      3  C   UNL     1      26.028 -39.297  29.697  0.00  0.00    +0.019 A 
ATOM     38  C   UNL     1      25.488 -37.960  29.895  0.00  0.00    +0.120 A 
ATOM     39  N   UNL     1      24.618 -37.714  30.953  0.00  0.00    -0.263 NA
ATOM     40  C   UNL     1      24.228 -38.713  31.857  0.00  0.00    +0.111 A 
ENDBRANCH   4   3
ENDBRANCH  10   9
BRANCH  12  13
ATOM     13  N   UNL     1      30.789 -37.045  22.221  0.00  0.00    -0.281 N 
ATOM     14  C   UNL     1      30.232 -37.875  21.263  0.00  0.00    +0.248 C 
ATOM     30  O   UNL     1      30.134 -39.088  21.372  0.00  0.00    -0.270 OA
ATOM     31  H   UNL     1      30.987 -36.088  21.926  0.00  0.00    +0.155 HD
BRANCH  14  15
ATOM     15  C   UNL     1      29.722 -37.272  19.994  0.00  0.00    +0.037 A 
ATOM     16  C   UNL     1      30.557 -36.377  19.189  0.00  0.00    +0.013 A 
ATOM     17  C   UNL     1      30.035 -35.795  17.978  0.00  0.00    +0.005 A 
ATOM     18  C   UNL     1      28.669 -36.108  17.564  0.00  0.00    -0.033 A 
ATOM     28  C   UNL     1      27.865 -37.003  18.378  0.00  0.00    +0.005 A 
ATOM     29  C   UNL     1      28.373 -37.575  19.566  0.00  0.00    +0.013 A 
BRANCH  18  19
ATOM     19  C   UNL     1      28.023 -35.516  16.297  0.00  0.00    +0.119 C 
BRANCH  19  20
ATOM     20  N   UNL     1      27.160 -34.310  16.470  0.00  0.00    -0.302 NA
ATOM     21  C   UNL     1      27.727 -33.343  17.514  0.00  0.00    +0.066 C 
ATOM     22  C   UNL     1      26.823 -32.076  17.666  0.00  0.00    -0.064 C 
ATOM     23  N   UNL     1      25.404 -32.507  18.041  0.00  0.00    +0.379 N 
ATOM     24  C   UNL     1      24.567 -31.315  18.242  0.00  0.00    -0.096 C 
ATOM     25  H   UNL     1      25.462 -33.048  19.014  0.00  0.00    -0.082 HD
ATOM     26  C   UNL     1      24.834 -33.470  17.010  0.00  0.00    -0.064 C 
ATOM     27  C   UNL     1      25.755 -34.712  16.845  0.00  0.00    +0.066 C 
ENDBRANCH  19  20
ENDBRANCH  18  19
ENDBRANCH  14  15
ENDBRANCH  12  13
TORSDOF 6
ENDMDL
