MODEL 1
REMARK VINA RESULT:      -8.1      0.000      0.000
REMARK  Name = C:\Users\Docking\Desktop\test protocol\1iep_ligandH.pdb
REMARK  8 active torsions:
REMARK  status: ('A' for Active; 'I' for Inactive)
REMARK    1  A    between atoms: _5  and  _11
REMARK    2  A    between atoms: _19  and  _21
REMARK    3  A    between atoms: _22  and  _66
REMARK    4  A    between atoms: _27  and  _30
REMARK    5  A    between atoms: _32  and  _33
REMARK    6  A    between atoms: _38  and  _43
REMARK    7  A    between atoms: _43  and  _46
REMARK    8  A    between atoms: _53  and  _55
REMARK                            x       y       z     vdW  Elec       q    Type
REMARK                         _______ _______ _______ _____ _____    ______ ____
ROOT
ATOM     10  C   UNL     1     151.138 163.776 132.792  0.00  0.00    +0.038 A 
ATOM     11  C   UNL     1     150.652 165.013 132.298  0.00  0.00    +0.047 A 
ATOM     12  C   UNL     1     150.075 166.005 133.192  0.00  0.00    +0.035 A 
ATOM     32  C   UNL     1     150.011 165.705 134.584  0.00  0.00    +0.024 A 
ATOM     33  C   UNL     1     150.500 164.452 135.103  0.00  0.00    +0.007 A 
ATOM     34  C   UNL     1     151.068 163.468 134.225  0.00  0.00    -0.029 A 
ATOM     35  C   UNL     1     151.570 162.139 134.836  0.00  0.00    +0.045 C 
ENDROOT
BRANCH  10   9
ATOM      4  C   UNL     1     150.868 159.802 130.114  0.00  0.00    +0.077 A 
ATOM      5  C   UNL     1     149.540 159.512 130.573  0.00  0.00    +0.048 A 
ATOM      6  C   UNL     1     148.965 160.406 131.503  0.00  0.00    +0.116 A 
ATOM      7  N   UNL     1     149.674 161.506 131.935  0.00  0.00    -0.223 NA
ATOM      8  C   UNL     1     150.954 161.755 131.474  0.00  0.00    +0.220 A 
ATOM      9  N   UNL     1     151.682 162.860 131.889  0.00  0.00    -0.283 N 
ATOM     36  H   UNL     1     152.626 163.005 131.531  0.00  0.00    +0.155 HD
ATOM     37  N   UNL     1     151.525 160.916 130.586  0.00  0.00    -0.214 NA
BRANCH   4   3
ATOM      1  C   UNL     1     153.596 157.572 128.415  0.00  0.00    +0.020 A 
ATOM      2  C   UNL     1     152.923 158.385 129.402  0.00  0.00    +0.013 A 
ATOM      3  C   UNL     1     151.609 158.953 129.128  0.00  0.00    +0.019 A 
ATOM     38  C   UNL     1     150.997 158.675 127.837  0.00  0.00    +0.120 A 
ATOM     39  N   UNL     1     151.670 157.889 126.906  0.00  0.00    -0.263 NA
ATOM     40  C   UNL     1     152.936 157.339 127.158  0.00  0.00    +0.111 A 
ENDBRANCH   4   3
ENDBRANCH  10   9
BRANCH  12  13
ATOM     13  N   UNL     1     149.558 167.276 132.747  0.00  0.00    -0.281 N 
ATOM     14  C   UNL     1     150.257 168.330 132.183  0.00  0.00    +0.248 C 
ATOM     30  O   UNL     1     151.476 168.423 132.172  0.00  0.00    -0.270 OA
ATOM     31  H   UNL     1     148.554 167.415 132.862  0.00  0.00    +0.155 HD
BRANCH  14  15
ATOM     15  C   UNL     1     149.493 169.450 131.554  0.00  0.00    +0.037 A 
ATOM     16  C   UNL     1     149.464 170.784 132.158  0.00  0.00    +0.013 A 
ATOM     17  C   UNL     1     148.705 171.842 131.539  0.00  0.00    +0.005 A 
ATOM     18  C   UNL     1     147.969 171.569 130.307  0.00  0.00    -0.033 A 
ATOM     28  C   UNL     1     148.020 170.237 129.726  0.00  0.00    +0.005 A 
ATOM     29  C   UNL     1     148.762 169.198 130.331  0.00  0.00    +0.013 A 
BRANCH  18  19
ATOM     19  C   UNL     1     147.116 172.632 129.590  0.00  0.00    +0.119 C 
BRANCH  19  20
ATOM     20  N   UNL     1     145.680 172.737 129.985  0.00  0.00    -0.302 NA
ATOM     21  C   UNL     1     144.753 172.807 128.769  0.00  0.00    +0.066 C 
ATOM     22  C   UNL     1     143.253 172.894 129.201  0.00  0.00    -0.064 C 
ATOM     23  N   UNL     1     143.054 174.112 130.104  0.00  0.00    +0.379 N 
ATOM     24  C   UNL     1     141.634 174.229 130.465  0.00  0.00    -0.096 C 
ATOM     25  H   UNL     1     143.330 175.018 129.515  0.00  0.00    -0.082 HD
ATOM     26  C   UNL     1     143.975 174.051 131.315  0.00  0.00    -0.064 C 
ATOM     27  C   UNL     1     145.461 173.936 130.875  0.00  0.00    +0.066 C 
ENDBRANCH  19  20
ENDBRANCH  18  19
ENDBRANCH  14  15
ENDBRANCH  12  13
TORSDOF 6
ENDMDL
MODEL 2
REMARK VINA RESULT:      -8.0      8.868     10.545
REMARK  Name = C:\Users\Docking\Desktop\test protocol\1iep_ligandH.pdb
REMARK  8 active torsions:
REMARK  status: ('A' for Active; 'I' for Inactive)
REMARK    1  A    between atoms: _5  and  _11
REMARK    2  A    between atoms: _19  and  _21
REMARK    3  A    between atoms: _22  and  _66
REMARK    4  A    between atoms: _27  and  _30
REMARK    5  A    between atoms: _32  and  _33
REMARK    6  A    between atoms: _38  and  _43
REMARK    7  A    between atoms: _43  and  _46
REMARK    8  A    between atoms: _53  and  _55
REMARK                            x       y       z     vdW  Elec       q    Type
REMARK                         _______ _______ _______ _____ _____    ______ ____
ROOT
ATOM     10  C   UNL     1     152.262 160.655 135.246  0.00  0.00    +0.038 A 
ATOM     11  C   UNL     1     151.150 160.731 136.124  0.00  0.00    +0.047 A 
ATOM     12  C   UNL     1     150.847 161.954 136.851  0.00  0.00    +0.035 A 
ATOM     32  C   UNL     1     151.697 163.083 136.658  0.00  0.00    +0.024 A 
ATOM     33  C   UNL     1     152.832 163.022 135.771  0.00  0.00    +0.007 A 
ATOM     34  C   UNL     1     153.137 161.818 135.053  0.00  0.00    -0.029 A 
ATOM     35  C   UNL     1     154.370 161.808 134.120  0.00  0.00    +0.045 C 
ENDROOT
BRANCH  10   9
ATOM      4  C   UNL     1     154.251 156.297 134.951  0.00  0.00    +0.077 A 
ATOM      5  C   UNL     1     154.880 156.432 136.233  0.00  0.00    +0.048 A 
ATOM      6  C   UNL     1     154.672 157.642 136.933  0.00  0.00    +0.116 A 
ATOM      7  N   UNL     1     153.891 158.635 136.383  0.00  0.00    -0.223 NA
ATOM      8  C   UNL     1     153.301 158.473 135.143  0.00  0.00    +0.220 A 
ATOM      9  N   UNL     1     152.506 159.456 134.574  0.00  0.00    -0.283 N 
ATOM     36  H   UNL     1     152.094 159.301 133.654  0.00  0.00    +0.155 HD
ATOM     37  N   UNL     1     153.486 157.328 134.454  0.00  0.00    -0.214 NA
BRANCH   4   3
ATOM      1  C   UNL     1     153.404 153.088 132.882  0.00  0.00    +0.020 A 
ATOM      2  C   UNL     1     153.231 154.255 133.715  0.00  0.00    +0.013 A 
ATOM      3  C   UNL     1     154.374 155.078 134.091  0.00  0.00    +0.019 A 
ATOM     38  C   UNL     1     155.688 154.688 133.603  0.00  0.00    +0.120 A 
ATOM     39  N   UNL     1     155.824 153.558 132.803  0.00  0.00    -0.263 NA
ATOM     40  C   UNL     1     154.732 152.758 132.437  0.00  0.00    +0.111 A 
ENDBRANCH   4   3
ENDBRANCH  10   9
BRANCH  12  13
ATOM     13  N   UNL     1     149.737 162.088 137.761  0.00  0.00    -0.281 N 
ATOM     14  C   UNL     1     149.779 162.269 139.134  0.00  0.00    +0.248 C 
ATOM     30  O   UNL     1     150.781 162.129 139.819  0.00  0.00    -0.270 OA
ATOM     31  H   UNL     1     148.808 162.044 137.343  0.00  0.00    +0.155 HD
BRANCH  14  15
ATOM     15  C   UNL     1     148.523 162.646 139.851  0.00  0.00    +0.037 A 
ATOM     16  C   UNL     1     147.792 163.870 139.511  0.00  0.00    +0.013 A 
ATOM     17  C   UNL     1     146.592 164.219 140.230  0.00  0.00    +0.005 A 
ATOM     18  C   UNL     1     146.115 163.341 141.296  0.00  0.00    -0.033 A 
ATOM     28  C   UNL     1     146.856 162.131 141.608  0.00  0.00    +0.005 A 
ATOM     29  C   UNL     1     148.033 161.786 140.907  0.00  0.00    +0.013 A 
BRANCH  18  19
ATOM     19  C   UNL     1     144.856 163.646 142.129  0.00  0.00    +0.119 C 
BRANCH  19  20
ATOM     20  N   UNL     1     144.908 164.829 143.038  0.00  0.00    -0.302 NA
ATOM     21  C   UNL     1     146.298 165.022 143.652  0.00  0.00    +0.066 C 
ATOM     22  C   UNL     1     146.340 166.277 144.583  0.00  0.00    -0.064 C 
ATOM     23  N   UNL     1     145.280 166.134 145.676  0.00  0.00    +0.379 N 
ATOM     24  C   UNL     1     145.356 167.285 146.587  0.00  0.00    -0.096 C 
ATOM     25  H   UNL     1     145.524 165.219 146.266  0.00  0.00    -0.082 HD
ATOM     26  C   UNL     1     143.895 165.939 145.075  0.00  0.00    -0.064 C 
ATOM     27  C   UNL     1     143.872 164.706 144.129  0.00  0.00    +0.066 C 
ENDBRANCH  19  20
ENDBRANCH  18  19
ENDBRANCH  14  15
ENDBRANCH  12  13
TORSDOF 6
ENDMDL
MODEL 3
REMARK VINA RESULT:      -7.6      1.955     13.125
REMARK  Name = C:\Users\Docking\Desktop\test protocol\1iep_ligandH.pdb
REMARK  8 active torsions:
REMARK  status: ('A' for Active; 'I' for Inactive)
REMARK    1  A    between atoms: _5  and  _11
REMARK    2  A    between atoms: _19  and  _21
REMARK    3  A    between atoms: _22  and  _66
REMARK    4  A    between atoms: _27  and  _30
REMARK    5  A    between atoms: _32  and  _33
REMARK    6  A    between atoms: _38  and  _43
REMARK    7  A    between atoms: _43  and  _46
REMARK    8  A    between atoms: _53  and  _55
REMARK                            x       y       z     vdW  Elec       q    Type
REMARK                         _______ _______ _______ _____ _____    ______ ____
ROOT
ATOM     10  C   UNL     1     148.269 171.835 128.447  0.00  0.00    +0.038 A 
ATOM     11  C   UNL     1     148.474 170.547 129.003  0.00  0.00    +0.047 A 
ATOM     12  C   UNL     1     149.803 170.094 129.385  0.00  0.00    +0.035 A 
ATOM     32  C   UNL     1     150.901 170.982 129.189  0.00  0.00    +0.024 A 
ATOM     33  C   UNL     1     150.711 172.295 128.624  0.00  0.00    +0.007 A 
ATOM     34  C   UNL     1     149.403 172.745 128.243  0.00  0.00    -0.029 A 
ATOM     35  C   UNL     1     149.259 174.161 127.636  0.00  0.00    +0.045 C 
ENDROOT
BRANCH  10   9
ATOM      4  C   UNL     1     144.062 173.922 129.437  0.00  0.00    +0.077 A 
ATOM      5  C   UNL     1     144.474 174.255 130.771  0.00  0.00    +0.048 A 
ATOM      6  C   UNL     1     145.773 173.865 131.165  0.00  0.00    +0.116 A 
ATOM      7  N   UNL     1     146.591 173.193 130.283  0.00  0.00    -0.223 NA
ATOM      8  C   UNL     1     146.163 172.886 129.005  0.00  0.00    +0.220 A 
ATOM      9  N   UNL     1     146.972 172.218 128.099  0.00  0.00    -0.283 N 
ATOM     36  H   UNL     1     146.616 172.004 127.168  0.00  0.00    +0.155 HD
ATOM     37  N   UNL     1     144.926 173.247 128.605  0.00  0.00    -0.214 NA
BRANCH   4   3
ATOM      1  C   UNL     1     140.215 174.003 128.734  0.00  0.00    +0.020 A 
ATOM      2  C   UNL     1     141.486 173.631 129.312  0.00  0.00    +0.013 A 
ATOM      3  C   UNL     1     142.720 174.270 128.872  0.00  0.00    +0.019 A 
ATOM     38  C   UNL     1     142.633 175.290 127.839  0.00  0.00    +0.120 A 
ATOM     39  N   UNL     1     141.395 175.627 127.300  0.00  0.00    -0.263 NA
ATOM     40  C   UNL     1     140.201 175.018 127.713  0.00  0.00    +0.111 A 
ENDBRANCH   4   3
ENDBRANCH  10   9
BRANCH  12  13
ATOM     13  N   UNL     1     150.073 168.794 129.947  0.00  0.00    -0.281 N 
ATOM     14  C   UNL     1     149.858 168.367 131.247  0.00  0.00    +0.248 C 
ATOM     30  O   UNL     1     149.597 169.107 132.183  0.00  0.00    -0.270 OA
ATOM     31  H   UNL     1     150.471 168.105 129.308  0.00  0.00    +0.155 HD
BRANCH  14  15
ATOM     15  C   UNL     1     149.962 166.907 131.553  0.00  0.00    +0.037 A 
ATOM     16  C   UNL     1     148.992 166.244 132.428  0.00  0.00    +0.013 A 
ATOM     17  C   UNL     1     149.125 164.839 132.721  0.00  0.00    +0.005 A 
ATOM     18  C   UNL     1     150.233 164.087 132.137  0.00  0.00    -0.033 A 
ATOM     28  C   UNL     1     151.178 164.769 131.268  0.00  0.00    +0.005 A 
ATOM     29  C   UNL     1     151.051 166.147 130.980  0.00  0.00    +0.013 A 
BRANCH  18  19
ATOM     19  C   UNL     1     150.465 162.590 132.412  0.00  0.00    +0.119 C 
BRANCH  19  20
ATOM     20  N   UNL     1     150.961 161.755 131.278  0.00  0.00    -0.302 NA
ATOM     21  C   UNL     1     150.060 160.545 131.018  0.00  0.00    +0.066 C 
ATOM     22  C   UNL     1     150.582 159.695 129.813  0.00  0.00    -0.064 C 
ATOM     23  N   UNL     1     152.019 159.250 130.091  0.00  0.00    +0.379 N 
ATOM     24  C   UNL     1     152.492 158.403 128.986  0.00  0.00    -0.096 C 
ATOM     25  H   UNL     1     152.007 158.627 131.015  0.00  0.00    -0.082 HD
ATOM     26  C   UNL     1     152.921 160.448 130.353  0.00  0.00    -0.064 C 
ATOM     27  C   UNL     1     152.378 161.302 131.532  0.00  0.00    +0.066 C 
ENDBRANCH  19  20
ENDBRANCH  18  19
ENDBRANCH  14  15
ENDBRANCH  12  13
TORSDOF 6
ENDMDL
MODEL 4
REMARK VINA RESULT:      -7.6      3.608     14.557
REMARK  Name = C:\Users\Docking\Desktop\test protocol\1iep_ligandH.pdb
REMARK  8 active torsions:
REMARK  status: ('A' for Active; 'I' for Inactive)
REMARK    1  A    between atoms: _5  and  _11
REMARK    2  A    between atoms: _19  and  _21
REMARK    3  A    between atoms: _22  and  _66
REMARK    4  A    between atoms: _27  and  _30
REMARK    5  A    between atoms: _32  and  _33
REMARK    6  A    between atoms: _38  and  _43
REMARK    7  A    between atoms: _43  and  _46
REMARK    8  A    between atoms: _53  and  _55
REMARK                            x       y       z     vdW  Elec       q    Type
REMARK                         _______ _______ _______ _____ _____    ______ ____
ROOT
ATOM     10  C   UNL     1     142.727 174.557 128.521  0.00  0.00    +0.038 A 
ATOM     11  C   UNL     1     143.541 173.501 129.004  0.00  0.00    +0.047 A 
ATOM     12  C   UNL     1     144.898 173.749 129.466  0.00  0.00    +0.035 A 
ATOM     32  C   UNL     1     145.394 175.085 129.424  0.00  0.00    +0.024 A 
ATOM     33  C   UNL     1     144.580 176.170 128.935  0.00  0.00    +0.007 A 
ATOM     34  C   UNL     1     143.241 175.931 128.476  0.00  0.00    -0.029 A 
ATOM     35  C   UNL     1     142.417 177.132 127.955  0.00  0.00    +0.045 C 
ENDROOT
BRANCH  10   9
ATOM      4  C   UNL     1     137.985 174.320 129.223  0.00  0.00    +0.077 A 
ATOM      5  C   UNL     1     138.101 174.798 130.570  0.00  0.00    +0.048 A 
ATOM      6  C   UNL     1     139.399 175.086 131.047  0.00  0.00    +0.116 A 
ATOM      7  N   UNL     1     140.493 174.907 130.228  0.00  0.00    -0.223 NA
ATOM      8  C   UNL     1     140.346 174.443 128.934  0.00  0.00    +0.220 A 
ATOM      9  N   UNL     1     141.431 174.263 128.090  0.00  0.00    -0.283 N 
ATOM     36  H   UNL     1     141.282 173.912 127.145  0.00  0.00    +0.155 HD
ATOM     37  N   UNL     1     139.117 174.159 128.455  0.00  0.00    -0.214 NA
BRANCH   4   3
ATOM      1  C   UNL     1     134.420 172.855 128.554  0.00  0.00    +0.020 A 
ATOM      2  C   UNL     1     135.664 173.158 129.224  0.00  0.00    +0.013 A 
ATOM      3  C   UNL     1     136.680 173.976 128.574  0.00  0.00    +0.019 A 
ATOM     38  C   UNL     1     136.405 174.475 127.235  0.00  0.00    +0.120 A 
ATOM     39  N   UNL     1     135.199 174.165 126.614  0.00  0.00    -0.263 NA
ATOM     40  C   UNL     1     134.214 173.378 127.229  0.00  0.00    +0.111 A 
ENDBRANCH   4   3
ENDBRANCH  10   9
BRANCH  12  13
ATOM     13  N   UNL     1     145.775 172.715 129.960  0.00  0.00    -0.281 N 
ATOM     14  C   UNL     1     146.865 172.147 129.322  0.00  0.00    +0.248 C 
ATOM     30  O   UNL     1     147.126 172.292 128.137  0.00  0.00    -0.270 OA
ATOM     31  H   UNL     1     145.565 172.360 130.893  0.00  0.00    +0.155 HD
BRANCH  14  15
ATOM     15  C   UNL     1     147.792 171.280 130.112  0.00  0.00    +0.037 A 
ATOM     16  C   UNL     1     148.456 171.780 131.318  0.00  0.00    +0.013 A 
ATOM     17  C   UNL     1     149.359 170.929 132.052  0.00  0.00    +0.005 A 
ATOM     18  C   UNL     1     149.602 169.567 131.580  0.00  0.00    -0.033 A 
ATOM     28  C   UNL     1     148.926 169.096 130.383  0.00  0.00    +0.005 A 
ATOM     29  C   UNL     1     148.041 169.928 129.661  0.00  0.00    +0.013 A 
BRANCH  18  19
ATOM     19  C   UNL     1     150.566 168.597 132.288  0.00  0.00    +0.119 C 
BRANCH  19  20
ATOM     20  N   UNL     1     150.497 167.157 131.896  0.00  0.00    -0.302 NA
ATOM     21  C   UNL     1     150.328 166.239 133.110  0.00  0.00    +0.066 C 
ATOM     22  C   UNL     1     150.235 164.739 132.680  0.00  0.00    -0.064 C 
ATOM     23  N   UNL     1     151.485 164.360 131.884  0.00  0.00    +0.379 N 
ATOM     24  C   UNL     1     151.428 162.935 131.528  0.00  0.00    -0.096 C 
ATOM     25  H   UNL     1     152.367 164.507 132.550  0.00  0.00    -0.082 HD
ATOM     26  C   UNL     1     151.662 165.270 130.677  0.00  0.00    -0.064 C 
ATOM     27  C   UNL     1     151.724 166.761 131.113  0.00  0.00    +0.066 C 
ENDBRANCH  19  20
ENDBRANCH  18  19
ENDBRANCH  14  15
ENDBRANCH  12  13
TORSDOF 6
ENDMDL
MODEL 5
REMARK VINA RESULT:      -7.5     23.670     26.061
REMARK  Name = C:\Users\Docking\Desktop\test protocol\1iep_ligandH.pdb
REMARK  8 active torsions:
REMARK  status: ('A' for Active; 'I' for Inactive)
REMARK    1  A    between atoms: _5  and  _11
REMARK    2  A    between atoms: _19  and  _21
REMARK    3  A    between atoms: _22  and  _66
REMARK    4  A    between atoms: _27  and  _30
REMARK    5  A    between atoms: _32  and  _33
REMARK    6  A    between atoms: _38  and  _43
REMARK    7  A    between atoms: _43  and  _46
REMARK    8  A    between atoms: _53  and  _55
REMARK                            x       y       z     vdW  Elec       q    Type
REMARK                         _______ _______ _______ _____ _____    ______ ____
ROOT
ATOM     10  C   UNL     1     129.533 151.835 118.454  0.00  0.00    +0.038 A 
ATOM     11  C   UNL     1     129.289 153.226 118.591  0.00  0.00    +0.047 A 
ATOM     12  C   UNL     1     128.605 153.977 117.550  0.00  0.00    +0.035 A 
ATOM     32  C   UNL     1     128.180 153.279 116.382  0.00  0.00    +0.024 A 
ATOM     33  C   UNL     1     128.421 151.866 116.225  0.00  0.00    +0.007 A 
ATOM     34  C   UNL     1     129.097 151.120 117.248  0.00  0.00    -0.029 A 
ATOM     35  C   UNL     1     129.333 149.609 117.024  0.00  0.00    +0.045 C 
ENDROOT
BRANCH  10   9
ATOM      4  C   UNL     1     133.493 150.014 120.463  0.00  0.00    +0.077 A 
ATOM      5  C   UNL     1     134.310 150.410 119.352  0.00  0.00    +0.048 A 
ATOM      6  C   UNL     1     133.671 151.074 118.281  0.00  0.00    +0.116 A 
ATOM      7  N   UNL     1     132.316 151.318 118.328  0.00  0.00    -0.223 NA
ATOM      8  C   UNL     1     131.556 150.922 119.413  0.00  0.00    +0.220 A 
ATOM      9  N   UNL     1     130.193 151.164 119.485  0.00  0.00    -0.283 N 
ATOM     36  H   UNL     1     129.667 150.849 120.300  0.00  0.00    +0.155 HD
ATOM     37  N   UNL     1     132.143 150.285 120.448  0.00  0.00    -0.214 NA
BRANCH   4   3
ATOM      1  C   UNL     1     134.703 149.234 124.100  0.00  0.00    +0.020 A 
ATOM      2  C   UNL     1     134.188 149.962 122.963  0.00  0.00    +0.013 A 
ATOM      3  C   UNL     1     134.022 149.307 121.672  0.00  0.00    +0.019 A 
ATOM     38  C   UNL     1     134.389 147.903 121.563  0.00  0.00    +0.120 A 
ATOM     39  N   UNL     1     134.884 147.228 122.674  0.00  0.00    -0.263 NA
ATOM     40  C   UNL     1     135.049 147.848 123.922  0.00  0.00    +0.111 A 
ENDBRANCH   4   3
ENDBRANCH  10   9
BRANCH  12  13
ATOM     13  N   UNL     1     128.337 155.391 117.630  0.00  0.00    -0.281 N 
ATOM     14  C   UNL     1     128.527 156.351 116.649  0.00  0.00    +0.248 C 
ATOM     30  O   UNL     1     129.160 156.171 115.620  0.00  0.00    -0.270 OA
ATOM     31  H   UNL     1     127.962 155.726 118.518  0.00  0.00    +0.155 HD
BRANCH  14  15
ATOM     15  C   UNL     1     127.941 157.712 116.848  0.00  0.00    +0.037 A 
ATOM     16  C   UNL     1     127.910 158.692 115.759  0.00  0.00    +0.013 A 
ATOM     17  C   UNL     1     127.354 160.003 115.982  0.00  0.00    +0.005 A 
ATOM     18  C   UNL     1     126.823 160.341 117.301  0.00  0.00    -0.033 A 
ATOM     28  C   UNL     1     126.862 159.348 118.361  0.00  0.00    +0.005 A 
ATOM     29  C   UNL     1     127.407 158.062 118.147  0.00  0.00    +0.013 A 
BRANCH  18  19
ATOM     19  C   UNL     1     126.231 161.723 117.635  0.00  0.00    +0.119 C 
BRANCH  19  20
ATOM     20  N   UNL     1     126.521 162.839 116.685  0.00  0.00    -0.302 NA
ATOM     21  C   UNL     1     127.067 164.077 117.402  0.00  0.00    +0.066 C 
ATOM     22  C   UNL     1     127.385 165.226 116.391  0.00  0.00    -0.064 C 
ATOM     23  N   UNL     1     126.121 165.571 115.601  0.00  0.00    +0.379 N 
ATOM     24  C   UNL     1     126.403 166.690 114.690  0.00  0.00    -0.096 C 
ATOM     25  H   UNL     1     125.350 165.913 116.329  0.00  0.00    -0.082 HD
ATOM     26  C   UNL     1     125.570 164.345 114.887  0.00  0.00    -0.064 C 
ATOM     27  C   UNL     1     125.285 163.198 115.897  0.00  0.00    +0.066 C 
ENDBRANCH  19  20
ENDBRANCH  18  19
ENDBRANCH  14  15
ENDBRANCH  12  13
TORSDOF 6
ENDMDL
