MODEL 1
REMARK VINA RESULT:     -10.6      0.000      0.000
REMARK  Name = C:\Users\Docking\Desktop\test protocol\1iep_ligandH.pdb
REMARK  8 active torsions:
REMARK  status: ('A' for Active; 'I' for Inactive)
REMARK    1  A    between atoms: _5  and  _11
REMARK    2  A    between atoms: _19  and  _21
REMARK    3  A    between atoms: _22  and  _66
REMARK    4  A    between atoms: _27  and  _30
REMARK    5  A    between atoms: _32  and  _33
REMARK    6  A    between atoms: _38  and  _43
REMARK    7  A    between atoms: _43  and  _46
REMARK    8  A    between atoms: _53  and  _55
REMARK                            x       y       z     vdW  Elec       q    Type
REMARK                         _______ _______ _______ _____ _____    ______ ____
ROOT
ATOM     10  C   UNL     1      13.177  48.207  67.312  0.00  0.00    +0.038 A 
ATOM     11  C   UNL     1      12.755  48.161  65.958  0.00  0.00    +0.047 A 
ATOM     12  C   UNL     1      13.075  47.025  65.108  0.00  0.00    +0.035 A 
ATOM     32  C   UNL     1      13.825  45.951  65.670  0.00  0.00    +0.024 A 
ATOM     33  C   UNL     1      14.263  45.982  67.044  0.00  0.00    +0.007 A 
ATOM     34  C   UNL     1      13.952  47.101  67.886  0.00  0.00    -0.029 A 
ATOM     35  C   UNL     1      14.453  47.083  69.349  0.00  0.00    +0.045 C 
ENDROOT
BRANCH  10   9
ATOM      4  C   UNL     1      13.875  52.741  68.724  0.00  0.00    +0.077 A 
ATOM      5  C   UNL     1      15.022  52.891  67.875  0.00  0.00    +0.048 A 
ATOM      6  C   UNL     1      15.403  51.776  67.096  0.00  0.00    +0.116 A 
ATOM      7  N   UNL     1      14.684  50.602  67.169  0.00  0.00    -0.223 NA
ATOM      8  C   UNL     1      13.584  50.490  67.999  0.00  0.00    +0.220 A 
ATOM      9  N   UNL     1      12.842  49.323  68.082  0.00  0.00    -0.283 N 
ATOM     36  H   UNL     1      12.041  49.278  68.713  0.00  0.00    +0.155 HD
ATOM     37  N   UNL     1      13.201  51.541  68.754  0.00  0.00    -0.214 NA
BRANCH   4   3
ATOM      1  C   UNL     1      11.465  55.108  70.695  0.00  0.00    +0.020 A 
ATOM      2  C   UNL     1      11.923  54.042  69.835  0.00  0.00    +0.013 A 
ATOM      3  C   UNL     1      13.347  53.830  69.605  0.00  0.00    +0.019 A 
ATOM     38  C   UNL     1      14.288  54.721  70.267  0.00  0.00    +0.120 A 
ATOM     39  N   UNL     1      13.818  55.740  71.089  0.00  0.00    -0.263 NA
ATOM     40  C   UNL     1      12.450  55.955  71.316  0.00  0.00    +0.111 A 
ENDBRANCH   4   3
ENDBRANCH  10   9
BRANCH  12  13
ATOM     13  N   UNL     1      12.681  46.926  63.725  0.00  0.00    -0.281 N 
ATOM     14  C   UNL     1      11.398  46.943  63.202  0.00  0.00    +0.248 C 
ATOM     30  O   UNL     1      10.379  46.830  63.867  0.00  0.00    -0.270 OA
ATOM     31  H   UNL     1      13.439  46.833  63.049  0.00  0.00    +0.155 HD
BRANCH  14  15
ATOM     15  C   UNL     1      11.222  47.092  61.725  0.00  0.00    +0.037 A 
ATOM     16  C   UNL     1      11.928  48.135  60.977  0.00  0.00    +0.013 A 
ATOM     17  C   UNL     1      11.728  48.268  59.556  0.00  0.00    +0.005 A 
ATOM     18  C   UNL     1      10.817  47.352  58.873  0.00  0.00    -0.033 A 
ATOM     28  C   UNL     1      10.133  46.323  59.638  0.00  0.00    +0.005 A 
ATOM     29  C   UNL     1      10.327  46.190  61.032  0.00  0.00    +0.013 A 
BRANCH  18  19
ATOM     19  C   UNL     1      10.526  47.434  57.363  0.00  0.00    +0.119 C 
BRANCH  19  20
ATOM     20  N   UNL     1       9.377  48.285  56.932  0.00  0.00    -0.302 NA
ATOM     21  C   UNL     1       9.611  49.766  57.246  0.00  0.00    +0.066 C 
ATOM     22  C   UNL     1       8.409  50.645  56.768  0.00  0.00    -0.064 C 
ATOM     23  N   UNL     1       7.123  50.148  57.430  0.00  0.00    +0.379 N 
ATOM     24  C   UNL     1       6.000  51.008  57.029  0.00  0.00    -0.096 C 
ATOM     25  H   UNL     1       7.249  50.249  58.533  0.00  0.00    -0.082 HD
ATOM     26  C   UNL     1       6.885  48.675  57.126  0.00  0.00    -0.064 C 
ATOM     27  C   UNL     1       8.097  47.814  57.577  0.00  0.00    +0.066 C 
ENDBRANCH  19  20
ENDBRANCH  18  19
ENDBRANCH  14  15
ENDBRANCH  12  13
TORSDOF 6
ENDMDL
MODEL 2
REMARK VINA RESULT:     -10.0      2.663     11.399
REMARK  Name = C:\Users\Docking\Desktop\test protocol\1iep_ligandH.pdb
REMARK  8 active torsions:
REMARK  status: ('A' for Active; 'I' for Inactive)
REMARK    1  A    between atoms: _5  and  _11
REMARK    2  A    between atoms: _19  and  _21
REMARK    3  A    between atoms: _22  and  _66
REMARK    4  A    between atoms: _27  and  _30
REMARK    5  A    between atoms: _32  and  _33
REMARK    6  A    between atoms: _38  and  _43
REMARK    7  A    between atoms: _43  and  _46
REMARK    8  A    between atoms: _53  and  _55
REMARK                            x       y       z     vdW  Elec       q    Type
REMARK                         _______ _______ _______ _____ _____    ______ ____
ROOT
ATOM     10  C   UNL     1      12.436  47.768  65.549  0.00  0.00    +0.038 A 
ATOM     11  C   UNL     1      12.390  49.055  66.143  0.00  0.00    +0.047 A 
ATOM     12  C   UNL     1      13.143  49.353  67.352  0.00  0.00    +0.035 A 
ATOM     32  C   UNL     1      13.934  48.316  67.928  0.00  0.00    +0.024 A 
ATOM     33  C   UNL     1      13.990  47.002  67.337  0.00  0.00    +0.007 A 
ATOM     34  C   UNL     1      13.248  46.702  66.146  0.00  0.00    -0.029 A 
ATOM     35  C   UNL     1      13.342  45.274  65.560  0.00  0.00    +0.045 C 
ENDROOT
BRANCH  10   9
ATOM      4  C   UNL     1      11.850  47.969  60.789  0.00  0.00    +0.077 A 
ATOM      5  C   UNL     1      13.119  48.612  60.600  0.00  0.00    +0.048 A 
ATOM      6  C   UNL     1      13.889  48.879  61.755  0.00  0.00    +0.116 A 
ATOM      7  N   UNL     1      13.415  48.526  63.000  0.00  0.00    -0.223 NA
ATOM      8  C   UNL     1      12.186  47.909  63.146  0.00  0.00    +0.220 A 
ATOM      9  N   UNL     1      11.693  47.538  64.388  0.00  0.00    -0.283 N 
ATOM     36  H   UNL     1      10.779  47.092  64.455  0.00  0.00    +0.155 HD
ATOM     37  N   UNL     1      11.432  47.644  62.060  0.00  0.00    -0.214 NA
BRANCH   4   3
ATOM      1  C   UNL     1       9.623  48.182  57.580  0.00  0.00    +0.020 A 
ATOM      2  C   UNL     1      10.520  48.573  58.643  0.00  0.00    +0.013 A 
ATOM      3  C   UNL     1      10.924  47.617  59.667  0.00  0.00    +0.019 A 
ATOM     38  C   UNL     1      10.399  46.262  59.584  0.00  0.00    +0.120 A 
ATOM     39  N   UNL     1       9.536  45.915  58.550  0.00  0.00    -0.263 NA
ATOM     40  C   UNL     1       9.139  46.827  57.561  0.00  0.00    +0.111 A 
ENDBRANCH   4   3
ENDBRANCH  10   9
BRANCH  12  13
ATOM     13  N   UNL     1      13.129  50.638  68.005  0.00  0.00    -0.281 N 
ATOM     14  C   UNL     1      13.623  51.841  67.527  0.00  0.00    +0.248 C 
ATOM     30  O   UNL     1      14.348  51.951  66.550  0.00  0.00    -0.270 OA
ATOM     31  H   UNL     1      12.703  50.665  68.931  0.00  0.00    +0.155 HD
BRANCH  14  15
ATOM     15  C   UNL     1      13.274  53.103  68.249  0.00  0.00    +0.037 A 
ATOM     16  C   UNL     1      14.130  54.289  68.164  0.00  0.00    +0.013 A 
ATOM     17  C   UNL     1      13.779  55.487  68.884  0.00  0.00    +0.005 A 
ATOM     18  C   UNL     1      12.563  55.506  69.694  0.00  0.00    -0.033 A 
ATOM     28  C   UNL     1      11.730  54.317  69.757  0.00  0.00    +0.005 A 
ATOM     29  C   UNL     1      12.071  53.140  69.053  0.00  0.00    +0.013 A 
BRANCH  18  19
ATOM     19  C   UNL     1      12.122  56.734  70.513  0.00  0.00    +0.119 C 
BRANCH  19  20
ATOM     20  N   UNL     1      12.466  58.080  69.965  0.00  0.00    -0.302 NA
ATOM     21  C   UNL     1      12.264  59.190  71.000  0.00  0.00    +0.066 C 
ATOM     22  C   UNL     1      12.650  60.589  70.417  0.00  0.00    -0.064 C 
ATOM     23  N   UNL     1      11.821  60.861  69.161  0.00  0.00    +0.379 N 
ATOM     24  C   UNL     1      12.139  62.200  68.644  0.00  0.00    -0.096 C 
ATOM     25  H   UNL     1      10.746  60.860  69.459  0.00  0.00    -0.082 HD
ATOM     26  C   UNL     1      12.014  59.760  68.128  0.00  0.00    -0.064 C 
ATOM     27  C   UNL     1      11.656  58.371  68.726  0.00  0.00    +0.066 C 
ENDBRANCH  19  20
ENDBRANCH  18  19
ENDBRANCH  14  15
ENDBRANCH  12  13
TORSDOF 6
ENDMDL
MODEL 3
REMARK VINA RESULT:      -9.9      2.535     11.789
REMARK  Name = C:\Users\Docking\Desktop\test protocol\1iep_ligandH.pdb
REMARK  8 active torsions:
REMARK  status: ('A' for Active; 'I' for Inactive)
REMARK    1  A    between atoms: _5  and  _11
REMARK    2  A    between atoms: _19  and  _21
REMARK    3  A    between atoms: _22  and  _66
REMARK    4  A    between atoms: _27  and  _30
REMARK    5  A    between atoms: _32  and  _33
REMARK    6  A    between atoms: _38  and  _43
REMARK    7  A    between atoms: _43  and  _46
REMARK    8  A    between atoms: _53  and  _55
REMARK                            x       y       z     vdW  Elec       q    Type
REMARK                         _______ _______ _______ _____ _____    ______ ____
ROOT
ATOM     10  C   UNL     1      11.774  47.074  66.304  0.00  0.00    +0.038 A 
ATOM     11  C   UNL     1      12.035  48.417  66.678  0.00  0.00    +0.047 A 
ATOM     12  C   UNL     1      12.603  48.740  67.977  0.00  0.00    +0.035 A 
ATOM     32  C   UNL     1      12.897  47.669  68.871  0.00  0.00    +0.024 A 
ATOM     33  C   UNL     1      12.637  46.298  68.508  0.00  0.00    +0.007 A 
ATOM     34  C   UNL     1      12.074  45.974  67.228  0.00  0.00    -0.029 A 
ATOM     35  C   UNL     1      11.811  44.487  66.895  0.00  0.00    +0.045 C 
ENDROOT
BRANCH  10   9
ATOM      4  C   UNL     1      11.734  47.575  61.531  0.00  0.00    +0.077 A 
ATOM      5  C   UNL     1      12.882  48.434  61.552  0.00  0.00    +0.048 A 
ATOM      6  C   UNL     1      13.450  48.728  62.812  0.00  0.00    +0.116 A 
ATOM      7  N   UNL     1      12.901  48.197  63.959  0.00  0.00    -0.223 NA
ATOM      8  C   UNL     1      11.792  47.373  63.903  0.00  0.00    +0.220 A 
ATOM      9  N   UNL     1      11.228  46.822  65.044  0.00  0.00    -0.283 N 
ATOM     36  H   UNL     1      10.405  46.225  64.961  0.00  0.00    +0.155 HD
ATOM     37  N   UNL     1      11.231  47.078  62.712  0.00  0.00    -0.214 NA
BRANCH   4   3
ATOM      1  C   UNL     1      10.407  47.493  57.852  0.00  0.00    +0.020 A 
ATOM      2  C   UNL     1      11.112  47.929  59.035  0.00  0.00    +0.013 A 
ATOM      3  C   UNL     1      11.024  47.169  60.276  0.00  0.00    +0.019 A 
ATOM     38  C   UNL     1      10.209  45.963  60.286  0.00  0.00    +0.120 A 
ATOM     39  N   UNL     1       9.541  45.569  59.131  0.00  0.00    -0.263 NA
ATOM     40  C   UNL     1       9.616  46.293  57.932  0.00  0.00    +0.111 A 
ENDBRANCH   4   3
ENDBRANCH  10   9
BRANCH  12  13
ATOM     13  N   UNL     1      12.882  50.085  68.415  0.00  0.00    -0.281 N 
ATOM     14  C   UNL     1      13.560  51.080  67.730  0.00  0.00    +0.248 C 
ATOM     30  O   UNL     1      14.219  50.897  66.718  0.00  0.00    -0.270 OA
ATOM     31  H   UNL     1      12.538  50.334  69.343  0.00  0.00    +0.155 HD
BRANCH  14  15
ATOM     15  C   UNL     1      13.511  52.479  68.254  0.00  0.00    +0.037 A 
ATOM     16  C   UNL     1      14.408  53.516  67.738  0.00  0.00    +0.013 A 
ATOM     17  C   UNL     1      14.352  54.853  68.273  0.00  0.00    +0.005 A 
ATOM     18  C   UNL     1      13.391  55.162  69.330  0.00  0.00    -0.033 A 
ATOM     28  C   UNL     1      12.509  54.116  69.819  0.00  0.00    +0.005 A 
ATOM     29  C   UNL     1      12.562  52.804  69.298  0.00  0.00    +0.013 A 
BRANCH  18  19
ATOM     19  C   UNL     1      13.275  56.556  69.974  0.00  0.00    +0.119 C 
BRANCH  19  20
ATOM     20  N   UNL     1      14.546  57.237  70.363  0.00  0.00    -0.302 NA
ATOM     21  C   UNL     1      14.669  57.401  71.880  0.00  0.00    +0.066 C 
ATOM     22  C   UNL     1      16.014  58.095  72.271  0.00  0.00    -0.064 C 
ATOM     23  N   UNL     1      16.107  59.452  71.570  0.00  0.00    +0.379 N 
ATOM     24  C   UNL     1      17.344  60.132  71.981  0.00  0.00    -0.096 C 
ATOM     25  H   UNL     1      15.249  60.072  71.919  0.00  0.00    -0.082 HD
ATOM     26  C   UNL     1      15.984  59.298  70.061  0.00  0.00    -0.064 C 
ATOM     27  C   UNL     1      14.657  58.581  69.685  0.00  0.00    +0.066 C 
ENDBRANCH  19  20
ENDBRANCH  18  19
ENDBRANCH  14  15
ENDBRANCH  12  13
TORSDOF 6
ENDMDL
MODEL 4
REMARK VINA RESULT:      -8.8      4.049      5.770
REMARK  Name = C:\Users\Docking\Desktop\test protocol\1iep_ligandH.pdb
REMARK  8 active torsions:
REMARK  status: ('A' for Active; 'I' for Inactive)
REMARK    1  A    between atoms: _5  and  _11
REMARK    2  A    between atoms: _19  and  _21
REMARK    3  A    between atoms: _22  and  _66
REMARK    4  A    between atoms: _27  and  _30
REMARK    5  A    between atoms: _32  and  _33
REMARK    6  A    between atoms: _38  and  _43
REMARK    7  A    between atoms: _43  and  _46
REMARK    8  A    between atoms: _53  and  _55
REMARK                            x       y       z     vdW  Elec       q    Type
REMARK                         _______ _______ _______ _____ _____    ______ ____
ROOT
ATOM     10  C   UNL     1      15.566  51.280  68.488  0.00  0.00    +0.038 A 
ATOM     11  C   UNL     1      15.189  50.694  67.252  0.00  0.00    +0.047 A 
ATOM     12  C   UNL     1      13.886  50.071  67.081  0.00  0.00    +0.035 A 
ATOM     32  C   UNL     1      12.990  50.063  68.190  0.00  0.00    +0.024 A 
ATOM     33  C   UNL     1      13.357  50.652  69.453  0.00  0.00    +0.007 A 
ATOM     34  C   UNL     1      14.642  51.267  69.628  0.00  0.00    -0.029 A 
ATOM     35  C   UNL     1      14.985  51.877  71.007  0.00  0.00    +0.045 C 
ENDROOT
BRANCH  10   9
ATOM      4  C   UNL     1      20.300  51.022  69.237  0.00  0.00    +0.077 A 
ATOM      5  C   UNL     1      20.247  49.606  69.458  0.00  0.00    +0.048 A 
ATOM      6  C   UNL     1      18.982  48.983  69.377  0.00  0.00    +0.116 A 
ATOM      7  N   UNL     1      17.859  49.730  69.095  0.00  0.00    -0.223 NA
ATOM      8  C   UNL     1      17.944  51.095  68.889  0.00  0.00    +0.220 A 
ATOM      9  N   UNL     1      16.829  51.865  68.596  0.00  0.00    -0.283 N 
ATOM     36  H   UNL     1      16.933  52.870  68.458  0.00  0.00    +0.155 HD
ATOM     37  N   UNL     1      19.141  51.714  68.962  0.00  0.00    -0.214 NA
BRANCH   4   3
ATOM      1  C   UNL     1      22.854  53.979  69.061  0.00  0.00    +0.020 A 
ATOM      2  C   UNL     1      21.607  53.252  69.000  0.00  0.00    +0.013 A 
ATOM      3  C   UNL     1      21.563  51.824  69.286  0.00  0.00    +0.019 A 
ATOM     38  C   UNL     1      22.808  51.156  69.635  0.00  0.00    +0.120 A 
ATOM     39  N   UNL     1      23.994  51.882  69.685  0.00  0.00    -0.263 NA
ATOM     40  C   UNL     1      24.049  53.257  69.410  0.00  0.00    +0.111 A 
ENDBRANCH   4   3
ENDBRANCH  10   9
BRANCH  12  13
ATOM     13  N   UNL     1      13.451  49.454  65.853  0.00  0.00    -0.281 N 
ATOM     14  C   UNL     1      13.194  48.113  65.618  0.00  0.00    +0.248 C 
ATOM     30  O   UNL     1      13.507  47.206  66.375  0.00  0.00    -0.270 OA
ATOM     31  H   UNL     1      13.316  50.081  65.060  0.00  0.00    +0.155 HD
BRANCH  14  15
ATOM     15  C   UNL     1      12.503  47.721  64.352  0.00  0.00    +0.037 A 
ATOM     16  C   UNL     1      11.075  47.395  64.335  0.00  0.00    +0.013 A 
ATOM     17  C   UNL     1      10.436  47.003  63.103  0.00  0.00    +0.005 A 
ATOM     18  C   UNL     1      11.227  46.938  61.876  0.00  0.00    -0.033 A 
ATOM     28  C   UNL     1      12.640  47.272  61.920  0.00  0.00    +0.005 A 
ATOM     29  C   UNL     1      13.270  47.655  63.126  0.00  0.00    +0.013 A 
BRANCH  18  19
ATOM     19  C   UNL     1      10.633  46.510  60.521  0.00  0.00    +0.119 C 
BRANCH  19  20
ATOM     20  N   UNL     1      10.925  47.379  59.342  0.00  0.00    -0.302 NA
ATOM     21  C   UNL     1       9.666  48.070  58.811  0.00  0.00    +0.066 C 
ATOM     22  C   UNL     1       9.994  48.992  57.592  0.00  0.00    -0.064 C 
ATOM     23  N   UNL     1      10.660  48.162  56.493  0.00  0.00    +0.379 N 
ATOM     24  C   UNL     1      10.917  49.014  55.323  0.00  0.00    -0.096 C 
ATOM     25  H   UNL     1       9.939  47.370  56.184  0.00  0.00    -0.082 HD
ATOM     26  C   UNL     1      11.911  47.469  57.013  0.00  0.00    -0.064 C 
ATOM     27  C   UNL     1      11.580  46.578  58.243  0.00  0.00    +0.066 C 
ENDBRANCH  19  20
ENDBRANCH  18  19
ENDBRANCH  14  15
ENDBRANCH  12  13
TORSDOF 6
ENDMDL
MODEL 5
REMARK VINA RESULT:      -8.7      2.570      3.476
REMARK  Name = C:\Users\Docking\Desktop\test protocol\1iep_ligandH.pdb
REMARK  8 active torsions:
REMARK  status: ('A' for Active; 'I' for Inactive)
REMARK    1  A    between atoms: _5  and  _11
REMARK    2  A    between atoms: _19  and  _21
REMARK    3  A    between atoms: _22  and  _66
REMARK    4  A    between atoms: _27  and  _30
REMARK    5  A    between atoms: _32  and  _33
REMARK    6  A    between atoms: _38  and  _43
REMARK    7  A    between atoms: _43  and  _46
REMARK    8  A    between atoms: _53  and  _55
REMARK                            x       y       z     vdW  Elec       q    Type
REMARK                         _______ _______ _______ _____ _____    ______ ____
ROOT
ATOM     10  C   UNL     1      13.916  47.364  67.539  0.00  0.00    +0.038 A 
ATOM     11  C   UNL     1      13.499  47.624  66.209  0.00  0.00    +0.047 A 
ATOM     12  C   UNL     1      12.291  47.021  65.668  0.00  0.00    +0.035 A 
ATOM     32  C   UNL     1      11.529  46.161  66.511  0.00  0.00    +0.024 A 
ATOM     33  C   UNL     1      11.939  45.885  67.865  0.00  0.00    +0.007 A 
ATOM     34  C   UNL     1      13.131  46.475  68.404  0.00  0.00    -0.029 A 
ATOM     35  C   UNL     1      13.526  46.139  69.861  0.00  0.00    +0.045 C 
ENDROOT
BRANCH  10   9
ATOM      4  C   UNL     1      16.224  50.839  69.914  0.00  0.00    +0.077 A 
ATOM      5  C   UNL     1      15.001  51.520  70.225  0.00  0.00    +0.048 A 
ATOM      6  C   UNL     1      13.800  50.947  69.749  0.00  0.00    +0.116 A 
ATOM      7  N   UNL     1      13.832  49.780  69.018  0.00  0.00    -0.223 NA
ATOM      8  C   UNL     1      15.029  49.149  68.734  0.00  0.00    +0.220 A 
ATOM      9  N   UNL     1      15.085  47.970  68.007  0.00  0.00    -0.283 N 
ATOM     36  H   UNL     1      15.988  47.540  67.813  0.00  0.00    +0.155 HD
ATOM     37  N   UNL     1      16.190  49.677  69.176  0.00  0.00    -0.214 NA
BRANCH   4   3
ATOM      1  C   UNL     1      20.045  51.676  69.982  0.00  0.00    +0.020 A 
ATOM      2  C   UNL     1      18.764  51.197  69.515  0.00  0.00    +0.013 A 
ATOM      3  C   UNL     1      17.574  51.318  70.348  0.00  0.00    +0.019 A 
ATOM     38  C   UNL     1      17.715  51.935  71.658  0.00  0.00    +0.120 A 
ATOM     39  N   UNL     1      18.961  52.386  72.082  0.00  0.00    -0.263 NA
ATOM     40  C   UNL     1      20.114  52.273  71.290  0.00  0.00    +0.111 A 
ENDBRANCH   4   3
ENDBRANCH  10   9
BRANCH  12  13
ATOM     13  N   UNL     1      11.823  47.242  64.322  0.00  0.00    -0.281 N 
ATOM     14  C   UNL     1      12.497  47.002  63.135  0.00  0.00    +0.248 C 
ATOM     30  O   UNL     1      13.692  46.761  63.056  0.00  0.00    -0.270 OA
ATOM     31  H   UNL     1      10.880  47.620  64.233  0.00  0.00    +0.155 HD
BRANCH  14  15
ATOM     15  C   UNL     1      11.736  47.053  61.850  0.00  0.00    +0.037 A 
ATOM     16  C   UNL     1      10.706  46.059  61.537  0.00  0.00    +0.013 A 
ATOM     17  C   UNL     1       9.999  46.120  60.282  0.00  0.00    +0.005 A 
ATOM     18  C   UNL     1      10.320  47.182  59.331  0.00  0.00    -0.033 A 
ATOM     28  C   UNL     1      11.343  48.158  59.669  0.00  0.00    +0.005 A 
ATOM     29  C   UNL     1      12.038  48.100  60.897  0.00  0.00    +0.013 A 
BRANCH  18  19
ATOM     19  C   UNL     1       9.631  47.312  57.960  0.00  0.00    +0.119 C 
BRANCH  19  20
ATOM     20  N   UNL     1       9.064  48.647  57.603  0.00  0.00    -0.302 NA
ATOM     21  C   UNL     1       7.538  48.609  57.484  0.00  0.00    +0.066 C 
ATOM     22  C   UNL     1       6.960  50.019  57.132  0.00  0.00    -0.064 C 
ATOM     23  N   UNL     1       7.593  50.517  55.832  0.00  0.00    +0.379 N 
ATOM     24  C   UNL     1       7.008  51.816  55.468  0.00  0.00    -0.096 C 
ATOM     25  H   UNL     1       7.330  49.791  55.028  0.00  0.00    -0.082 HD
ATOM     26  C   UNL     1       9.110  50.555  55.941  0.00  0.00    -0.064 C 
ATOM     27  C   UNL     1       9.672  49.156  56.319  0.00  0.00    +0.066 C 
ENDBRANCH  19  20
ENDBRANCH  18  19
ENDBRANCH  14  15
ENDBRANCH  12  13
TORSDOF 6
ENDMDL
