MODEL 1
REMARK VINA RESULT:     -10.3      0.000      0.000
REMARK  Name = C:\Users\Docking\Desktop\test protocol\1iep_ligandH.pdb
REMARK  8 active torsions:
REMARK  status: ('A' for Active; 'I' for Inactive)
REMARK    1  A    between atoms: _5  and  _11
REMARK    2  A    between atoms: _19  and  _21
REMARK    3  A    between atoms: _22  and  _66
REMARK    4  A    between atoms: _27  and  _30
REMARK    5  A    between atoms: _32  and  _33
REMARK    6  A    between atoms: _38  and  _43
REMARK    7  A    between atoms: _43  and  _46
REMARK    8  A    between atoms: _53  and  _55
REMARK                            x       y       z     vdW  Elec       q    Type
REMARK                         _______ _______ _______ _____ _____    ______ ____
ROOT
ATOM     10  C   UNL     1      13.113  48.483  67.041  0.00  0.00    +0.038 A 
ATOM     11  C   UNL     1      12.649  48.387  65.704  0.00  0.00    +0.047 A 
ATOM     12  C   UNL     1      12.799  47.157  64.942  0.00  0.00    +0.035 A 
ATOM     32  C   UNL     1      13.424  46.043  65.573  0.00  0.00    +0.024 A 
ATOM     33  C   UNL     1      13.903  46.124  66.931  0.00  0.00    +0.007 A 
ATOM     34  C   UNL     1      13.760  47.335  67.687  0.00  0.00    -0.029 A 
ATOM     35  C   UNL     1      14.298  47.366  69.137  0.00  0.00    +0.045 C 
ENDROOT
BRANCH  10   9
ATOM      4  C   UNL     1      14.661  52.797  68.465  0.00  0.00    +0.077 A 
ATOM      5  C   UNL     1      15.926  52.625  67.811  0.00  0.00    +0.048 A 
ATOM      6  C   UNL     1      16.142  51.409  67.125  0.00  0.00    +0.116 A 
ATOM      7  N   UNL     1      15.158  50.444  67.101  0.00  0.00    -0.223 NA
ATOM      8  C   UNL     1      13.949  50.642  67.743  0.00  0.00    +0.220 A 
ATOM      9  N   UNL     1      12.943  49.688  67.726  0.00  0.00    -0.283 N 
ATOM     36  H   UNL     1      12.069  49.869  68.218  0.00  0.00    +0.155 HD
ATOM     37  N   UNL     1      13.720  51.794  68.407  0.00  0.00    -0.214 NA
BRANCH   4   3
ATOM      1  C   UNL     1      13.092  56.241  69.454  0.00  0.00    +0.020 A 
ATOM      2  C   UNL     1      13.427  55.072  68.675  0.00  0.00    +0.013 A 
ATOM      3  C   UNL     1      14.283  54.029  69.228  0.00  0.00    +0.019 A 
ATOM     38  C   UNL     1      14.785  54.201  70.582  0.00  0.00    +0.120 A 
ATOM     39  N   UNL     1      14.446  55.339  71.308  0.00  0.00    -0.263 NA
ATOM     40  C   UNL     1      13.625  56.349  70.786  0.00  0.00    +0.111 A 
ENDBRANCH   4   3
ENDBRANCH  10   9
BRANCH  12  13
ATOM     13  N   UNL     1      12.354  47.004  63.579  0.00  0.00    -0.281 N 
ATOM     14  C   UNL     1      11.056  47.035  63.098  0.00  0.00    +0.248 C 
ATOM     30  O   UNL     1      10.057  46.988  63.800  0.00  0.00    -0.270 OA
ATOM     31  H   UNL     1      13.086  46.853  62.884  0.00  0.00    +0.155 HD
BRANCH  14  15
ATOM     15  C   UNL     1      10.834  47.117  61.622  0.00  0.00    +0.037 A 
ATOM     16  C   UNL     1      10.021  46.122  60.919  0.00  0.00    +0.013 A 
ATOM     17  C   UNL     1       9.837  46.214  59.492  0.00  0.00    +0.005 A 
ATOM     18  C   UNL     1      10.468  47.309  58.759  0.00  0.00    -0.033 A 
ATOM     28  C   UNL     1      11.265  48.286  59.482  0.00  0.00    +0.005 A 
ATOM     29  C   UNL     1      11.448  48.197  60.880  0.00  0.00    +0.013 A 
BRANCH  18  19
ATOM     19  C   UNL     1      10.343  47.474  57.232  0.00  0.00    +0.119 C 
BRANCH  19  20
ATOM     20  N   UNL     1       9.240  48.344  56.727  0.00  0.00    -0.302 NA
ATOM     21  C   UNL     1       9.643  49.821  56.694  0.00  0.00    +0.066 C 
ATOM     22  C   UNL     1       8.485  50.715  56.141  0.00  0.00    -0.064 C 
ATOM     23  N   UNL     1       7.235  50.513  56.999  0.00  0.00    +0.379 N 
ATOM     24  C   UNL     1       6.162  51.395  56.517  0.00  0.00    -0.096 C 
ATOM     25  H   UNL     1       7.486  50.823  58.040  0.00  0.00    -0.082 HD
ATOM     26  C   UNL     1       6.829  49.047  57.039  0.00  0.00    -0.064 C 
ATOM     27  C   UNL     1       7.997  48.164  57.562  0.00  0.00    +0.066 C 
ENDBRANCH  19  20
ENDBRANCH  18  19
ENDBRANCH  14  15
ENDBRANCH  12  13
TORSDOF 6
ENDMDL
MODEL 2
REMARK VINA RESULT:     -10.2      3.124     11.509
REMARK  Name = C:\Users\Docking\Desktop\test protocol\1iep_ligandH.pdb
REMARK  8 active torsions:
REMARK  status: ('A' for Active; 'I' for Inactive)
REMARK    1  A    between atoms: _5  and  _11
REMARK    2  A    between atoms: _19  and  _21
REMARK    3  A    between atoms: _22  and  _66
REMARK    4  A    between atoms: _27  and  _30
REMARK    5  A    between atoms: _32  and  _33
REMARK    6  A    between atoms: _38  and  _43
REMARK    7  A    between atoms: _43  and  _46
REMARK    8  A    between atoms: _53  and  _55
REMARK                            x       y       z     vdW  Elec       q    Type
REMARK                         _______ _______ _______ _____ _____    ______ ____
ROOT
ATOM     10  C   UNL     1      12.271  47.645  65.583  0.00  0.00    +0.038 A 
ATOM     11  C   UNL     1      12.115  48.926  66.172  0.00  0.00    +0.047 A 
ATOM     12  C   UNL     1      12.829  49.288  67.387  0.00  0.00    +0.035 A 
ATOM     32  C   UNL     1      13.696  48.321  67.974  0.00  0.00    +0.024 A 
ATOM     33  C   UNL     1      13.865  47.014  67.390  0.00  0.00    +0.007 A 
ATOM     34  C   UNL     1      13.162  46.651  66.193  0.00  0.00    -0.029 A 
ATOM     35  C   UNL     1      13.377  45.233  65.613  0.00  0.00    +0.045 C 
ENDROOT
BRANCH  10   9
ATOM      4  C   UNL     1      11.674  47.859  60.825  0.00  0.00    +0.077 A 
ATOM      5  C   UNL     1      12.861  48.646  60.652  0.00  0.00    +0.048 A 
ATOM      6  C   UNL     1      13.594  48.980  61.813  0.00  0.00    +0.116 A 
ATOM      7  N   UNL     1      13.161  48.553  63.051  0.00  0.00    -0.223 NA
ATOM      8  C   UNL     1      12.011  47.798  63.183  0.00  0.00    +0.220 A 
ATOM      9  N   UNL     1      11.562  47.352  64.416  0.00  0.00    -0.283 N 
ATOM     36  H   UNL     1      10.705  46.803  64.472  0.00  0.00    +0.155 HD
ATOM     37  N   UNL     1      11.293  47.467  62.089  0.00  0.00    -0.214 NA
BRANCH   4   3
ATOM      1  C   UNL     1       9.681  47.786  57.460  0.00  0.00    +0.020 A 
ATOM      2  C   UNL     1      10.537  48.255  58.526  0.00  0.00    +0.013 A 
ATOM      3  C   UNL     1      10.796  47.423  59.694  0.00  0.00    +0.019 A 
ATOM     38  C   UNL     1      10.168  46.112  59.754  0.00  0.00    +0.120 A 
ATOM     39  N   UNL     1       9.347  45.687  58.714  0.00  0.00    -0.263 NA
ATOM     40  C   UNL     1       9.090  46.480  57.585  0.00  0.00    +0.111 A 
ENDBRANCH   4   3
ENDBRANCH  10   9
BRANCH  12  13
ATOM     13  N   UNL     1      12.704  50.570  68.034  0.00  0.00    -0.281 N 
ATOM     14  C   UNL     1      13.152  51.800  67.581  0.00  0.00    +0.248 C 
ATOM     30  O   UNL     1      13.921  51.953  66.644  0.00  0.00    -0.270 OA
ATOM     31  H   UNL     1      12.228  50.571  68.936  0.00  0.00    +0.155 HD
BRANCH  14  15
ATOM     15  C   UNL     1      12.690  53.039  68.279  0.00  0.00    +0.037 A 
ATOM     16  C   UNL     1      12.976  54.369  67.736  0.00  0.00    +0.013 A 
ATOM     17  C   UNL     1      12.534  55.547  68.438  0.00  0.00    +0.005 A 
ATOM     18  C   UNL     1      11.800  55.400  69.692  0.00  0.00    -0.033 A 
ATOM     28  C   UNL     1      11.525  54.069  70.206  0.00  0.00    +0.005 A 
ATOM     29  C   UNL     1      11.958  52.911  69.521  0.00  0.00    +0.013 A 
BRANCH  18  19
ATOM     19  C   UNL     1      11.308  56.603  70.520  0.00  0.00    +0.119 C 
BRANCH  19  20
ATOM     20  N   UNL     1       9.873  56.608  70.932  0.00  0.00    -0.302 NA
ATOM     21  C   UNL     1       9.189  57.941  70.614  0.00  0.00    +0.066 C 
ATOM     22  C   UNL     1       7.682  57.921  71.031  0.00  0.00    -0.064 C 
ATOM     23  N   UNL     1       7.573  57.599  72.522  0.00  0.00    +0.379 N 
ATOM     24  C   UNL     1       6.161  57.637  72.930  0.00  0.00    -0.096 C 
ATOM     25  H   UNL     1       8.108  58.401  73.082  0.00  0.00    -0.082 HD
ATOM     26  C   UNL     1       8.252  56.276  72.847  0.00  0.00    -0.064 C 
ATOM     27  C   UNL     1       9.741  56.296  72.402  0.00  0.00    +0.066 C 
ENDBRANCH  19  20
ENDBRANCH  18  19
ENDBRANCH  14  15
ENDBRANCH  12  13
TORSDOF 6
ENDMDL
MODEL 3
REMARK VINA RESULT:      -9.5      2.274     11.825
REMARK  Name = C:\Users\Docking\Desktop\test protocol\1iep_ligandH.pdb
REMARK  8 active torsions:
REMARK  status: ('A' for Active; 'I' for Inactive)
REMARK    1  A    between atoms: _5  and  _11
REMARK    2  A    between atoms: _19  and  _21
REMARK    3  A    between atoms: _22  and  _66
REMARK    4  A    between atoms: _27  and  _30
REMARK    5  A    between atoms: _32  and  _33
REMARK    6  A    between atoms: _38  and  _43
REMARK    7  A    between atoms: _43  and  _46
REMARK    8  A    between atoms: _53  and  _55
REMARK                            x       y       z     vdW  Elec       q    Type
REMARK                         _______ _______ _______ _____ _____    ______ ____
ROOT
ATOM     10  C   UNL     1      12.079  47.510  65.507  0.00  0.00    +0.038 A 
ATOM     11  C   UNL     1      11.994  48.785  66.123  0.00  0.00    +0.047 A 
ATOM     12  C   UNL     1      12.706  49.072  67.358  0.00  0.00    +0.035 A 
ATOM     32  C   UNL     1      13.498  48.038  67.938  0.00  0.00    +0.024 A 
ATOM     33  C   UNL     1      13.594  46.737  67.326  0.00  0.00    +0.007 A 
ATOM     34  C   UNL     1      12.892  46.447  66.108  0.00  0.00    -0.029 A 
ATOM     35  C   UNL     1      13.027  45.031  65.500  0.00  0.00    +0.045 C 
ENDROOT
BRANCH  10   9
ATOM      4  C   UNL     1      11.601  47.843  60.743  0.00  0.00    +0.077 A 
ATOM      5  C   UNL     1      12.847  48.539  60.607  0.00  0.00    +0.048 A 
ATOM      6  C   UNL     1      13.578  48.799  61.788  0.00  0.00    +0.116 A 
ATOM      7  N   UNL     1      13.088  48.387  63.009  0.00  0.00    -0.223 NA
ATOM      8  C   UNL     1      11.882  47.719  63.105  0.00  0.00    +0.220 A 
ATOM      9  N   UNL     1      11.374  47.289  64.321  0.00  0.00    -0.283 N 
ATOM     36  H   UNL     1      10.477  46.806  64.351  0.00  0.00    +0.155 HD
ATOM     37  N   UNL     1      11.165  47.460  61.992  0.00  0.00    -0.214 NA
BRANCH   4   3
ATOM      1  C   UNL     1       9.352  45.861  58.229  0.00  0.00    +0.020 A 
ATOM      2  C   UNL     1      10.204  46.146  59.361  0.00  0.00    +0.013 A 
ATOM      3  C   UNL     1      10.716  47.492  59.587  0.00  0.00    +0.019 A 
ATOM     38  C   UNL     1      10.345  48.534  58.641  0.00  0.00    +0.120 A 
ATOM     39  N   UNL     1       9.524  48.229  57.560  0.00  0.00    -0.263 NA
ATOM     40  C   UNL     1       9.027  46.937  57.332  0.00  0.00    +0.111 A 
ENDBRANCH   4   3
ENDBRANCH  10   9
BRANCH  12  13
ATOM     13  N   UNL     1      12.652  50.345  68.034  0.00  0.00    -0.281 N 
ATOM     14  C   UNL     1      13.409  51.477  67.781  0.00  0.00    +0.248 C 
ATOM     30  O   UNL     1      14.404  51.498  67.071  0.00  0.00    -0.270 OA
ATOM     31  H   UNL     1      11.972  50.421  68.791  0.00  0.00    +0.155 HD
BRANCH  14  15
ATOM     15  C   UNL     1      13.014  52.768  68.420  0.00  0.00    +0.037 A 
ATOM     16  C   UNL     1      13.133  54.040  67.702  0.00  0.00    +0.013 A 
ATOM     17  C   UNL     1      12.760  55.273  68.348  0.00  0.00    +0.005 A 
ATOM     18  C   UNL     1      12.263  55.241  69.721  0.00  0.00    -0.033 A 
ATOM     28  C   UNL     1      12.151  53.965  70.409  0.00  0.00    +0.005 A 
ATOM     29  C   UNL     1      12.516  52.754  69.779  0.00  0.00    +0.013 A 
BRANCH  18  19
ATOM     19  C   UNL     1      11.863  56.510  70.496  0.00  0.00    +0.119 C 
BRANCH  19  20
ATOM     20  N   UNL     1      12.961  57.432  70.912  0.00  0.00    -0.302 NA
ATOM     21  C   UNL     1      13.336  58.418  69.802  0.00  0.00    +0.066 C 
ATOM     22  C   UNL     1      14.470  59.389  70.262  0.00  0.00    -0.064 C 
ATOM     23  N   UNL     1      15.690  58.575  70.697  0.00  0.00    +0.379 N 
ATOM     24  C   UNL     1      16.779  59.487  71.076  0.00  0.00    -0.096 C 
ATOM     25  H   UNL     1      16.034  57.984  69.817  0.00  0.00    -0.082 HD
ATOM     26  C   UNL     1      15.326  57.591  71.800  0.00  0.00    -0.064 C 
ATOM     27  C   UNL     1      14.177  56.649  71.343  0.00  0.00    +0.066 C 
ENDBRANCH  19  20
ENDBRANCH  18  19
ENDBRANCH  14  15
ENDBRANCH  12  13
TORSDOF 6
ENDMDL
MODEL 4
REMARK VINA RESULT:      -9.2      1.989      3.105
REMARK  Name = C:\Users\Docking\Desktop\test protocol\1iep_ligandH.pdb
REMARK  8 active torsions:
REMARK  status: ('A' for Active; 'I' for Inactive)
REMARK    1  A    between atoms: _5  and  _11
REMARK    2  A    between atoms: _19  and  _21
REMARK    3  A    between atoms: _22  and  _66
REMARK    4  A    between atoms: _27  and  _30
REMARK    5  A    between atoms: _32  and  _33
REMARK    6  A    between atoms: _38  and  _43
REMARK    7  A    between atoms: _43  and  _46
REMARK    8  A    between atoms: _53  and  _55
REMARK                            x       y       z     vdW  Elec       q    Type
REMARK                         _______ _______ _______ _____ _____    ______ ____
ROOT
ATOM     10  C   UNL     1      13.024  50.612  68.671  0.00  0.00    +0.038 A 
ATOM     11  C   UNL     1      12.694  50.158  67.368  0.00  0.00    +0.047 A 
ATOM     12  C   UNL     1      13.365  49.009  66.780  0.00  0.00    +0.035 A 
ATOM     32  C   UNL     1      14.364  48.344  67.548  0.00  0.00    +0.024 A 
ATOM     33  C   UNL     1      14.713  48.793  68.873  0.00  0.00    +0.007 A 
ATOM     34  C   UNL     1      14.056  49.927  69.457  0.00  0.00    -0.029 A 
ATOM     35  C   UNL     1      14.475  50.368  70.880  0.00  0.00    +0.045 C 
ENDROOT
BRANCH  10   9
ATOM      4  C   UNL     1      12.461  55.347  69.219  0.00  0.00    +0.077 A 
ATOM      5  C   UNL     1      13.626  55.637  68.434  0.00  0.00    +0.048 A 
ATOM      6  C   UNL     1      14.347  54.538  67.913  0.00  0.00    +0.116 A 
ATOM      7  N   UNL     1      13.924  53.251  68.165  0.00  0.00    -0.223 NA
ATOM      8  C   UNL     1      12.796  53.007  68.927  0.00  0.00    +0.220 A 
ATOM      9  N   UNL     1      12.349  51.721  69.186  0.00  0.00    -0.283 N 
ATOM     36  H   UNL     1      11.517  51.583  69.759  0.00  0.00    +0.155 HD
ATOM     37  N   UNL     1      12.092  54.039  69.437  0.00  0.00    -0.214 NA
BRANCH   4   3
ATOM      1  C   UNL     1      10.993  58.803  70.318  0.00  0.00    +0.020 A 
ATOM      2  C   UNL     1      11.863  57.827  69.703  0.00  0.00    +0.013 A 
ATOM      3  C   UNL     1      11.593  56.400  69.835  0.00  0.00    +0.019 A 
ATOM     38  C   UNL     1      10.424  55.992  70.600  0.00  0.00    +0.120 A 
ATOM     39  N   UNL     1       9.605  56.955  71.181  0.00  0.00    -0.263 NA
ATOM     40  C   UNL     1       9.857  58.330  71.063  0.00  0.00    +0.111 A 
ENDBRANCH   4   3
ENDBRANCH  10   9
BRANCH  12  13
ATOM     13  N   UNL     1      13.078  48.507  65.459  0.00  0.00    -0.281 N 
ATOM     14  C   UNL     1      11.966  47.795  65.041  0.00  0.00    +0.248 C 
ATOM     30  O   UNL     1      11.143  47.294  65.794  0.00  0.00    -0.270 OA
ATOM     31  H   UNL     1      13.780  48.701  64.745  0.00  0.00    +0.155 HD
BRANCH  14  15
ATOM     15  C   UNL     1      11.742  47.599  63.576  0.00  0.00    +0.037 A 
ATOM     16  C   UNL     1      12.771  47.956  62.596  0.00  0.00    +0.013 A 
ATOM     17  C   UNL     1      12.523  47.772  61.188  0.00  0.00    +0.005 A 
ATOM     18  C   UNL     1      11.239  47.227  60.752  0.00  0.00    -0.033 A 
ATOM     28  C   UNL     1      10.239  46.876  61.746  0.00  0.00    +0.005 A 
ATOM     29  C   UNL     1      10.478  47.055  63.127  0.00  0.00    +0.013 A 
BRANCH  18  19
ATOM     19  C   UNL     1      10.880  47.016  59.269  0.00  0.00    +0.119 C 
BRANCH  19  20
ATOM     20  N   UNL     1       9.820  47.895  58.691  0.00  0.00    -0.302 NA
ATOM     21  C   UNL     1       8.896  47.130  57.739  0.00  0.00    +0.066 C 
ATOM     22  C   UNL     1       7.779  48.059  57.161  0.00  0.00    -0.064 C 
ATOM     23  N   UNL     1       8.426  49.248  56.449  0.00  0.00    +0.379 N 
ATOM     24  C   UNL     1       7.380  50.093  55.855  0.00  0.00    -0.096 C 
ATOM     25  H   UNL     1       9.050  48.846  55.617  0.00  0.00    -0.082 HD
ATOM     26  C   UNL     1       9.348  50.013  57.389  0.00  0.00    -0.064 C 
ATOM     27  C   UNL     1      10.437  49.074  57.980  0.00  0.00    +0.066 C 
ENDBRANCH  19  20
ENDBRANCH  18  19
ENDBRANCH  14  15
ENDBRANCH  12  13
TORSDOF 6
ENDMDL
MODEL 5
REMARK VINA RESULT:      -8.9      5.624     12.290
REMARK  Name = C:\Users\Docking\Desktop\test protocol\1iep_ligandH.pdb
REMARK  8 active torsions:
REMARK  status: ('A' for Active; 'I' for Inactive)
REMARK    1  A    between atoms: _5  and  _11
REMARK    2  A    between atoms: _19  and  _21
REMARK    3  A    between atoms: _22  and  _66
REMARK    4  A    between atoms: _27  and  _30
REMARK    5  A    between atoms: _32  and  _33
REMARK    6  A    between atoms: _38  and  _43
REMARK    7  A    between atoms: _43  and  _46
REMARK    8  A    between atoms: _53  and  _55
REMARK                            x       y       z     vdW  Elec       q    Type
REMARK                         _______ _______ _______ _____ _____    ______ ____
ROOT
ATOM     10  C   UNL     1      13.820  51.252  68.434  0.00  0.00    +0.038 A 
ATOM     11  C   UNL     1      12.843  52.082  69.041  0.00  0.00    +0.047 A 
ATOM     12  C   UNL     1      13.023  52.593  70.391  0.00  0.00    +0.035 A 
ATOM     32  C   UNL     1      14.212  52.240  71.094  0.00  0.00    +0.024 A 
ATOM     33  C   UNL     1      15.215  51.396  70.493  0.00  0.00    +0.007 A 
ATOM     34  C   UNL     1      15.042  50.888  69.162  0.00  0.00    -0.029 A 
ATOM     35  C   UNL     1      16.146  49.982  68.570  0.00  0.00    +0.045 C 
ENDROOT
BRANCH  10   9
ATOM      4  C   UNL     1      12.024  48.065  65.327  0.00  0.00    +0.077 A 
ATOM      5  C   UNL     1      11.513  47.237  66.381  0.00  0.00    +0.048 A 
ATOM      6  C   UNL     1      11.739  47.663  67.709  0.00  0.00    +0.116 A 
ATOM      7  N   UNL     1      12.427  48.832  67.953  0.00  0.00    -0.223 NA
ATOM      8  C   UNL     1      12.908  49.607  66.913  0.00  0.00    +0.220 A 
ATOM      9  N   UNL     1      13.596  50.790  67.136  0.00  0.00    -0.283 N 
ATOM     36  H   UNL     1      13.941  51.329  66.342  0.00  0.00    +0.155 HD
ATOM     37  N   UNL     1      12.706  49.221  65.636  0.00  0.00    -0.214 NA
BRANCH   4   3
ATOM      1  C   UNL     1      12.740  47.562  61.514  0.00  0.00    +0.020 A 
ATOM      2  C   UNL     1      12.949  47.878  62.908  0.00  0.00    +0.013 A 
ATOM      3  C   UNL     1      11.863  47.751  63.872  0.00  0.00    +0.019 A 
ATOM     38  C   UNL     1      10.568  47.296  63.389  0.00  0.00    +0.120 A 
ATOM     39  N   UNL     1      10.396  47.000  62.040  0.00  0.00    -0.263 NA
ATOM     40  C   UNL     1      11.433  47.120  61.103  0.00  0.00    +0.111 A 
ENDBRANCH   4   3
ENDBRANCH  10   9
BRANCH  12  13
ATOM     13  N   UNL     1      12.062  53.433  71.062  0.00  0.00    -0.281 N 
ATOM     14  C   UNL     1      11.364  54.510  70.542  0.00  0.00    +0.248 C 
ATOM     30  O   UNL     1      11.619  55.051  69.476  0.00  0.00    -0.270 OA
ATOM     31  H   UNL     1      11.874  53.206  72.038  0.00  0.00    +0.155 HD
BRANCH  14  15
ATOM     15  C   UNL     1      10.225  55.079  71.326  0.00  0.00    +0.037 A 
ATOM     16  C   UNL     1       9.647  56.383  70.990  0.00  0.00    +0.013 A 
ATOM     17  C   UNL     1       8.561  56.916  71.773  0.00  0.00    +0.005 A 
ATOM     18  C   UNL     1       8.045  56.144  72.901  0.00  0.00    -0.033 A 
ATOM     28  C   UNL     1       8.634  54.851  73.210  0.00  0.00    +0.005 A 
ATOM     29  C   UNL     1       9.699  54.326  72.445  0.00  0.00    +0.013 A 
BRANCH  18  19
ATOM     19  C   UNL     1       6.903  56.644  73.805  0.00  0.00    +0.119 C 
BRANCH  19  20
ATOM     20  N   UNL     1       5.542  56.077  73.565  0.00  0.00    -0.302 NA
ATOM     21  C   UNL     1       4.613  57.083  72.880  0.00  0.00    +0.066 C 
ATOM     22  C   UNL     1       3.201  56.465  72.616  0.00  0.00    -0.064 C 
ATOM     23  N   UNL     1       2.601  55.987  73.940  0.00  0.00    +0.379 N 
ATOM     24  C   UNL     1       1.250  55.459  73.703  0.00  0.00    -0.096 C 
ATOM     25  H   UNL     1       2.505  56.875  74.607  0.00  0.00    -0.082 HD
ATOM     26  C   UNL     1       3.520  54.989  74.629  0.00  0.00    -0.064 C 
ATOM     27  C   UNL     1       4.929  55.603  74.860  0.00  0.00    +0.066 C 
ENDBRANCH  19  20
ENDBRANCH  18  19
ENDBRANCH  14  15
ENDBRANCH  12  13
TORSDOF 6
ENDMDL
