MODEL 1
REMARK VINA RESULT:     -10.0      0.000      0.000
REMARK  Name = C:\Users\Docking\Desktop\test protocol\1iep_ligandH.pdb
REMARK  8 active torsions:
REMARK  status: ('A' for Active; 'I' for Inactive)
REMARK    1  A    between atoms: _5  and  _11
REMARK    2  A    between atoms: _19  and  _21
REMARK    3  A    between atoms: _22  and  _66
REMARK    4  A    between atoms: _27  and  _30
REMARK    5  A    between atoms: _32  and  _33
REMARK    6  A    between atoms: _38  and  _43
REMARK    7  A    between atoms: _43  and  _46
REMARK    8  A    between atoms: _53  and  _55
REMARK                            x       y       z     vdW  Elec       q    Type
REMARK                         _______ _______ _______ _____ _____    ______ ____
ROOT
ATOM     10  C   UNL     1      15.785  17.927  10.485  0.00  0.00    +0.038 A 
ATOM     11  C   UNL     1      15.499  19.316  10.497  0.00  0.00    +0.047 A 
ATOM     12  C   UNL     1      16.477  20.291  10.042  0.00  0.00    +0.035 A 
ATOM     32  C   UNL     1      17.738  19.815   9.578  0.00  0.00    +0.024 A 
ATOM     33  C   UNL     1      18.047  18.407   9.559  0.00  0.00    +0.007 A 
ATOM     34  C   UNL     1      17.086  17.441  10.009  0.00  0.00    -0.029 A 
ATOM     35  C   UNL     1      17.474  15.944   9.973  0.00  0.00    +0.045 C 
ENDROOT
BRANCH  10   9
ATOM      4  C   UNL     1      13.547  15.502  13.970  0.00  0.00    +0.077 A 
ATOM      5  C   UNL     1      14.415  16.037  14.980  0.00  0.00    +0.048 A 
ATOM      6  C   UNL     1      15.429  16.927  14.560  0.00  0.00    +0.116 A 
ATOM      7  N   UNL     1      15.556  17.251  13.227  0.00  0.00    -0.223 NA
ATOM      8  C   UNL     1      14.704  16.716  12.278  0.00  0.00    +0.220 A 
ATOM      9  N   UNL     1      14.809  17.035  10.933  0.00  0.00    -0.283 N 
ATOM     36  H   UNL     1      14.165  16.614  10.264  0.00  0.00    +0.155 HD
ATOM     37  N   UNL     1      13.728  15.863  12.654  0.00  0.00    -0.214 NA
BRANCH   4   3
ATOM      1  C   UNL     1      11.003  13.182  15.826  0.00  0.00    +0.020 A 
ATOM      2  C   UNL     1      12.096  14.100  15.603  0.00  0.00    +0.013 A 
ATOM      3  C   UNL     1      12.426  14.552  14.257  0.00  0.00    +0.019 A 
ATOM     38  C   UNL     1      11.624  14.053  13.151  0.00  0.00    +0.120 A 
ATOM     39  N   UNL     1      10.579  13.169  13.396  0.00  0.00    -0.263 NA
ATOM     40  C   UNL     1      10.253  12.725  14.686  0.00  0.00    +0.111 A 
ENDBRANCH   4   3
ENDBRANCH  10   9
BRANCH  12  13
ATOM     13  N   UNL     1      16.246  21.714  10.040  0.00  0.00    -0.281 N 
ATOM     14  C   UNL     1      15.355  22.430   9.257  0.00  0.00    +0.248 C 
ATOM     30  O   UNL     1      14.771  21.977   8.284  0.00  0.00    -0.270 OA
ATOM     31  H   UNL     1      16.806  22.259  10.694  0.00  0.00    +0.155 HD
BRANCH  14  15
ATOM     15  C   UNL     1      15.085  23.860   9.596  0.00  0.00    +0.037 A 
ATOM     16  C   UNL     1      14.060  24.229  10.575  0.00  0.00    +0.013 A 
ATOM     17  C   UNL     1      13.808  25.617  10.871  0.00  0.00    +0.005 A 
ATOM     18  C   UNL     1      14.584  26.648  10.186  0.00  0.00    -0.033 A 
ATOM     28  C   UNL     1      15.599  26.254   9.222  0.00  0.00    +0.005 A 
ATOM     29  C   UNL     1      15.848  24.894   8.929  0.00  0.00    +0.013 A 
BRANCH  18  19
ATOM     19  C   UNL     1      14.368  28.154  10.424  0.00  0.00    +0.119 C 
BRANCH  19  20
ATOM     20  N   UNL     1      14.935  28.737  11.676  0.00  0.00    -0.302 NA
ATOM     21  C   UNL     1      16.369  28.265  11.932  0.00  0.00    +0.066 C 
ATOM     22  C   UNL     1      16.954  28.902  13.234  0.00  0.00    -0.064 C 
ATOM     23  N   UNL     1      16.050  28.555  14.419  0.00  0.00    +0.379 N 
ATOM     24  C   UNL     1      16.629  29.104  15.654  0.00  0.00    -0.096 C 
ATOM     25  H   UNL     1      16.033  27.445  14.517  0.00  0.00    -0.082 HD
ATOM     26  C   UNL     1      14.622  29.019  14.172  0.00  0.00    -0.064 C 
ATOM     27  C   UNL     1      14.060  28.403  12.860  0.00  0.00    +0.066 C 
ENDBRANCH  19  20
ENDBRANCH  18  19
ENDBRANCH  14  15
ENDBRANCH  12  13
TORSDOF 6
ENDMDL
MODEL 2
REMARK VINA RESULT:      -8.8      2.782     12.597
REMARK  Name = C:\Users\Docking\Desktop\test protocol\1iep_ligandH.pdb
REMARK  8 active torsions:
REMARK  status: ('A' for Active; 'I' for Inactive)
REMARK    1  A    between atoms: _5  and  _11
REMARK    2  A    between atoms: _19  and  _21
REMARK    3  A    between atoms: _22  and  _66
REMARK    4  A    between atoms: _27  and  _30
REMARK    5  A    between atoms: _32  and  _33
REMARK    6  A    between atoms: _38  and  _43
REMARK    7  A    between atoms: _43  and  _46
REMARK    8  A    between atoms: _53  and  _55
REMARK                            x       y       z     vdW  Elec       q    Type
REMARK                         _______ _______ _______ _____ _____    ______ ____
ROOT
ATOM     10  C   UNL     1      17.628  26.897   7.941  0.00  0.00    +0.038 A 
ATOM     11  C   UNL     1      17.492  25.648   8.598  0.00  0.00    +0.047 A 
ATOM     12  C   UNL     1      16.800  24.536   7.964  0.00  0.00    +0.035 A 
ATOM     32  C   UNL     1      16.260  24.732   6.659  0.00  0.00    +0.024 A 
ATOM     33  C   UNL     1      16.388  25.996   5.978  0.00  0.00    +0.007 A 
ATOM     34  C   UNL     1      17.068  27.097   6.599  0.00  0.00    -0.029 A 
ATOM     35  C   UNL     1      17.169  28.431   5.824  0.00  0.00    +0.045 C 
ENDROOT
BRANCH  10   9
ATOM      4  C   UNL     1      18.136  29.976  11.588  0.00  0.00    +0.077 A 
ATOM      5  C   UNL     1      16.942  29.505  12.230  0.00  0.00    +0.048 A 
ATOM      6  C   UNL     1      16.223  28.474  11.585  0.00  0.00    +0.116 A 
ATOM      7  N   UNL     1      16.673  27.960  10.388  0.00  0.00    -0.223 NA
ATOM      8  C   UNL     1      17.827  28.438   9.795  0.00  0.00    +0.220 A 
ATOM      9  N   UNL     1      18.302  27.931   8.596  0.00  0.00    -0.283 N 
ATOM     36  H   UNL     1      19.153  28.315   8.188  0.00  0.00    +0.155 HD
ATOM     37  N   UNL     1      18.531  29.423  10.391  0.00  0.00    -0.214 NA
BRANCH   4   3
ATOM      1  C   UNL     1      20.235  32.185  14.041  0.00  0.00    +0.020 A 
ATOM      2  C   UNL     1      19.392  31.119  13.552  0.00  0.00    +0.013 A 
ATOM      3  C   UNL     1      19.006  31.058  12.147  0.00  0.00    +0.019 A 
ATOM     38  C   UNL     1      19.496  32.100  11.257  0.00  0.00    +0.120 A 
ATOM     39  N   UNL     1      20.306  33.115  11.756  0.00  0.00    -0.263 NA
ATOM     40  C   UNL     1      20.681  33.185  13.106  0.00  0.00    +0.111 A 
ENDBRANCH   4   3
ENDBRANCH  10   9
BRANCH  12  13
ATOM     13  N   UNL     1      16.624  23.247   8.585  0.00  0.00    -0.281 N 
ATOM     14  C   UNL     1      15.580  22.825   9.392  0.00  0.00    +0.248 C 
ATOM     30  O   UNL     1      14.739  23.567   9.878  0.00  0.00    -0.270 OA
ATOM     31  H   UNL     1      17.359  22.561   8.409  0.00  0.00    +0.155 HD
BRANCH  14  15
ATOM     15  C   UNL     1      15.459  21.371   9.716  0.00  0.00    +0.037 A 
ATOM     16  C   UNL     1      14.211  20.641   9.483  0.00  0.00    +0.013 A 
ATOM     17  C   UNL     1      14.117  19.243   9.821  0.00  0.00    +0.005 A 
ATOM     18  C   UNL     1      15.276  18.565  10.395  0.00  0.00    -0.033 A 
ATOM     28  C   UNL     1      16.504  19.312  10.611  0.00  0.00    +0.005 A 
ATOM     29  C   UNL     1      16.600  20.683  10.282  0.00  0.00    +0.013 A 
BRANCH  18  19
ATOM     19  C   UNL     1      15.259  17.081  10.806  0.00  0.00    +0.119 C 
BRANCH  19  20
ATOM     20  N   UNL     1      14.431  16.709  11.992  0.00  0.00    -0.302 NA
ATOM     21  C   UNL     1      15.291  16.233  13.166  0.00  0.00    +0.066 C 
ATOM     22  C   UNL     1      14.410  15.870  14.406  0.00  0.00    -0.064 C 
ATOM     23  N   UNL     1      13.394  14.797  14.009  0.00  0.00    +0.379 N 
ATOM     24  C   UNL     1      12.603  14.411  15.186  0.00  0.00    -0.096 C 
ATOM     25  H   UNL     1      13.964  13.899  13.675  0.00  0.00    -0.082 HD
ATOM     26  C   UNL     1      12.537  15.261  12.840  0.00  0.00    -0.064 C 
ATOM     27  C   UNL     1      13.424  15.648  11.623  0.00  0.00    +0.066 C 
ENDBRANCH  19  20
ENDBRANCH  18  19
ENDBRANCH  14  15
ENDBRANCH  12  13
TORSDOF 6
ENDMDL
MODEL 3
REMARK VINA RESULT:      -8.4      2.076      2.885
REMARK  Name = C:\Users\Docking\Desktop\test protocol\1iep_ligandH.pdb
REMARK  8 active torsions:
REMARK  status: ('A' for Active; 'I' for Inactive)
REMARK    1  A    between atoms: _5  and  _11
REMARK    2  A    between atoms: _19  and  _21
REMARK    3  A    between atoms: _22  and  _66
REMARK    4  A    between atoms: _27  and  _30
REMARK    5  A    between atoms: _32  and  _33
REMARK    6  A    between atoms: _38  and  _43
REMARK    7  A    between atoms: _43  and  _46
REMARK    8  A    between atoms: _53  and  _55
REMARK                            x       y       z     vdW  Elec       q    Type
REMARK                         _______ _______ _______ _____ _____    ______ ____
ROOT
ATOM     10  C   UNL     1      15.715  18.085  10.382  0.00  0.00    +0.038 A 
ATOM     11  C   UNL     1      15.393  19.459  10.239  0.00  0.00    +0.047 A 
ATOM     12  C   UNL     1      16.381  20.418   9.769  0.00  0.00    +0.035 A 
ATOM     32  C   UNL     1      17.687  19.943   9.452  0.00  0.00    +0.024 A 
ATOM     33  C   UNL     1      18.031  18.550   9.593  0.00  0.00    +0.007 A 
ATOM     34  C   UNL     1      17.062  17.600  10.058  0.00  0.00    -0.029 A 
ATOM     35  C   UNL     1      17.488  16.120  10.197  0.00  0.00    +0.045 C 
ENDROOT
BRANCH  10   9
ATOM      4  C   UNL     1      13.606  15.516  13.844  0.00  0.00    +0.077 A 
ATOM      5  C   UNL     1      14.567  15.934  14.823  0.00  0.00    +0.048 A 
ATOM      6  C   UNL     1      15.593  16.806  14.393  0.00  0.00    +0.116 A 
ATOM      7  N   UNL     1      15.643  17.221  13.080  0.00  0.00    -0.223 NA
ATOM      8  C   UNL     1      14.701  16.797  12.161  0.00  0.00    +0.220 A 
ATOM      9  N   UNL     1      14.728  17.208  10.838  0.00  0.00    -0.283 N 
ATOM     36  H   UNL     1      14.019  16.867  10.189  0.00  0.00    +0.155 HD
ATOM     37  N   UNL     1      13.712  15.964  12.547  0.00  0.00    -0.214 NA
BRANCH   4   3
ATOM      1  C   UNL     1      11.009  13.282  15.733  0.00  0.00    +0.020 A 
ATOM      2  C   UNL     1      12.125  14.168  15.497  0.00  0.00    +0.013 A 
ATOM      3  C   UNL     1      12.461  14.599  14.145  0.00  0.00    +0.019 A 
ATOM     38  C   UNL     1      11.640  14.112  13.047  0.00  0.00    +0.120 A 
ATOM     39  N   UNL     1      10.572  13.259  13.305  0.00  0.00    -0.263 NA
ATOM     40  C   UNL     1      10.240  12.836  14.601  0.00  0.00    +0.111 A 
ENDBRANCH   4   3
ENDBRANCH  10   9
BRANCH  12  13
ATOM     13  N   UNL     1      16.114  21.826   9.611  0.00  0.00    -0.281 N 
ATOM     14  C   UNL     1      15.235  22.433   8.729  0.00  0.00    +0.248 C 
ATOM     30  O   UNL     1      14.697  21.866   7.789  0.00  0.00    -0.270 OA
ATOM     31  H   UNL     1      16.638  22.452  10.223  0.00  0.00    +0.155 HD
BRANCH  14  15
ATOM     15  C   UNL     1      14.918  23.883   8.908  0.00  0.00    +0.037 A 
ATOM     16  C   UNL     1      15.963  24.854   9.241  0.00  0.00    +0.013 A 
ATOM     17  C   UNL     1      15.627  26.243   9.425  0.00  0.00    +0.005 A 
ATOM     18  C   UNL     1      14.238  26.670   9.274  0.00  0.00    -0.033 A 
ATOM     28  C   UNL     1      13.222  25.687   8.938  0.00  0.00    +0.005 A 
ATOM     29  C   UNL     1      13.547  24.324   8.758  0.00  0.00    +0.013 A 
BRANCH  18  19
ATOM     19  C   UNL     1      13.785  28.129   9.473  0.00  0.00    +0.119 C 
BRANCH  19  20
ATOM     20  N   UNL     1      14.466  29.174   8.651  0.00  0.00    -0.302 NA
ATOM     21  C   UNL     1      14.979  28.615   7.321  0.00  0.00    +0.066 C 
ATOM     22  C   UNL     1      15.667  29.727   6.464  0.00  0.00    -0.064 C 
ATOM     23  N   UNL     1      16.811  30.350   7.267  0.00  0.00    +0.379 N 
ATOM     24  C   UNL     1      17.497  31.356   6.443  0.00  0.00    -0.096 C 
ATOM     25  H   UNL     1      17.544  29.542   7.495  0.00  0.00    -0.082 HD
ATOM     26  C   UNL     1      16.310  30.906   8.592  0.00  0.00    -0.064 C 
ATOM     27  C   UNL     1      15.601  29.800   9.423  0.00  0.00    +0.066 C 
ENDBRANCH  19  20
ENDBRANCH  18  19
ENDBRANCH  14  15
ENDBRANCH  12  13
TORSDOF 6
ENDMDL
MODEL 4
REMARK VINA RESULT:      -8.0      2.332     11.903
REMARK  Name = C:\Users\Docking\Desktop\test protocol\1iep_ligandH.pdb
REMARK  8 active torsions:
REMARK  status: ('A' for Active; 'I' for Inactive)
REMARK    1  A    between atoms: _5  and  _11
REMARK    2  A    between atoms: _19  and  _21
REMARK    3  A    between atoms: _22  and  _66
REMARK    4  A    between atoms: _27  and  _30
REMARK    5  A    between atoms: _32  and  _33
REMARK    6  A    between atoms: _38  and  _43
REMARK    7  A    between atoms: _43  and  _46
REMARK    8  A    between atoms: _53  and  _55
REMARK                            x       y       z     vdW  Elec       q    Type
REMARK                         _______ _______ _______ _____ _____    ______ ____
ROOT
ATOM     10  C   UNL     1      13.854  27.241  10.985  0.00  0.00    +0.038 A 
ATOM     11  C   UNL     1      13.886  25.842  11.214  0.00  0.00    +0.047 A 
ATOM     12  C   UNL     1      14.494  24.935  10.253  0.00  0.00    +0.035 A 
ATOM     32  C   UNL     1      15.062  25.489   9.069  0.00  0.00    +0.024 A 
ATOM     33  C   UNL     1      15.038  26.909   8.819  0.00  0.00    +0.007 A 
ATOM     34  C   UNL     1      14.437  27.807   9.763  0.00  0.00    -0.029 A 
ATOM     35  C   UNL     1      14.434  29.320   9.440  0.00  0.00    +0.045 C 
ENDROOT
BRANCH  10   9
ATOM      4  C   UNL     1      13.989  29.795  15.046  0.00  0.00    +0.077 A 
ATOM      5  C   UNL     1      15.355  29.436  15.297  0.00  0.00    +0.048 A 
ATOM      6  C   UNL     1      15.984  28.586  14.360  0.00  0.00    +0.116 A 
ATOM      7  N   UNL     1      15.290  28.136  13.258  0.00  0.00    -0.223 NA
ATOM      8  C   UNL     1      13.973  28.500  13.047  0.00  0.00    +0.220 A 
ATOM      9  N   UNL     1      13.258  28.065  11.942  0.00  0.00    -0.283 N 
ATOM     36  H   UNL     1      12.285  28.350  11.827  0.00  0.00    +0.155 HD
ATOM     37  N   UNL     1      13.349  29.309  13.928  0.00  0.00    -0.214 NA
BRANCH   4   3
ATOM      1  C   UNL     1      11.503  31.084  17.778  0.00  0.00    +0.020 A 
ATOM      2  C   UNL     1      12.251  30.179  16.936  0.00  0.00    +0.013 A 
ATOM      3  C   UNL     1      13.188  30.688  15.943  0.00  0.00    +0.019 A 
ATOM     38  C   UNL     1      13.346  32.130  15.825  0.00  0.00    +0.120 A 
ATOM     39  N   UNL     1      12.610  32.977  16.648  0.00  0.00    -0.263 NA
ATOM     40  C   UNL     1      11.705  32.499  17.606  0.00  0.00    +0.111 A 
ENDBRANCH   4   3
ENDBRANCH  10   9
BRANCH  12  13
ATOM     13  N   UNL     1      14.549  23.505  10.428  0.00  0.00    -0.281 N 
ATOM     14  C   UNL     1      13.815  22.537   9.762  0.00  0.00    +0.248 C 
ATOM     30  O   UNL     1      12.841  22.768   9.061  0.00  0.00    -0.270 OA
ATOM     31  H   UNL     1      15.209  23.165  11.127  0.00  0.00    +0.155 HD
BRANCH  14  15
ATOM     15  C   UNL     1      14.212  21.103   9.907  0.00  0.00    +0.037 A 
ATOM     16  C   UNL     1      13.307  20.021   9.512  0.00  0.00    +0.013 A 
ATOM     17  C   UNL     1      13.708  18.646   9.678  0.00  0.00    +0.005 A 
ATOM     18  C   UNL     1      15.023  18.347  10.241  0.00  0.00    -0.033 A 
ATOM     28  C   UNL     1      15.903  19.440  10.619  0.00  0.00    +0.005 A 
ATOM     29  C   UNL     1      15.512  20.789  10.459  0.00  0.00    +0.013 A 
BRANCH  18  19
ATOM     19  C   UNL     1      15.525  16.910  10.474  0.00  0.00    +0.119 C 
BRANCH  19  20
ATOM     20  N   UNL     1      14.893  16.135  11.583  0.00  0.00    -0.302 NA
ATOM     21  C   UNL     1      13.372  16.048  11.428  0.00  0.00    +0.066 C 
ATOM     22  C   UNL     1      12.729  15.215  12.585  0.00  0.00    -0.064 C 
ATOM     23  N   UNL     1      13.102  15.843  13.929  0.00  0.00    +0.379 N 
ATOM     24  C   UNL     1      12.451  15.097  15.016  0.00  0.00    -0.096 C 
ATOM     25  H   UNL     1      12.696  16.881  13.941  0.00  0.00    -0.082 HD
ATOM     26  C   UNL     1      14.612  15.936  14.090  0.00  0.00    -0.064 C 
ATOM     27  C   UNL     1      15.244  16.740  12.920  0.00  0.00    +0.066 C 
ENDBRANCH  19  20
ENDBRANCH  18  19
ENDBRANCH  14  15
ENDBRANCH  12  13
TORSDOF 6
ENDMDL
MODEL 5
REMARK VINA RESULT:      -7.9      6.806     11.696
REMARK  Name = C:\Users\Docking\Desktop\test protocol\1iep_ligandH.pdb
REMARK  8 active torsions:
REMARK  status: ('A' for Active; 'I' for Inactive)
REMARK    1  A    between atoms: _5  and  _11
REMARK    2  A    between atoms: _19  and  _21
REMARK    3  A    between atoms: _22  and  _66
REMARK    4  A    between atoms: _27  and  _30
REMARK    5  A    between atoms: _32  and  _33
REMARK    6  A    between atoms: _38  and  _43
REMARK    7  A    between atoms: _43  and  _46
REMARK    8  A    between atoms: _53  and  _55
REMARK                            x       y       z     vdW  Elec       q    Type
REMARK                         _______ _______ _______ _____ _____    ______ ____
ROOT
ATOM     10  C   UNL     1      13.905  23.415   9.227  0.00  0.00    +0.038 A 
ATOM     11  C   UNL     1      12.667  23.940   9.676  0.00  0.00    +0.047 A 
ATOM     12  C   UNL     1      11.650  23.076  10.256  0.00  0.00    +0.035 A 
ATOM     32  C   UNL     1      11.929  21.683  10.366  0.00  0.00    +0.024 A 
ATOM     33  C   UNL     1      13.183  21.133   9.914  0.00  0.00    +0.007 A 
ATOM     34  C   UNL     1      14.189  21.979   9.339  0.00  0.00    -0.029 A 
ATOM     35  C   UNL     1      15.512  21.334   8.865  0.00  0.00    +0.045 C 
ENDROOT
BRANCH  10   9
ATOM      4  C   UNL     1      15.955  25.627   5.493  0.00  0.00    +0.077 A 
ATOM      5  C   UNL     1      15.097  24.964   4.553  0.00  0.00    +0.048 A 
ATOM      6  C   UNL     1      14.147  24.055   5.072  0.00  0.00    +0.116 A 
ATOM      7  N   UNL     1      14.069  23.835   6.430  0.00  0.00    -0.223 NA
ATOM      8  C   UNL     1      14.912  24.490   7.308  0.00  0.00    +0.220 A 
ATOM      9  N   UNL     1      14.846  24.290   8.678  0.00  0.00    -0.283 N 
ATOM     36  H   UNL     1      15.491  24.787   9.292  0.00  0.00    +0.155 HD
ATOM     37  N   UNL     1      15.829  25.361   6.838  0.00  0.00    -0.214 NA
BRANCH   4   3
ATOM      1  C   UNL     1      18.006  28.309   3.517  0.00  0.00    +0.020 A 
ATOM      2  C   UNL     1      16.965  27.364   3.849  0.00  0.00    +0.013 A 
ATOM      3  C   UNL     1      17.007  26.617   5.100  0.00  0.00    +0.019 A 
ATOM     38  C   UNL     1      18.125  26.853   6.001  0.00  0.00    +0.120 A 
ATOM     39  N   UNL     1      19.114  27.768   5.655  0.00  0.00    -0.263 NA
ATOM     40  C   UNL     1      19.085  28.491   4.453  0.00  0.00    +0.111 A 
ENDBRANCH   4   3
ENDBRANCH  10   9
BRANCH  12  13
ATOM     13  N   UNL     1      10.370  23.551  10.722  0.00  0.00    -0.281 N 
ATOM     14  C   UNL     1       9.153  23.504  10.063  0.00  0.00    +0.248 C 
ATOM     30  O   UNL     1       9.019  23.239   8.878  0.00  0.00    -0.270 OA
ATOM     31  H   UNL     1      10.361  23.972  11.651  0.00  0.00    +0.155 HD
BRANCH  14  15
ATOM     15  C   UNL     1       7.906  23.811  10.827  0.00  0.00    +0.037 A 
ATOM     16  C   UNL     1       7.785  25.033  11.626  0.00  0.00    +0.013 A 
ATOM     17  C   UNL     1       6.577  25.296  12.367  0.00  0.00    +0.005 A 
ATOM     18  C   UNL     1       5.479  24.335  12.311  0.00  0.00    -0.033 A 
ATOM     28  C   UNL     1       5.623  23.134  11.506  0.00  0.00    +0.005 A 
ATOM     29  C   UNL     1       6.806  22.872  10.779  0.00  0.00    +0.013 A 
BRANCH  18  19
ATOM     19  C   UNL     1       4.161  24.524  13.086  0.00  0.00    +0.119 C 
BRANCH  19  20
ATOM     20  N   UNL     1       4.037  23.831  14.403  0.00  0.00    -0.302 NA
ATOM     21  C   UNL     1       5.392  23.671  15.098  0.00  0.00    +0.066 C 
ATOM     22  C   UNL     1       5.241  22.964  16.484  0.00  0.00    -0.064 C 
ATOM     23  N   UNL     1       4.569  21.604  16.289  0.00  0.00    +0.379 N 
ATOM     24  C   UNL     1       4.478  20.912  17.583  0.00  0.00    -0.096 C 
ATOM     25  H   UNL     1       5.225  20.995  15.625  0.00  0.00    -0.082 HD
ATOM     26  C   UNL     1       3.222  21.753  15.596  0.00  0.00    -0.064 C 
ATOM     27  C   UNL     1       3.380  22.483  14.233  0.00  0.00    +0.066 C 
ENDBRANCH  19  20
ENDBRANCH  18  19
ENDBRANCH  14  15
ENDBRANCH  12  13
TORSDOF 6
ENDMDL
