MODEL 1
REMARK VINA RESULT:      -8.9      0.000      0.000
REMARK  Name = C:\Users\Docking\Desktop\test protocol\1iep_ligandH.pdb
REMARK  8 active torsions:
REMARK  status: ('A' for Active; 'I' for Inactive)
REMARK    1  A    between atoms: _5  and  _11
REMARK    2  A    between atoms: _19  and  _21
REMARK    3  A    between atoms: _22  and  _66
REMARK    4  A    between atoms: _27  and  _30
REMARK    5  A    between atoms: _32  and  _33
REMARK    6  A    between atoms: _38  and  _43
REMARK    7  A    between atoms: _43  and  _46
REMARK    8  A    between atoms: _53  and  _55
REMARK                            x       y       z     vdW  Elec       q    Type
REMARK                         _______ _______ _______ _____ _____    ______ ____
ROOT
ATOM     10  C   UNL     1      18.317  24.793   7.582  0.00  0.00    +0.038 A 
ATOM     11  C   UNL     1      18.030  25.635   8.687  0.00  0.00    +0.047 A 
ATOM     12  C   UNL     1      17.781  27.056   8.505  0.00  0.00    +0.035 A 
ATOM     32  C   UNL     1      17.829  27.587   7.183  0.00  0.00    +0.024 A 
ATOM     33  C   UNL     1      18.120  26.746   6.049  0.00  0.00    +0.007 A 
ATOM     34  C   UNL     1      18.370  25.343   6.222  0.00  0.00    -0.029 A 
ATOM     35  C   UNL     1      18.684  24.490   4.971  0.00  0.00    +0.045 C 
ENDROOT
BRANCH  10   9
ATOM      4  C   UNL     1      16.877  20.430   8.972  0.00  0.00    +0.077 A 
ATOM      5  C   UNL     1      15.559  20.901   9.288  0.00  0.00    +0.048 A 
ATOM      6  C   UNL     1      15.295  22.274   9.085  0.00  0.00    +0.116 A 
ATOM      7  N   UNL     1      16.282  23.105   8.602  0.00  0.00    -0.223 NA
ATOM      8  C   UNL     1      17.543  22.619   8.309  0.00  0.00    +0.220 A 
ATOM      9  N   UNL     1      18.549  23.435   7.815  0.00  0.00    -0.283 N 
ATOM     36  H   UNL     1      19.468  23.040   7.618  0.00  0.00    +0.155 HD
ATOM     37  N   UNL     1      17.821  21.312   8.496  0.00  0.00    -0.214 NA
BRANCH   4   3
ATOM      1  C   UNL     1      18.967  17.126   8.839  0.00  0.00    +0.020 A 
ATOM      2  C   UNL     1      18.598  18.512   8.662  0.00  0.00    +0.013 A 
ATOM      3  C   UNL     1      17.309  19.006   9.130  0.00  0.00    +0.019 A 
ATOM     38  C   UNL     1      16.409  18.064   9.779  0.00  0.00    +0.120 A 
ATOM     39  N   UNL     1      16.791  16.735   9.935  0.00  0.00    -0.263 NA
ATOM     40  C   UNL     1      18.028  16.248   9.487  0.00  0.00    +0.111 A 
ENDBRANCH   4   3
ENDBRANCH  10   9
BRANCH  12  13
ATOM     13  N   UNL     1      17.492  27.961   9.590  0.00  0.00    -0.281 N 
ATOM     14  C   UNL     1      16.460  27.885  10.511  0.00  0.00    +0.248 C 
ATOM     30  O   UNL     1      15.498  27.139  10.411  0.00  0.00    -0.270 OA
ATOM     31  H   UNL     1      18.125  28.755   9.691  0.00  0.00    +0.155 HD
BRANCH  14  15
ATOM     15  C   UNL     1      16.495  28.777  11.710  0.00  0.00    +0.037 A 
ATOM     16  C   UNL     1      17.036  30.136  11.630  0.00  0.00    +0.013 A 
ATOM     17  C   UNL     1      17.074  30.970  12.805  0.00  0.00    +0.005 A 
ATOM     18  C   UNL     1      16.567  30.446  14.072  0.00  0.00    -0.033 A 
ATOM     28  C   UNL     1      16.032  29.095  14.121  0.00  0.00    +0.005 A 
ATOM     29  C   UNL     1      15.994  28.275  12.972  0.00  0.00    +0.013 A 
BRANCH  18  19
ATOM     19  C   UNL     1      16.587  31.257  15.381  0.00  0.00    +0.119 C 
BRANCH  19  20
ATOM     20  N   UNL     1      17.103  30.571  16.603  0.00  0.00    -0.302 NA
ATOM     21  C   UNL     1      15.990  30.290  17.617  0.00  0.00    +0.066 C 
ATOM     22  C   UNL     1      16.543  29.552  18.879  0.00  0.00    -0.064 C 
ATOM     23  N   UNL     1      17.654  30.392  19.512  0.00  0.00    +0.379 N 
ATOM     24  C   UNL     1      18.137  29.728  20.732  0.00  0.00    -0.096 C 
ATOM     25  H   UNL     1      17.210  31.369  19.812  0.00  0.00    -0.082 HD
ATOM     26  C   UNL     1      18.763  30.677  18.509  0.00  0.00    -0.064 C 
ATOM     27  C   UNL     1      18.198  31.385  17.246  0.00  0.00    +0.066 C 
ENDBRANCH  19  20
ENDBRANCH  18  19
ENDBRANCH  14  15
ENDBRANCH  12  13
TORSDOF 6
ENDMDL
MODEL 2
REMARK VINA RESULT:      -8.5     20.244     23.027
REMARK  Name = C:\Users\Docking\Desktop\test protocol\1iep_ligandH.pdb
REMARK  8 active torsions:
REMARK  status: ('A' for Active; 'I' for Inactive)
REMARK    1  A    between atoms: _5  and  _11
REMARK    2  A    between atoms: _19  and  _21
REMARK    3  A    between atoms: _22  and  _66
REMARK    4  A    between atoms: _27  and  _30
REMARK    5  A    between atoms: _32  and  _33
REMARK    6  A    between atoms: _38  and  _43
REMARK    7  A    between atoms: _43  and  _46
REMARK    8  A    between atoms: _53  and  _55
REMARK                            x       y       z     vdW  Elec       q    Type
REMARK                         _______ _______ _______ _____ _____    ______ ____
ROOT
ATOM     10  C   UNL     1      20.699  13.972  -4.402  0.00  0.00    +0.038 A 
ATOM     11  C   UNL     1      20.065  12.889  -3.741  0.00  0.00    +0.047 A 
ATOM     12  C   UNL     1      18.794  12.360  -4.210  0.00  0.00    +0.035 A 
ATOM     32  C   UNL     1      18.197  12.957  -5.358  0.00  0.00    +0.024 A 
ATOM     33  C   UNL     1      18.826  14.059  -6.042  0.00  0.00    +0.007 A 
ATOM     34  C   UNL     1      20.079  14.586  -5.582  0.00  0.00    -0.029 A 
ATOM     35  C   UNL     1      20.705  15.774  -6.351  0.00  0.00    +0.045 C 
ENDROOT
BRANCH  10   9
ATOM      4  C   UNL     1      25.482  13.776  -4.062  0.00  0.00    +0.077 A 
ATOM      5  C   UNL     1      25.555  12.627  -4.919  0.00  0.00    +0.048 A 
ATOM      6  C   UNL     1      24.338  12.114  -5.421  0.00  0.00    +0.116 A 
ATOM      7  N   UNL     1      23.143  12.712  -5.084  0.00  0.00    -0.223 NA
ATOM      8  C   UNL     1      23.108  13.817  -4.254  0.00  0.00    +0.220 A 
ATOM      9  N   UNL     1      21.918  14.440  -3.909  0.00  0.00    -0.283 N 
ATOM     36  H   UNL     1      21.934  15.248  -3.288  0.00  0.00    +0.155 HD
ATOM     37  N   UNL     1      24.256  14.326  -3.761  0.00  0.00    -0.214 NA
BRANCH   4   3
ATOM      1  C   UNL     1      27.846  16.391  -2.368  0.00  0.00    +0.020 A 
ATOM      2  C   UNL     1      26.660  15.800  -2.944  0.00  0.00    +0.013 A 
ATOM      3  C   UNL     1      26.681  14.436  -3.456  0.00  0.00    +0.019 A 
ATOM     38  C   UNL     1      27.928  13.691  -3.369  0.00  0.00    +0.120 A 
ATOM     39  N   UNL     1      29.055  14.286  -2.811  0.00  0.00    -0.263 NA
ATOM     40  C   UNL     1      29.047  15.599  -2.316  0.00  0.00    +0.111 A 
ENDBRANCH   4   3
ENDBRANCH  10   9
BRANCH  12  13
ATOM     13  N   UNL     1      18.100  11.267  -3.574  0.00  0.00    -0.281 N 
ATOM     14  C   UNL     1      16.758  11.189  -3.243  0.00  0.00    +0.248 C 
ATOM     30  O   UNL     1      15.988  12.138  -3.249  0.00  0.00    -0.270 OA
ATOM     31  H   UNL     1      18.668  10.453  -3.340  0.00  0.00    +0.155 HD
BRANCH  14  15
ATOM     15  C   UNL     1      16.192   9.869  -2.830  0.00  0.00    +0.037 A 
ATOM     16  C   UNL     1      15.169   9.773  -1.785  0.00  0.00    +0.013 A 
ATOM     17  C   UNL     1      14.652   8.486  -1.394  0.00  0.00    +0.005 A 
ATOM     18  C   UNL     1      15.157   7.282  -2.050  0.00  0.00    -0.033 A 
ATOM     28  C   UNL     1      16.168   7.406  -3.087  0.00  0.00    +0.005 A 
ATOM     29  C   UNL     1      16.677   8.666  -3.473  0.00  0.00    +0.013 A 
BRANCH  18  19
ATOM     19  C   UNL     1      14.678   5.865  -1.682  0.00  0.00    +0.119 C 
BRANCH  19  20
ATOM     20  N   UNL     1      15.511   5.092  -0.714  0.00  0.00    -0.302 NA
ATOM     21  C   UNL     1      16.474   4.134  -1.421  0.00  0.00    +0.066 C 
ATOM     22  C   UNL     1      17.353   3.350  -0.393  0.00  0.00    -0.064 C 
ATOM     23  N   UNL     1      16.446   2.589   0.575  0.00  0.00    +0.379 N 
ATOM     24  C   UNL     1      17.270   1.804   1.506  0.00  0.00    -0.096 C 
ATOM     25  H   UNL     1      15.837   1.873  -0.025  0.00  0.00    -0.082 HD
ATOM     26  C   UNL     1      15.484   3.534   1.280  0.00  0.00    -0.064 C 
ATOM     27  C   UNL     1      14.635   4.330   0.250  0.00  0.00    +0.066 C 
ENDBRANCH  19  20
ENDBRANCH  18  19
ENDBRANCH  14  15
ENDBRANCH  12  13
TORSDOF 6
ENDMDL
MODEL 3
REMARK VINA RESULT:      -8.3     20.250     23.493
REMARK  Name = C:\Users\Docking\Desktop\test protocol\1iep_ligandH.pdb
REMARK  8 active torsions:
REMARK  status: ('A' for Active; 'I' for Inactive)
REMARK    1  A    between atoms: _5  and  _11
REMARK    2  A    between atoms: _19  and  _21
REMARK    3  A    between atoms: _22  and  _66
REMARK    4  A    between atoms: _27  and  _30
REMARK    5  A    between atoms: _32  and  _33
REMARK    6  A    between atoms: _38  and  _43
REMARK    7  A    between atoms: _43  and  _46
REMARK    8  A    between atoms: _53  and  _55
REMARK                            x       y       z     vdW  Elec       q    Type
REMARK                         _______ _______ _______ _____ _____    ______ ____
ROOT
ATOM     10  C   UNL     1      20.696  13.984  -4.437  0.00  0.00    +0.038 A 
ATOM     11  C   UNL     1      20.067  12.917  -3.748  0.00  0.00    +0.047 A 
ATOM     12  C   UNL     1      18.795  12.374  -4.200  0.00  0.00    +0.035 A 
ATOM     32  C   UNL     1      18.194  12.941  -5.361  0.00  0.00    +0.024 A 
ATOM     33  C   UNL     1      18.819  14.028  -6.074  0.00  0.00    +0.007 A 
ATOM     34  C   UNL     1      20.072  14.568  -5.631  0.00  0.00    -0.029 A 
ATOM     35  C   UNL     1      20.694  15.737  -6.430  0.00  0.00    +0.045 C 
ENDROOT
BRANCH  10   9
ATOM      4  C   UNL     1      25.470  13.735  -4.007  0.00  0.00    +0.077 A 
ATOM      5  C   UNL     1      25.536  12.527  -4.779  0.00  0.00    +0.048 A 
ATOM      6  C   UNL     1      24.318  11.999  -5.262  0.00  0.00    +0.116 A 
ATOM      7  N   UNL     1      23.129  12.639  -4.988  0.00  0.00    -0.223 NA
ATOM      8  C   UNL     1      23.100  13.801  -4.240  0.00  0.00    +0.220 A 
ATOM      9  N   UNL     1      21.917  14.466  -3.959  0.00  0.00    -0.283 N 
ATOM     36  H   UNL     1      21.937  15.317  -3.397  0.00  0.00    +0.155 HD
ATOM     37  N   UNL     1      24.250  14.325  -3.766  0.00  0.00    -0.214 NA
BRANCH   4   3
ATOM      1  C   UNL     1      29.123  14.509  -2.841  0.00  0.00    +0.020 A 
ATOM      2  C   UNL     1      27.995  13.807  -3.409  0.00  0.00    +0.013 A 
ATOM      3  C   UNL     1      26.672  14.417  -3.431  0.00  0.00    +0.019 A 
ATOM     38  C   UNL     1      26.522  15.749  -2.865  0.00  0.00    +0.120 A 
ATOM     39  N   UNL     1      27.625  16.401  -2.323  0.00  0.00    -0.263 NA
ATOM     40  C   UNL     1      28.904  15.823  -2.295  0.00  0.00    +0.111 A 
ENDBRANCH   4   3
ENDBRANCH  10   9
BRANCH  12  13
ATOM     13  N   UNL     1      18.105  11.297  -3.536  0.00  0.00    -0.281 N 
ATOM     14  C   UNL     1      16.764  11.225  -3.196  0.00  0.00    +0.248 C 
ATOM     30  O   UNL     1      15.993  12.173  -3.222  0.00  0.00    -0.270 OA
ATOM     31  H   UNL     1      18.674  10.488  -3.285  0.00  0.00    +0.155 HD
BRANCH  14  15
ATOM     15  C   UNL     1      16.201   9.915  -2.750  0.00  0.00    +0.037 A 
ATOM     16  C   UNL     1      15.024   9.850  -1.880  0.00  0.00    +0.013 A 
ATOM     17  C   UNL     1      14.511   8.573  -1.450  0.00  0.00    +0.005 A 
ATOM     18  C   UNL     1      15.175   7.349  -1.892  0.00  0.00    -0.033 A 
ATOM     28  C   UNL     1      16.338   7.442  -2.760  0.00  0.00    +0.005 A 
ATOM     29  C   UNL     1      16.844   8.692  -3.182  0.00  0.00    +0.013 A 
BRANCH  18  19
ATOM     19  C   UNL     1      14.710   5.945  -1.466  0.00  0.00    +0.119 C 
BRANCH  19  20
ATOM     20  N   UNL     1      13.498   5.392  -2.141  0.00  0.00    -0.302 NA
ATOM     21  C   UNL     1      13.068   4.050  -1.541  0.00  0.00    +0.066 C 
ATOM     22  C   UNL     1      11.785   3.497  -2.244  0.00  0.00    -0.064 C 
ATOM     23  N   UNL     1      12.049   3.360  -3.745  0.00  0.00    +0.379 N 
ATOM     24  C   UNL     1      10.864   2.786  -4.400  0.00  0.00    -0.096 C 
ATOM     25  H   UNL     1      12.890   2.641  -3.876  0.00  0.00    -0.082 HD
ATOM     26  C   UNL     1      12.479   4.689  -4.349  0.00  0.00    -0.064 C 
ATOM     27  C   UNL     1      13.737   5.244  -3.624  0.00  0.00    +0.066 C 
ENDBRANCH  19  20
ENDBRANCH  18  19
ENDBRANCH  14  15
ENDBRANCH  12  13
TORSDOF 6
ENDMDL
MODEL 4
REMARK VINA RESULT:      -7.9     20.662     23.824
REMARK  Name = C:\Users\Docking\Desktop\test protocol\1iep_ligandH.pdb
REMARK  8 active torsions:
REMARK  status: ('A' for Active; 'I' for Inactive)
REMARK    1  A    between atoms: _5  and  _11
REMARK    2  A    between atoms: _19  and  _21
REMARK    3  A    between atoms: _22  and  _66
REMARK    4  A    between atoms: _27  and  _30
REMARK    5  A    between atoms: _32  and  _33
REMARK    6  A    between atoms: _38  and  _43
REMARK    7  A    between atoms: _43  and  _46
REMARK    8  A    between atoms: _53  and  _55
REMARK                            x       y       z     vdW  Elec       q    Type
REMARK                         _______ _______ _______ _____ _____    ______ ____
ROOT
ATOM     10  C   UNL     1      15.762   3.798  -0.916  0.00  0.00    +0.038 A 
ATOM     11  C   UNL     1      16.153   5.039  -1.479  0.00  0.00    +0.047 A 
ATOM     12  C   UNL     1      15.166   6.041  -1.851  0.00  0.00    +0.035 A 
ATOM     32  C   UNL     1      13.789   5.746  -1.632  0.00  0.00    +0.024 A 
ATOM     33  C   UNL     1      13.373   4.489  -1.062  0.00  0.00    +0.007 A 
ATOM     34  C   UNL     1      14.342   3.496  -0.696  0.00  0.00    -0.029 A 
ATOM     35  C   UNL     1      13.839   2.163  -0.094  0.00  0.00    +0.045 C 
ENDROOT
BRANCH  10   9
ATOM      4  C   UNL     1      18.620   1.633   2.275  0.00  0.00    +0.077 A 
ATOM      5  C   UNL     1      18.119   2.433   3.355  0.00  0.00    +0.048 A 
ATOM      6  C   UNL     1      17.131   3.395   3.046  0.00  0.00    +0.116 A 
ATOM      7  N   UNL     1      16.685   3.537   1.750  0.00  0.00    -0.223 NA
ATOM      8  C   UNL     1      17.191   2.751   0.731  0.00  0.00    +0.220 A 
ATOM      9  N   UNL     1      16.751   2.872  -0.578  0.00  0.00    -0.283 N 
ATOM     36  H   UNL     1      17.155   2.278  -1.302  0.00  0.00    +0.155 HD
ATOM     37  N   UNL     1      18.136   1.826   1.000  0.00  0.00    -0.214 NA
BRANCH   4   3
ATOM      1  C   UNL     1      22.040  -0.265   2.322  0.00  0.00    +0.020 A 
ATOM      2  C   UNL     1      21.072   0.793   2.142  0.00  0.00    +0.013 A 
ATOM      3  C   UNL     1      19.663   0.573   2.443  0.00  0.00    +0.019 A 
ATOM     38  C   UNL     1      19.263  -0.739   2.928  0.00  0.00    +0.120 A 
ATOM     39  N   UNL     1      20.217  -1.739   3.090  0.00  0.00    -0.263 NA
ATOM     40  C   UNL     1      21.575  -1.540   2.803  0.00  0.00    +0.111 A 
ENDBRANCH   4   3
ENDBRANCH  10   9
BRANCH  12  13
ATOM     13  N   UNL     1      15.503   7.316  -2.434  0.00  0.00    -0.281 N 
ATOM     14  C   UNL     1      15.234   8.579  -1.932  0.00  0.00    +0.248 C 
ATOM     30  O   UNL     1      14.471   8.807  -1.006  0.00  0.00    -0.270 OA
ATOM     31  H   UNL     1      16.000   7.284  -3.324  0.00  0.00    +0.155 HD
BRANCH  14  15
ATOM     15  C   UNL     1      15.899   9.762  -2.560  0.00  0.00    +0.037 A 
ATOM     16  C   UNL     1      15.221  11.057  -2.648  0.00  0.00    +0.013 A 
ATOM     17  C   UNL     1      15.878  12.177  -3.274  0.00  0.00    +0.005 A 
ATOM     18  C   UNL     1      17.224  12.006  -3.816  0.00  0.00    -0.033 A 
ATOM     28  C   UNL     1      17.875  10.711  -3.712  0.00  0.00    +0.005 A 
ATOM     29  C   UNL     1      17.234   9.611  -3.100  0.00  0.00    +0.013 A 
BRANCH  18  19
ATOM     19  C   UNL     1      17.992  13.140  -4.520  0.00  0.00    +0.119 C 
BRANCH  19  20
ATOM     20  N   UNL     1      19.460  12.949  -4.722  0.00  0.00    -0.302 NA
ATOM     21  C   UNL     1      20.250  13.166  -3.428  0.00  0.00    +0.066 C 
ATOM     22  C   UNL     1      21.781  12.940  -3.652  0.00  0.00    -0.064 C 
ATOM     23  N   UNL     1      22.276  13.879  -4.754  0.00  0.00    +0.379 N 
ATOM     24  C   UNL     1      23.727  13.710  -4.926  0.00  0.00    -0.096 C 
ATOM     25  H   UNL     1      22.096  14.925  -4.413  0.00  0.00    -0.082 HD
ATOM     26  C   UNL     1      21.494  13.671  -6.043  0.00  0.00    -0.064 C 
ATOM     27  C   UNL     1      19.971  13.869  -5.803  0.00  0.00    +0.066 C 
ENDBRANCH  19  20
ENDBRANCH  18  19
ENDBRANCH  14  15
ENDBRANCH  12  13
TORSDOF 6
ENDMDL
MODEL 5
REMARK VINA RESULT:      -7.8     21.977     28.100
REMARK  Name = C:\Users\Docking\Desktop\test protocol\1iep_ligandH.pdb
REMARK  8 active torsions:
REMARK  status: ('A' for Active; 'I' for Inactive)
REMARK    1  A    between atoms: _5  and  _11
REMARK    2  A    between atoms: _19  and  _21
REMARK    3  A    between atoms: _22  and  _66
REMARK    4  A    between atoms: _27  and  _30
REMARK    5  A    between atoms: _32  and  _33
REMARK    6  A    between atoms: _38  and  _43
REMARK    7  A    between atoms: _43  and  _46
REMARK    8  A    between atoms: _53  and  _55
REMARK                            x       y       z     vdW  Elec       q    Type
REMARK                         _______ _______ _______ _____ _____    ______ ____
ROOT
ATOM     10  C   UNL     1      25.966   4.732  15.526  0.00  0.00    +0.038 A 
ATOM     11  C   UNL     1      25.628   3.532  14.851  0.00  0.00    +0.047 A 
ATOM     12  C   UNL     1      24.875   2.480  15.517  0.00  0.00    +0.035 A 
ATOM     32  C   UNL     1      24.480   2.686  16.871  0.00  0.00    +0.024 A 
ATOM     33  C   UNL     1      24.816   3.900  17.573  0.00  0.00    +0.007 A 
ATOM     34  C   UNL     1      25.561   4.940  16.922  0.00  0.00    -0.029 A 
ATOM     35  C   UNL     1      25.899   6.218  17.725  0.00  0.00    +0.045 C 
ENDROOT
BRANCH  10   9
ATOM      4  C   UNL     1      30.050   7.036  14.501  0.00  0.00    +0.077 A 
ATOM      5  C   UNL     1      30.800   6.245  15.434  0.00  0.00    +0.048 A 
ATOM      6  C   UNL     1      30.095   5.261  16.163  0.00  0.00    +0.116 A 
ATOM      7  N   UNL     1      28.742   5.089  15.966  0.00  0.00    -0.223 NA
ATOM      8  C   UNL     1      28.049   5.870  15.059  0.00  0.00    +0.220 A 
ATOM      9  N   UNL     1      26.690   5.709  14.838  0.00  0.00    -0.283 N 
ATOM     36  H   UNL     1      26.214   6.309  14.166  0.00  0.00    +0.155 HD
ATOM     37  N   UNL     1      28.699   6.817  14.351  0.00  0.00    -0.214 NA
BRANCH   4   3
ATOM      1  C   UNL     1      31.188  10.526  13.151  0.00  0.00    +0.020 A 
ATOM      2  C   UNL     1      30.589   9.526  14.004  0.00  0.00    +0.013 A 
ATOM      3  C   UNL     1      30.653   8.113  13.653  0.00  0.00    +0.019 A 
ATOM     38  C   UNL     1      31.337   7.742  12.423  0.00  0.00    +0.120 A 
ATOM     39  N   UNL     1      31.904   8.728  11.621  0.00  0.00    -0.263 NA
ATOM     40  C   UNL     1      31.847  10.091  11.948  0.00  0.00    +0.111 A 
ENDBRANCH   4   3
ENDBRANCH  10   9
BRANCH  12  13
ATOM     13  N   UNL     1      24.510   1.237  14.886  0.00  0.00    -0.281 N 
ATOM     14  C   UNL     1      25.313   0.132  14.652  0.00  0.00    +0.248 C 
ATOM     30  O   UNL     1      26.530   0.127  14.761  0.00  0.00    -0.270 OA
ATOM     31  H   UNL     1      23.542   1.161  14.572  0.00  0.00    +0.155 HD
BRANCH  14  15
ATOM     15  C   UNL     1      24.673  -1.148  14.223  0.00  0.00    +0.037 A 
ATOM     16  C   UNL     1      23.247  -1.398  14.449  0.00  0.00    +0.013 A 
ATOM     17  C   UNL     1      22.658  -2.649  14.040  0.00  0.00    +0.005 A 
ATOM     18  C   UNL     1      23.496  -3.659  13.398  0.00  0.00    -0.033 A 
ATOM     28  C   UNL     1      24.906  -3.383  13.181  0.00  0.00    +0.005 A 
ATOM     29  C   UNL     1      25.487  -2.159  13.582  0.00  0.00    +0.013 A 
BRANCH  18  19
ATOM     19  C   UNL     1      22.957  -5.030  12.948  0.00  0.00    +0.119 C 
BRANCH  19  20
ATOM     20  N   UNL     1      21.474  -5.186  12.858  0.00  0.00    -0.302 NA
ATOM     21  C   UNL     1      21.028  -6.620  13.154  0.00  0.00    +0.066 C 
ATOM     22  C   UNL     1      19.473  -6.760  13.078  0.00  0.00    -0.064 C 
ATOM     23  N   UNL     1      18.991  -6.317  11.695  0.00  0.00    +0.379 N 
ATOM     24  C   UNL     1      17.536  -6.502  11.600  0.00  0.00    -0.096 C 
ATOM     25  H   UNL     1      19.468  -6.987  10.941  0.00  0.00    -0.082 HD
ATOM     26  C   UNL     1      19.433  -4.893  11.391  0.00  0.00    -0.064 C 
ATOM     27  C   UNL     1      20.978  -4.758  11.499  0.00  0.00    +0.066 C 
ENDBRANCH  19  20
ENDBRANCH  18  19
ENDBRANCH  14  15
ENDBRANCH  12  13
TORSDOF 6
ENDMDL
