MODEL 1
REMARK VINA RESULT:     -12.1      0.000      0.000
REMARK  Name = C:\Users\Docking\Desktop\test protocol\1iep_ligandH.pdb
REMARK  8 active torsions:
REMARK  status: ('A' for Active; 'I' for Inactive)
REMARK    1  A    between atoms: _5  and  _11
REMARK    2  A    between atoms: _19  and  _21
REMARK    3  A    between atoms: _22  and  _66
REMARK    4  A    between atoms: _27  and  _30
REMARK    5  A    between atoms: _32  and  _33
REMARK    6  A    between atoms: _38  and  _43
REMARK    7  A    between atoms: _43  and  _46
REMARK    8  A    between atoms: _53  and  _55
REMARK                            x       y       z     vdW  Elec       q    Type
REMARK                         _______ _______ _______ _____ _____    ______ ____
ROOT
ATOM     10  C   UNL     1     -40.128 160.027   0.884  0.00  0.00    +0.038 A 
ATOM     11  C   UNL     1     -39.081 159.195   1.356  0.00  0.00    +0.047 A 
ATOM     12  C   UNL     1     -39.338 158.133   2.315  0.00  0.00    +0.035 A 
ATOM     32  C   UNL     1     -40.675 157.944   2.772  0.00  0.00    +0.024 A 
ATOM     33  C   UNL     1     -41.752 158.781   2.303  0.00  0.00    +0.007 A 
ATOM     34  C   UNL     1     -41.504 159.832   1.359  0.00  0.00    -0.029 A 
ATOM     35  C   UNL     1     -42.695 160.703   0.896  0.00  0.00    +0.045 C 
ENDROOT
BRANCH  10   9
ATOM      4  C   UNL     1     -38.951 161.512  -3.526  0.00  0.00    +0.077 A 
ATOM      5  C   UNL     1     -38.911 160.170  -4.031  0.00  0.00    +0.048 A 
ATOM      6  C   UNL     1     -39.193 159.125  -3.122  0.00  0.00    +0.116 A 
ATOM      7  N   UNL     1     -39.491 159.413  -1.808  0.00  0.00    -0.223 NA
ATOM      8  C   UNL     1     -39.519 160.719  -1.353  0.00  0.00    +0.220 A 
ATOM      9  N   UNL     1     -39.825 161.032  -0.037  0.00  0.00    -0.283 N 
ATOM     36  H   UNL     1     -39.828 162.007   0.261  0.00  0.00    +0.155 HD
ATOM     37  N   UNL     1     -39.253 161.734  -2.201  0.00  0.00    -0.214 NA
BRANCH   4   3
ATOM      1  C   UNL     1     -37.973 163.843  -6.511  0.00  0.00    +0.020 A 
ATOM      2  C   UNL     1     -38.220 162.643  -5.745  0.00  0.00    +0.013 A 
ATOM      3  C   UNL     1     -38.680 162.722  -4.364  0.00  0.00    +0.019 A 
ATOM     38  C   UNL     1     -38.882 164.041  -3.784  0.00  0.00    +0.120 A 
ATOM     39  N   UNL     1     -38.635 165.179  -4.546  0.00  0.00    -0.263 NA
ATOM     40  C   UNL     1     -38.191 165.115  -5.875  0.00  0.00    +0.111 A 
ENDBRANCH   4   3
ENDBRANCH  10   9
BRANCH  12  13
ATOM     13  N   UNL     1     -38.314 157.262   2.836  0.00  0.00    -0.281 N 
ATOM     14  C   UNL     1     -37.507 157.463   3.944  0.00  0.00    +0.248 C 
ATOM     30  O   UNL     1     -37.398 158.527   4.535  0.00  0.00    -0.270 OA
ATOM     31  H   UNL     1     -38.165 156.391   2.326  0.00  0.00    +0.155 HD
BRANCH  14  15
ATOM     15  C   UNL     1     -36.694 156.321   4.462  0.00  0.00    +0.037 A 
ATOM     16  C   UNL     1     -35.241 156.431   4.616  0.00  0.00    +0.013 A 
ATOM     17  C   UNL     1     -34.478 155.309   5.102  0.00  0.00    +0.005 A 
ATOM     18  C   UNL     1     -35.168 154.066   5.439  0.00  0.00    -0.033 A 
ATOM     28  C   UNL     1     -36.611 153.986   5.282  0.00  0.00    +0.005 A 
ATOM     29  C   UNL     1     -37.362 155.084   4.806  0.00  0.00    +0.013 A 
BRANCH  18  19
ATOM     19  C   UNL     1     -34.431 152.811   5.944  0.00  0.00    +0.119 C 
BRANCH  19  20
ATOM     20  N   UNL     1     -35.268 151.634   6.323  0.00  0.00    -0.302 NA
ATOM     21  C   UNL     1     -34.834 151.026   7.660  0.00  0.00    +0.066 C 
ATOM     22  C   UNL     1     -35.734 149.809   8.051  0.00  0.00    -0.064 C 
ATOM     23  N   UNL     1     -35.682 148.761   6.938  0.00  0.00    +0.379 N 
ATOM     24  C   UNL     1     -36.481 147.591   7.329  0.00  0.00    -0.096 C 
ATOM     25  H   UNL     1     -34.623 148.429   6.836  0.00  0.00    -0.082 HD
ATOM     26  C   UNL     1     -36.110 149.357   5.604  0.00  0.00    -0.064 C 
ATOM     27  C   UNL     1     -35.228 150.584   5.239  0.00  0.00    +0.066 C 
ENDBRANCH  19  20
ENDBRANCH  18  19
ENDBRANCH  14  15
ENDBRANCH  12  13
TORSDOF 6
ENDMDL
MODEL 2
REMARK VINA RESULT:     -10.8      2.480     13.531
REMARK  Name = C:\Users\Docking\Desktop\test protocol\1iep_ligandH.pdb
REMARK  8 active torsions:
REMARK  status: ('A' for Active; 'I' for Inactive)
REMARK    1  A    between atoms: _5  and  _11
REMARK    2  A    between atoms: _19  and  _21
REMARK    3  A    between atoms: _22  and  _66
REMARK    4  A    between atoms: _27  and  _30
REMARK    5  A    between atoms: _32  and  _33
REMARK    6  A    between atoms: _38  and  _43
REMARK    7  A    between atoms: _43  and  _46
REMARK    8  A    between atoms: _53  and  _55
REMARK                            x       y       z     vdW  Elec       q    Type
REMARK                         _______ _______ _______ _____ _____    ______ ____
ROOT
ATOM     10  C   UNL     1     -39.637 158.290   1.435  0.00  0.00    +0.038 A 
ATOM     11  C   UNL     1     -39.074 159.037   0.369  0.00  0.00    +0.047 A 
ATOM     12  C   UNL     1     -39.791 160.153  -0.229  0.00  0.00    +0.035 A 
ATOM     32  C   UNL     1     -41.078 160.482   0.285  0.00  0.00    +0.024 A 
ATOM     33  C   UNL     1     -41.666 159.732   1.368  0.00  0.00    +0.007 A 
ATOM     34  C   UNL     1     -40.965 158.629   1.960  0.00  0.00    -0.029 A 
ATOM     35  C   UNL     1     -41.646 157.857   3.114  0.00  0.00    +0.045 C 
ENDROOT
BRANCH  10   9
ATOM      4  C   UNL     1     -36.598 156.450   4.663  0.00  0.00    +0.077 A 
ATOM      5  C   UNL     1     -36.436 157.715   5.319  0.00  0.00    +0.048 A 
ATOM      6  C   UNL     1     -37.146 158.816   4.791  0.00  0.00    +0.116 A 
ATOM      7  N   UNL     1     -37.956 158.652   3.688  0.00  0.00    -0.223 NA
ATOM      8  C   UNL     1     -38.089 157.419   3.078  0.00  0.00    +0.220 A 
ATOM      9  N   UNL     1     -38.904 157.229   1.972  0.00  0.00    -0.283 N 
ATOM     36  H   UNL     1     -38.970 156.305   1.547  0.00  0.00    +0.155 HD
ATOM     37  N   UNL     1     -37.420 156.352   3.563  0.00  0.00    -0.214 NA
BRANCH   4   3
ATOM      1  C   UNL     1     -33.888 153.893   5.852  0.00  0.00    +0.020 A 
ATOM      2  C   UNL     1     -34.497 155.133   5.429  0.00  0.00    +0.013 A 
ATOM      3  C   UNL     1     -35.917 155.192   5.106  0.00  0.00    +0.019 A 
ATOM     38  C   UNL     1     -36.698 153.971   5.222  0.00  0.00    +0.120 A 
ATOM     39  N   UNL     1     -36.084 152.791   5.631  0.00  0.00    -0.263 NA
ATOM     40  C   UNL     1     -34.718 152.721   5.943  0.00  0.00    +0.111 A 
ENDBRANCH   4   3
ENDBRANCH  10   9
BRANCH  12  13
ATOM     13  N   UNL     1     -39.273 160.942  -1.319  0.00  0.00    -0.281 N 
ATOM     14  C   UNL     1     -39.120 160.568  -2.644  0.00  0.00    +0.248 C 
ATOM     30  O   UNL     1     -39.207 159.420  -3.053  0.00  0.00    -0.270 OA
ATOM     31  H   UNL     1     -38.984 161.892  -1.085  0.00  0.00    +0.155 HD
BRANCH  14  15
ATOM     15  C   UNL     1     -38.812 161.620  -3.660  0.00  0.00    +0.037 A 
ATOM     16  C   UNL     1     -38.305 161.267  -4.989  0.00  0.00    +0.013 A 
ATOM     17  C   UNL     1     -38.000 162.303  -5.945  0.00  0.00    +0.005 A 
ATOM     18  C   UNL     1     -38.201 163.701  -5.574  0.00  0.00    -0.033 A 
ATOM     28  C   UNL     1     -38.710 164.023  -4.251  0.00  0.00    +0.005 A 
ATOM     29  C   UNL     1     -39.009 163.011  -3.311  0.00  0.00    +0.013 A 
BRANCH  18  19
ATOM     19  C   UNL     1     -37.882 164.872  -6.523  0.00  0.00    +0.119 C 
BRANCH  19  20
ATOM     20  N   UNL     1     -38.176 164.676  -7.974  0.00  0.00    -0.302 NA
ATOM     21  C   UNL     1     -37.419 163.480  -8.557  0.00  0.00    +0.066 C 
ATOM     22  C   UNL     1     -37.756 163.276 -10.070  0.00  0.00    -0.064 C 
ATOM     23  N   UNL     1     -37.423 164.555 -10.840  0.00  0.00    +0.379 N 
ATOM     24  C   UNL     1     -37.684 164.347 -12.272  0.00  0.00    -0.096 C 
ATOM     25  H   UNL     1     -36.332 164.748 -10.720  0.00  0.00    -0.082 HD
ATOM     26  C   UNL     1     -38.169 165.751 -10.265  0.00  0.00    -0.064 C 
ATOM     27  C   UNL     1     -37.851 165.926  -8.754  0.00  0.00    +0.066 C 
ENDBRANCH  19  20
ENDBRANCH  18  19
ENDBRANCH  14  15
ENDBRANCH  12  13
TORSDOF 6
ENDMDL
MODEL 3
REMARK VINA RESULT:     -10.3      3.436      6.175
REMARK  Name = C:\Users\Docking\Desktop\test protocol\1iep_ligandH.pdb
REMARK  8 active torsions:
REMARK  status: ('A' for Active; 'I' for Inactive)
REMARK    1  A    between atoms: _5  and  _11
REMARK    2  A    between atoms: _19  and  _21
REMARK    3  A    between atoms: _22  and  _66
REMARK    4  A    between atoms: _27  and  _30
REMARK    5  A    between atoms: _32  and  _33
REMARK    6  A    between atoms: _38  and  _43
REMARK    7  A    between atoms: _43  and  _46
REMARK    8  A    between atoms: _53  and  _55
REMARK                            x       y       z     vdW  Elec       q    Type
REMARK                         _______ _______ _______ _____ _____    ______ ____
ROOT
ATOM     10  C   UNL     1     -37.206 156.770   3.916  0.00  0.00    +0.038 A 
ATOM     11  C   UNL     1     -37.564 155.400   3.986  0.00  0.00    +0.047 A 
ATOM     12  C   UNL     1     -37.553 154.682   5.251  0.00  0.00    +0.035 A 
ATOM     32  C   UNL     1     -37.175 155.393   6.427  0.00  0.00    +0.024 A 
ATOM     33  C   UNL     1     -36.807 156.787   6.374  0.00  0.00    +0.007 A 
ATOM     34  C   UNL     1     -36.814 157.498   5.129  0.00  0.00    -0.029 A 
ATOM     35  C   UNL     1     -36.404 158.990   5.130  0.00  0.00    +0.045 C 
ENDROOT
BRANCH  10   9
ATOM      4  C   UNL     1     -39.467 159.240   0.477  0.00  0.00    +0.077 A 
ATOM      5  C   UNL     1     -40.704 159.233   1.203  0.00  0.00    +0.048 A 
ATOM      6  C   UNL     1     -40.719 158.577   2.455  0.00  0.00    +0.116 A 
ATOM      7  N   UNL     1     -39.575 157.977   2.934  0.00  0.00    -0.223 NA
ATOM      8  C   UNL     1     -38.399 158.000   2.208  0.00  0.00    +0.220 A 
ATOM      9  N   UNL     1     -37.234 157.410   2.674  0.00  0.00    -0.283 N 
ATOM     36  H   UNL     1     -36.389 157.442   2.105  0.00  0.00    +0.155 HD
ATOM     37  N   UNL     1     -38.359 158.619   1.009  0.00  0.00    -0.214 NA
BRANCH   4   3
ATOM      1  C   UNL     1     -38.834 159.830  -3.338  0.00  0.00    +0.020 A 
ATOM      2  C   UNL     1     -38.993 159.149  -2.073  0.00  0.00    +0.013 A 
ATOM      3  C   UNL     1     -39.292 159.895  -0.858  0.00  0.00    +0.019 A 
ATOM     38  C   UNL     1     -39.427 161.341  -0.957  0.00  0.00    +0.120 A 
ATOM     39  N   UNL     1     -39.267 161.970  -2.187  0.00  0.00    -0.263 NA
ATOM     40  C   UNL     1     -38.977 161.262  -3.364  0.00  0.00    +0.111 A 
ENDBRANCH   4   3
ENDBRANCH  10   9
BRANCH  12  13
ATOM     13  N   UNL     1     -37.899 153.289   5.382  0.00  0.00    -0.281 N 
ATOM     14  C   UNL     1     -37.052 152.221   5.634  0.00  0.00    +0.248 C 
ATOM     30  O   UNL     1     -35.833 152.277   5.572  0.00  0.00    -0.270 OA
ATOM     31  H   UNL     1     -38.888 153.062   5.277  0.00  0.00    +0.155 HD
BRANCH  14  15
ATOM     15  C   UNL     1     -37.647 150.897   5.991  0.00  0.00    +0.037 A 
ATOM     16  C   UNL     1     -39.098 150.710   6.062  0.00  0.00    +0.013 A 
ATOM     17  C   UNL     1     -39.645 149.427   6.426  0.00  0.00    +0.005 A 
ATOM     18  C   UNL     1     -38.738 148.320   6.721  0.00  0.00    -0.033 A 
ATOM     28  C   UNL     1     -37.303 148.532   6.638  0.00  0.00    +0.005 A 
ATOM     29  C   UNL     1     -36.763 149.789   6.283  0.00  0.00    +0.013 A 
BRANCH  18  19
ATOM     19  C   UNL     1     -39.233 146.922   7.138  0.00  0.00    +0.119 C 
BRANCH  19  20
ATOM     20  N   UNL     1     -40.535 146.460   6.571  0.00  0.00    -0.302 NA
ATOM     21  C   UNL     1     -41.471 145.914   7.653  0.00  0.00    +0.066 C 
ATOM     22  C   UNL     1     -42.837 145.457   7.045  0.00  0.00    -0.064 C 
ATOM     23  N   UNL     1     -42.584 144.403   5.966  0.00  0.00    +0.379 N 
ATOM     24  C   UNL     1     -43.869 143.928   5.433  0.00  0.00    -0.096 C 
ATOM     25  H   UNL     1     -42.078 143.536   6.451  0.00  0.00    -0.082 HD
ATOM     26  C   UNL     1     -41.652 144.936   4.887  0.00  0.00    -0.064 C 
ATOM     27  C   UNL     1     -40.309 145.416   5.506  0.00  0.00    +0.066 C 
ENDBRANCH  19  20
ENDBRANCH  18  19
ENDBRANCH  14  15
ENDBRANCH  12  13
TORSDOF 6
ENDMDL
