MODEL 1
REMARK VINA RESULT:      -9.6      0.000      0.000
REMARK  Name = C:\Users\Docking\Desktop\test protocol\1iep_ligandH.pdb
REMARK  8 active torsions:
REMARK  status: ('A' for Active; 'I' for Inactive)
REMARK    1  A    between atoms: _5  and  _11
REMARK    2  A    between atoms: _19  and  _21
REMARK    3  A    between atoms: _22  and  _66
REMARK    4  A    between atoms: _27  and  _30
REMARK    5  A    between atoms: _32  and  _33
REMARK    6  A    between atoms: _38  and  _43
REMARK    7  A    between atoms: _43  and  _46
REMARK    8  A    between atoms: _53  and  _55
REMARK                            x       y       z     vdW  Elec       q    Type
REMARK                         _______ _______ _______ _____ _____    ______ ____
ROOT
ATOM     10  C   UNL     1      27.909  22.593   1.595  0.00  0.00    +0.038 A 
ATOM     11  C   UNL     1      28.647  21.901   2.589  0.00  0.00    +0.047 A 
ATOM     12  C   UNL     1      30.090  22.052   2.696  0.00  0.00    +0.035 A 
ATOM     32  C   UNL     1      30.749  22.918   1.776  0.00  0.00    +0.024 A 
ATOM     33  C   UNL     1      30.014  23.628   0.758  0.00  0.00    +0.007 A 
ATOM     34  C   UNL     1      28.591  23.481   0.646  0.00  0.00    -0.029 A 
ATOM     35  C   UNL     1      27.856  24.261  -0.469  0.00  0.00    +0.045 C 
ENDROOT
BRANCH  10   9
ATOM      4  C   UNL     1      23.493  23.111   3.402  0.00  0.00    +0.077 A 
ATOM      5  C   UNL     1      23.987  23.777   4.573  0.00  0.00    +0.048 A 
ATOM      6  C   UNL     1      25.384  23.960   4.675  0.00  0.00    +0.116 A 
ATOM      7  N   UNL     1      26.216  23.507   3.675  0.00  0.00    -0.223 NA
ATOM      8  C   UNL     1      25.708  22.867   2.559  0.00  0.00    +0.220 A 
ATOM      9  N   UNL     1      26.525  22.411   1.537  0.00  0.00    -0.283 N 
ATOM     36  H   UNL     1      26.112  21.937   0.734  0.00  0.00    +0.155 HD
ATOM     37  N   UNL     1      24.377  22.679   2.439  0.00  0.00    -0.214 NA
BRANCH   4   3
ATOM      1  C   UNL     1      19.778  21.962   3.825  0.00  0.00    +0.020 A 
ATOM      2  C   UNL     1      21.173  22.193   4.120  0.00  0.00    +0.013 A 
ATOM      3  C   UNL     1      22.042  22.846   3.148  0.00  0.00    +0.019 A 
ATOM     38  C   UNL     1      21.462  23.256   1.878  0.00  0.00    +0.120 A 
ATOM     39  N   UNL     1      20.115  23.019   1.621  0.00  0.00    -0.263 NA
ATOM     40  C   UNL     1      19.271  22.390   2.548  0.00  0.00    +0.111 A 
ENDBRANCH   4   3
ENDBRANCH  10   9
BRANCH  12  13
ATOM     13  N   UNL     1      30.893  21.370   3.680  0.00  0.00    -0.281 N 
ATOM     14  C   UNL     1      30.505  20.917   4.931  0.00  0.00    +0.248 C 
ATOM     30  O   UNL     1      29.458  21.221   5.482  0.00  0.00    -0.270 OA
ATOM     31  H   UNL     1      31.866  21.200   3.424  0.00  0.00    +0.155 HD
BRANCH  14  15
ATOM     15  C   UNL     1      31.420  20.006   5.684  0.00  0.00    +0.037 A 
ATOM     16  C   UNL     1      30.932  19.193   6.801  0.00  0.00    +0.013 A 
ATOM     17  C   UNL     1      31.839  18.335   7.522  0.00  0.00    +0.005 A 
ATOM     18  C   UNL     1      33.244  18.284   7.125  0.00  0.00    -0.033 A 
ATOM     28  C   UNL     1      33.700  19.097   6.010  0.00  0.00    +0.005 A 
ATOM     29  C   UNL     1      32.814  19.940   5.302  0.00  0.00    +0.013 A 
BRANCH  18  19
ATOM     19  C   UNL     1      34.286  17.413   7.851  0.00  0.00    +0.119 C 
BRANCH  19  20
ATOM     20  N   UNL     1      34.286  15.951   7.547  0.00  0.00    -0.302 NA
ATOM     21  C   UNL     1      34.008  15.672   6.067  0.00  0.00    +0.066 C 
ATOM     22  C   UNL     1      34.034  14.139   5.763  0.00  0.00    -0.064 C 
ATOM     23  N   UNL     1      33.011  13.428   6.650  0.00  0.00    +0.379 N 
ATOM     24  C   UNL     1      32.992  11.994   6.325  0.00  0.00    -0.096 C 
ATOM     25  H   UNL     1      32.005  13.843   6.406  0.00  0.00    -0.082 HD
ATOM     26  C   UNL     1      33.279  13.702   8.123  0.00  0.00    -0.064 C 
ATOM     27  C   UNL     1      33.280  15.230   8.409  0.00  0.00    +0.066 C 
ENDBRANCH  19  20
ENDBRANCH  18  19
ENDBRANCH  14  15
ENDBRANCH  12  13
TORSDOF 6
ENDMDL
MODEL 2
REMARK VINA RESULT:      -9.4      5.686     11.389
REMARK  Name = C:\Users\Docking\Desktop\test protocol\1iep_ligandH.pdb
REMARK  8 active torsions:
REMARK  status: ('A' for Active; 'I' for Inactive)
REMARK    1  A    between atoms: _5  and  _11
REMARK    2  A    between atoms: _19  and  _21
REMARK    3  A    between atoms: _22  and  _66
REMARK    4  A    between atoms: _27  and  _30
REMARK    5  A    between atoms: _32  and  _33
REMARK    6  A    between atoms: _38  and  _43
REMARK    7  A    between atoms: _43  and  _46
REMARK    8  A    between atoms: _53  and  _55
REMARK                            x       y       z     vdW  Elec       q    Type
REMARK                         _______ _______ _______ _____ _____    ______ ____
ROOT
ATOM     10  C   UNL     1      31.708  22.059  -2.528  0.00  0.00    +0.038 A 
ATOM     11  C   UNL     1      30.761  22.052  -1.472  0.00  0.00    +0.047 A 
ATOM     12  C   UNL     1      29.744  23.086  -1.367  0.00  0.00    +0.035 A 
ATOM     32  C   UNL     1      29.718  24.112  -2.356  0.00  0.00    +0.024 A 
ATOM     33  C   UNL     1      30.674  24.135  -3.436  0.00  0.00    +0.007 A 
ATOM     34  C   UNL     1      31.681  23.119  -3.543  0.00  0.00    -0.029 A 
ATOM     35  C   UNL     1      32.684  23.198  -4.718  0.00  0.00    +0.045 C 
ENDROOT
BRANCH  10   9
ATOM      4  C   UNL     1      33.098  17.616  -3.696  0.00  0.00    +0.077 A 
ATOM      5  C   UNL     1      31.804  17.285  -4.221  0.00  0.00    +0.048 A 
ATOM      6  C   UNL     1      30.806  18.285  -4.165  0.00  0.00    +0.116 A 
ATOM      7  N   UNL     1      31.093  19.519  -3.623  0.00  0.00    -0.223 NA
ATOM      8  C   UNL     1      32.350  19.804  -3.124  0.00  0.00    +0.220 A 
ATOM      9  N   UNL     1      32.663  21.041  -2.581  0.00  0.00    -0.283 N 
ATOM     36  H   UNL     1      33.600  21.210  -2.217  0.00  0.00    +0.155 HD
ATOM     37  N   UNL     1      33.320  18.866  -3.164  0.00  0.00    -0.214 NA
BRANCH   4   3
ATOM      1  C   UNL     1      36.239  15.549  -4.774  0.00  0.00    +0.020 A 
ATOM      2  C   UNL     1      35.133  16.477  -4.835  0.00  0.00    +0.013 A 
ATOM      3  C   UNL     1      34.256  16.667  -3.687  0.00  0.00    +0.019 A 
ATOM     38  C   UNL     1      34.527  15.898  -2.482  0.00  0.00    +0.120 A 
ATOM     39  N   UNL     1      35.598  15.010  -2.452  0.00  0.00    -0.263 NA
ATOM     40  C   UNL     1      36.448  14.817  -3.552  0.00  0.00    +0.111 A 
ENDBRANCH   4   3
ENDBRANCH  10   9
BRANCH  12  13
ATOM     13  N   UNL     1      28.761  23.135  -0.313  0.00  0.00    -0.281 N 
ATOM     14  C   UNL     1      28.868  22.634   0.975  0.00  0.00    +0.248 C 
ATOM     30  O   UNL     1      29.749  21.875   1.350  0.00  0.00    -0.270 OA
ATOM     31  H   UNL     1      27.881  23.595  -0.543  0.00  0.00    +0.155 HD
BRANCH  14  15
ATOM     15  C   UNL     1      27.839  23.021   1.987  0.00  0.00    +0.037 A 
ATOM     16  C   UNL     1      28.112  22.924   3.423  0.00  0.00    +0.013 A 
ATOM     17  C   UNL     1      27.095  23.288   4.379  0.00  0.00    +0.005 A 
ATOM     18  C   UNL     1      25.796  23.753   3.900  0.00  0.00    -0.033 A 
ATOM     28  C   UNL     1      25.554  23.845   2.470  0.00  0.00    +0.005 A 
ATOM     29  C   UNL     1      26.547  23.489   1.530  0.00  0.00    +0.013 A 
BRANCH  18  19
ATOM     19  C   UNL     1      24.646  24.142   4.848  0.00  0.00    +0.119 C 
BRANCH  19  20
ATOM     20  N   UNL     1      24.005  23.044   5.631  0.00  0.00    -0.302 NA
ATOM     21  C   UNL     1      22.614  22.693   5.096  0.00  0.00    +0.066 C 
ATOM     22  C   UNL     1      21.967  21.528   5.913  0.00  0.00    -0.064 C 
ATOM     23  N   UNL     1      21.895  21.922   7.389  0.00  0.00    +0.379 N 
ATOM     24  C   UNL     1      21.235  20.852   8.151  0.00  0.00    -0.096 C 
ATOM     25  H   UNL     1      21.259  22.834   7.465  0.00  0.00    -0.082 HD
ATOM     26  C   UNL     1      23.274  22.275   7.929  0.00  0.00    -0.064 C 
ATOM     27  C   UNL     1      23.920  23.414   7.092  0.00  0.00    +0.066 C 
ENDBRANCH  19  20
ENDBRANCH  18  19
ENDBRANCH  14  15
ENDBRANCH  12  13
TORSDOF 6
ENDMDL
MODEL 3
REMARK VINA RESULT:      -9.3      6.137     12.224
REMARK  Name = C:\Users\Docking\Desktop\test protocol\1iep_ligandH.pdb
REMARK  8 active torsions:
REMARK  status: ('A' for Active; 'I' for Inactive)
REMARK    1  A    between atoms: _5  and  _11
REMARK    2  A    between atoms: _19  and  _21
REMARK    3  A    between atoms: _22  and  _66
REMARK    4  A    between atoms: _27  and  _30
REMARK    5  A    between atoms: _32  and  _33
REMARK    6  A    between atoms: _38  and  _43
REMARK    7  A    between atoms: _43  and  _46
REMARK    8  A    between atoms: _53  and  _55
REMARK                            x       y       z     vdW  Elec       q    Type
REMARK                         _______ _______ _______ _____ _____    ______ ____
ROOT
ATOM     10  C   UNL     1      32.069  22.279  -3.001  0.00  0.00    +0.038 A 
ATOM     11  C   UNL     1      31.190  22.120  -1.899  0.00  0.00    +0.047 A 
ATOM     12  C   UNL     1      30.102  23.056  -1.663  0.00  0.00    +0.035 A 
ATOM     32  C   UNL     1      29.937  24.142  -2.571  0.00  0.00    +0.024 A 
ATOM     33  C   UNL     1      30.822  24.320  -3.695  0.00  0.00    +0.007 A 
ATOM     34  C   UNL     1      31.898  23.401  -3.932  0.00  0.00    -0.029 A 
ATOM     35  C   UNL     1      32.819  23.643  -5.150  0.00  0.00    +0.045 C 
ENDROOT
BRANCH  10   9
ATOM      4  C   UNL     1      33.941  18.392  -5.105  0.00  0.00    +0.077 A 
ATOM      5  C   UNL     1      32.762  18.178  -5.894  0.00  0.00    +0.048 A 
ATOM      6  C   UNL     1      31.694  19.087  -5.723  0.00  0.00    +0.116 A 
ATOM      7  N   UNL     1      31.807  20.128  -4.828  0.00  0.00    -0.223 NA
ATOM      8  C   UNL     1      32.957  20.305  -4.081  0.00  0.00    +0.220 A 
ATOM      9  N   UNL     1      33.096  21.350  -3.181  0.00  0.00    -0.283 N 
ATOM     36  H   UNL     1      33.958  21.441  -2.643  0.00  0.00    +0.155 HD
ATOM     37  N   UNL     1      33.991  19.450  -4.225  0.00  0.00    -0.214 NA
BRANCH   4   3
ATOM      1  C   UNL     1      36.904  16.033  -4.127  0.00  0.00    +0.020 A 
ATOM      2  C   UNL     1      35.730  16.866  -4.005  0.00  0.00    +0.013 A 
ATOM      3  C   UNL     1      35.155  17.519  -5.175  0.00  0.00    +0.019 A 
ATOM     38  C   UNL     1      35.797  17.306  -6.463  0.00  0.00    +0.120 A 
ATOM     39  N   UNL     1      36.927  16.499  -6.550  0.00  0.00    -0.263 NA
ATOM     40  C   UNL     1      37.490  15.867  -5.431  0.00  0.00    +0.111 A 
ENDBRANCH   4   3
ENDBRANCH  10   9
BRANCH  12  13
ATOM     13  N   UNL     1      29.184  22.950  -0.556  0.00  0.00    -0.281 N 
ATOM     14  C   UNL     1      29.398  23.305   0.765  0.00  0.00    +0.248 C 
ATOM     30  O   UNL     1      30.492  23.570   1.241  0.00  0.00    -0.270 OA
ATOM     31  H   UNL     1      28.264  22.567  -0.774  0.00  0.00    +0.155 HD
BRANCH  14  15
ATOM     15  C   UNL     1      28.231  23.358   1.697  0.00  0.00    +0.037 A 
ATOM     16  C   UNL     1      28.387  23.085   3.128  0.00  0.00    +0.013 A 
ATOM     17  C   UNL     1      27.241  23.127   4.002  0.00  0.00    +0.005 A 
ATOM     18  C   UNL     1      25.928  23.445   3.446  0.00  0.00    -0.033 A 
ATOM     28  C   UNL     1      25.802  23.717   2.024  0.00  0.00    +0.005 A 
ATOM     29  C   UNL     1      26.923  23.676   1.164  0.00  0.00    +0.013 A 
BRANCH  18  19
ATOM     19  C   UNL     1      24.647  23.491   4.300  0.00  0.00    +0.119 C 
BRANCH  19  20
ATOM     20  N   UNL     1      23.421  22.861   3.728  0.00  0.00    -0.302 NA
ATOM     21  C   UNL     1      22.556  23.872   2.970  0.00  0.00    +0.066 C 
ATOM     22  C   UNL     1      21.288  23.192   2.359  0.00  0.00    -0.064 C 
ATOM     23  N   UNL     1      20.485  22.520   3.474  0.00  0.00    +0.379 N 
ATOM     24  C   UNL     1      19.262  21.929   2.911  0.00  0.00    -0.096 C 
ATOM     25  H   UNL     1      20.176  23.314   4.193  0.00  0.00    -0.082 HD
ATOM     26  C   UNL     1      21.338  21.515   4.234  0.00  0.00    -0.064 C 
ATOM     27  C   UNL     1      22.610  22.195   4.813  0.00  0.00    +0.066 C 
ENDBRANCH  19  20
ENDBRANCH  18  19
ENDBRANCH  14  15
ENDBRANCH  12  13
TORSDOF 6
ENDMDL
MODEL 4
REMARK VINA RESULT:      -9.3      1.596      2.940
REMARK  Name = C:\Users\Docking\Desktop\test protocol\1iep_ligandH.pdb
REMARK  8 active torsions:
REMARK  status: ('A' for Active; 'I' for Inactive)
REMARK    1  A    between atoms: _5  and  _11
REMARK    2  A    between atoms: _19  and  _21
REMARK    3  A    between atoms: _22  and  _66
REMARK    4  A    between atoms: _27  and  _30
REMARK    5  A    between atoms: _32  and  _33
REMARK    6  A    between atoms: _38  and  _43
REMARK    7  A    between atoms: _43  and  _46
REMARK    8  A    between atoms: _53  and  _55
REMARK                            x       y       z     vdW  Elec       q    Type
REMARK                         _______ _______ _______ _____ _____    ______ ____
ROOT
ATOM     10  C   UNL     1      27.910  22.583   1.759  0.00  0.00    +0.038 A 
ATOM     11  C   UNL     1      28.646  21.781   2.668  0.00  0.00    +0.047 A 
ATOM     12  C   UNL     1      30.083  21.949   2.826  0.00  0.00    +0.035 A 
ATOM     32  C   UNL     1      30.737  22.944   2.043  0.00  0.00    +0.024 A 
ATOM     33  C   UNL     1      30.004  23.766   1.113  0.00  0.00    +0.007 A 
ATOM     34  C   UNL     1      28.587  23.604   0.952  0.00  0.00    -0.029 A 
ATOM     35  C   UNL     1      27.854  24.510  -0.065  0.00  0.00    +0.045 C 
ENDROOT
BRANCH  10   9
ATOM      4  C   UNL     1      23.410  23.126   3.338  0.00  0.00    +0.077 A 
ATOM      5  C   UNL     1      23.842  23.853   4.497  0.00  0.00    +0.048 A 
ATOM      6  C   UNL     1      25.231  24.060   4.653  0.00  0.00    +0.116 A 
ATOM      7  N   UNL     1      26.113  23.572   3.714  0.00  0.00    -0.223 NA
ATOM      8  C   UNL     1      25.664  22.873   2.609  0.00  0.00    +0.220 A 
ATOM      9  N   UNL     1      26.533  22.380   1.648  0.00  0.00    -0.283 N 
ATOM     36  H   UNL     1      26.162  21.863   0.851  0.00  0.00    +0.155 HD
ATOM     37  N   UNL     1      24.342  22.661   2.438  0.00  0.00    -0.214 NA
BRANCH   4   3
ATOM      1  C   UNL     1      19.964  22.848   1.509  0.00  0.00    +0.020 A 
ATOM      2  C   UNL     1      21.354  23.156   1.754  0.00  0.00    +0.013 A 
ATOM      3  C   UNL     1      21.975  22.830   3.032  0.00  0.00    +0.019 A 
ATOM     38  C   UNL     1      21.155  22.186   4.047  0.00  0.00    +0.120 A 
ATOM     39  N   UNL     1      19.819  21.903   3.783  0.00  0.00    -0.263 NA
ATOM     40  C   UNL     1      19.210  22.214   2.558  0.00  0.00    +0.111 A 
ENDBRANCH   4   3
ENDBRANCH  10   9
BRANCH  12  13
ATOM     13  N   UNL     1      30.884  21.159   3.728  0.00  0.00    -0.281 N 
ATOM     14  C   UNL     1      30.572  20.760   5.017  0.00  0.00    +0.248 C 
ATOM     30  O   UNL     1      29.641  21.204   5.672  0.00  0.00    -0.270 OA
ATOM     31  H   UNL     1      31.792  20.857   3.373  0.00  0.00    +0.155 HD
BRANCH  14  15
ATOM     15  C   UNL     1      31.427  19.728   5.681  0.00  0.00    +0.037 A 
ATOM     16  C   UNL     1      32.684  19.279   5.075  0.00  0.00    +0.013 A 
ATOM     17  C   UNL     1      33.481  18.271   5.728  0.00  0.00    +0.005 A 
ATOM     18  C   UNL     1      33.024  17.706   6.995  0.00  0.00    -0.033 A 
ATOM     28  C   UNL     1      31.776  18.173   7.576  0.00  0.00    +0.005 A 
ATOM     29  C   UNL     1      30.992  19.161   6.939  0.00  0.00    +0.013 A 
BRANCH  18  19
ATOM     19  C   UNL     1      33.800  16.611   7.750  0.00  0.00    +0.119 C 
BRANCH  19  20
ATOM     20  N   UNL     1      34.757  17.056   8.806  0.00  0.00    -0.302 NA
ATOM     21  C   UNL     1      34.258  16.719  10.214  0.00  0.00    +0.066 C 
ATOM     22  C   UNL     1      35.282  17.172  11.305  0.00  0.00    -0.064 C 
ATOM     23  N   UNL     1      35.541  18.673  11.166  0.00  0.00    +0.379 N 
ATOM     24  C   UNL     1      36.459  19.113  12.227  0.00  0.00    -0.096 C 
ATOM     25  H   UNL     1      34.570  19.199  11.320  0.00  0.00    -0.082 HD
ATOM     26  C   UNL     1      36.035  19.017   9.769  0.00  0.00    -0.064 C 
ATOM     27  C   UNL     1      35.024  18.537   8.691  0.00  0.00    +0.066 C 
ENDBRANCH  19  20
ENDBRANCH  18  19
ENDBRANCH  14  15
ENDBRANCH  12  13
TORSDOF 6
ENDMDL
MODEL 5
REMARK VINA RESULT:      -9.2      5.881     12.299
REMARK  Name = C:\Users\Docking\Desktop\test protocol\1iep_ligandH.pdb
REMARK  8 active torsions:
REMARK  status: ('A' for Active; 'I' for Inactive)
REMARK    1  A    between atoms: _5  and  _11
REMARK    2  A    between atoms: _19  and  _21
REMARK    3  A    between atoms: _22  and  _66
REMARK    4  A    between atoms: _27  and  _30
REMARK    5  A    between atoms: _32  and  _33
REMARK    6  A    between atoms: _38  and  _43
REMARK    7  A    between atoms: _43  and  _46
REMARK    8  A    between atoms: _53  and  _55
REMARK                            x       y       z     vdW  Elec       q    Type
REMARK                         _______ _______ _______ _____ _____    ______ ____
ROOT
ATOM     10  C   UNL     1      31.927  21.917  -3.248  0.00  0.00    +0.038 A 
ATOM     11  C   UNL     1      31.045  21.790  -2.144  0.00  0.00    +0.047 A 
ATOM     12  C   UNL     1      30.166  22.881  -1.754  0.00  0.00    +0.035 A 
ATOM     32  C   UNL     1      30.208  24.087  -2.513  0.00  0.00    +0.024 A 
ATOM     33  C   UNL     1      31.098  24.233  -3.638  0.00  0.00    +0.007 A 
ATOM     34  C   UNL     1      31.970  23.161  -4.025  0.00  0.00    -0.029 A 
ATOM     35  C   UNL     1      32.909  23.377  -5.236  0.00  0.00    +0.045 C 
ENDROOT
BRANCH  10   9
ATOM      4  C   UNL     1      36.113  19.576  -3.070  0.00  0.00    +0.077 A 
ATOM      5  C   UNL     1      36.721  20.603  -2.274  0.00  0.00    +0.048 A 
ATOM      6  C   UNL     1      35.924  21.721  -1.938  0.00  0.00    +0.116 A 
ATOM      7  N   UNL     1      34.618  21.795  -2.371  0.00  0.00    -0.223 NA
ATOM      8  C   UNL     1      34.063  20.788  -3.139  0.00  0.00    +0.220 A 
ATOM      9  N   UNL     1      32.749  20.838  -3.579  0.00  0.00    -0.283 N 
ATOM     36  H   UNL     1      32.379  20.078  -4.149  0.00  0.00    +0.155 HD
ATOM     37  N   UNL     1      34.804  19.711  -3.474  0.00  0.00    -0.214 NA
BRANCH   4   3
ATOM      1  C   UNL     1      37.664  15.986  -3.114  0.00  0.00    +0.020 A 
ATOM      2  C   UNL     1      36.968  17.162  -2.647  0.00  0.00    +0.013 A 
ATOM      3  C   UNL     1      36.825  18.332  -3.504  0.00  0.00    +0.019 A 
ATOM     38  C   UNL     1      37.401  18.279  -4.839  0.00  0.00    +0.120 A 
ATOM     39  N   UNL     1      38.067  17.133  -5.261  0.00  0.00    -0.263 NA
ATOM     40  C   UNL     1      38.213  16.001  -4.445  0.00  0.00    +0.111 A 
ENDBRANCH   4   3
ENDBRANCH  10   9
BRANCH  12  13
ATOM     13  N   UNL     1      29.256  22.813  -0.638  0.00  0.00    -0.281 N 
ATOM     14  C   UNL     1      29.488  23.191   0.674  0.00  0.00    +0.248 C 
ATOM     30  O   UNL     1      30.590  23.449   1.134  0.00  0.00    -0.270 OA
ATOM     31  H   UNL     1      28.328  22.440  -0.840  0.00  0.00    +0.155 HD
BRANCH  14  15
ATOM     15  C   UNL     1      28.330  23.283   1.615  0.00  0.00    +0.037 A 
ATOM     16  C   UNL     1      28.494  23.034   3.049  0.00  0.00    +0.013 A 
ATOM     17  C   UNL     1      27.358  23.113   3.932  0.00  0.00    +0.005 A 
ATOM     18  C   UNL     1      26.045  23.444   3.382  0.00  0.00    -0.033 A 
ATOM     28  C   UNL     1      25.911  23.691   1.956  0.00  0.00    +0.005 A 
ATOM     29  C   UNL     1      27.023  23.614   1.087  0.00  0.00    +0.013 A 
BRANCH  18  19
ATOM     19  C   UNL     1      24.773  23.528   4.246  0.00  0.00    +0.119 C 
BRANCH  19  20
ATOM     20  N   UNL     1      23.530  22.912   3.695  0.00  0.00    -0.302 NA
ATOM     21  C   UNL     1      22.633  23.945   3.007  0.00  0.00    +0.066 C 
ATOM     22  C   UNL     1      21.347  23.279   2.417  0.00  0.00    -0.064 C 
ATOM     23  N   UNL     1      20.588  22.562   3.535  0.00  0.00    +0.379 N 
ATOM     24  C   UNL     1      19.349  21.984   2.994  0.00  0.00    -0.096 C 
ATOM     25  H   UNL     1      20.302  23.327   4.293  0.00  0.00    -0.082 HD
ATOM     26  C   UNL     1      21.474  21.535   4.226  0.00  0.00    -0.064 C 
ATOM     27  C   UNL     1      22.762  22.202   4.783  0.00  0.00    +0.066 C 
ENDBRANCH  19  20
ENDBRANCH  18  19
ENDBRANCH  14  15
ENDBRANCH  12  13
TORSDOF 6
ENDMDL
