MODEL 1
REMARK VINA RESULT:      -9.8      0.000      0.000
REMARK  Name = C:\Users\Docking\Desktop\test protocol\1iep_ligandH.pdb
REMARK  8 active torsions:
REMARK  status: ('A' for Active; 'I' for Inactive)
REMARK    1  A    between atoms: _5  and  _11
REMARK    2  A    between atoms: _19  and  _21
REMARK    3  A    between atoms: _22  and  _66
REMARK    4  A    between atoms: _27  and  _30
REMARK    5  A    between atoms: _32  and  _33
REMARK    6  A    between atoms: _38  and  _43
REMARK    7  A    between atoms: _43  and  _46
REMARK    8  A    between atoms: _53  and  _55
REMARK                            x       y       z     vdW  Elec       q    Type
REMARK                         _______ _______ _______ _____ _____    ______ ____
ROOT
ATOM     10  C   UNL     1      -4.515  12.982  22.598  0.00  0.00    +0.038 A 
ATOM     11  C   UNL     1      -5.368  13.247  23.700  0.00  0.00    +0.047 A 
ATOM     12  C   UNL     1      -6.770  13.581  23.503  0.00  0.00    +0.035 A 
ATOM     32  C   UNL     1      -7.272  13.632  22.170  0.00  0.00    +0.024 A 
ATOM     33  C   UNL     1      -6.419  13.366  21.038  0.00  0.00    +0.007 A 
ATOM     34  C   UNL     1      -5.034  13.040  21.226  0.00  0.00    -0.029 A 
ATOM     35  C   UNL     1      -4.164  12.770  19.976  0.00  0.00    +0.045 C 
ENDROOT
BRANCH  10   9
ATOM      4  C   UNL     1      -0.994   9.830  23.438  0.00  0.00    +0.077 A 
ATOM      5  C   UNL     1      -1.902   8.719  23.409  0.00  0.00    +0.048 A 
ATOM      6  C   UNL     1      -3.267   9.002  23.182  0.00  0.00    +0.116 A 
ATOM      7  N   UNL     1      -3.683  10.303  22.999  0.00  0.00    -0.223 NA
ATOM      8  C   UNL     1      -2.782  11.352  23.034  0.00  0.00    +0.220 A 
ATOM      9  N   UNL     1      -3.177  12.667  22.845  0.00  0.00    -0.283 N 
ATOM     36  H   UNL     1      -2.483  13.413  22.886  0.00  0.00    +0.155 HD
ATOM     37  N   UNL     1      -1.473  11.107  23.251  0.00  0.00    -0.214 NA
BRANCH   4   3
ATOM      1  C   UNL     1       2.489   9.300  25.137  0.00  0.00    +0.020 A 
ATOM      2  C   UNL     1       1.059   9.425  24.974  0.00  0.00    +0.013 A 
ATOM      3  C   UNL     1       0.479   9.692  23.663  0.00  0.00    +0.019 A 
ATOM     38  C   UNL     1       1.382   9.827  22.530  0.00  0.00    +0.120 A 
ATOM     39  N   UNL     1       2.755   9.703  22.718  0.00  0.00    -0.263 NA
ATOM     40  C   UNL     1       3.324   9.448  23.975  0.00  0.00    +0.111 A 
ENDBRANCH   4   3
ENDBRANCH  10   9
BRANCH  12  13
ATOM     13  N   UNL     1      -7.682  13.868  24.583  0.00  0.00    -0.281 N 
ATOM     14  C   UNL     1      -7.887  15.078  25.225  0.00  0.00    +0.248 C 
ATOM     30  O   UNL     1      -7.160  16.053  25.110  0.00  0.00    -0.270 OA
ATOM     31  H   UNL     1      -8.244  13.083  24.914  0.00  0.00    +0.155 HD
BRANCH  14  15
ATOM     15  C   UNL     1      -9.062  15.220  26.138  0.00  0.00    +0.037 A 
ATOM     16  C   UNL     1      -9.117  16.283  27.145  0.00  0.00    +0.013 A 
ATOM     17  C   UNL     1     -10.255  16.387  28.024  0.00  0.00    +0.005 A 
ATOM     18  C   UNL     1     -11.348  15.427  27.898  0.00  0.00    -0.033 A 
ATOM     28  C   UNL     1     -11.270  14.386  26.887  0.00  0.00    +0.005 A 
ATOM     29  C   UNL     1     -10.156  14.279  26.024  0.00  0.00    +0.013 A 
BRANCH  18  19
ATOM     19  C   UNL     1     -12.591  15.450  28.808  0.00  0.00    +0.119 C 
BRANCH  19  20
ATOM     20  N   UNL     1     -13.846  14.850  28.266  0.00  0.00    -0.302 NA
ATOM     21  C   UNL     1     -15.056  15.765  28.471  0.00  0.00    +0.066 C 
ATOM     22  C   UNL     1     -16.357  15.132  27.878  0.00  0.00    -0.064 C 
ATOM     23  N   UNL     1     -16.595  13.766  28.524  0.00  0.00    +0.379 N 
ATOM     24  C   UNL     1     -17.849  13.193  28.011  0.00  0.00    -0.096 C 
ATOM     25  H   UNL     1     -16.721  13.928  29.620  0.00  0.00    -0.082 HD
ATOM     26  C   UNL     1     -15.396  12.850  28.327  0.00  0.00    -0.064 C 
ATOM     27  C   UNL     1     -14.104  13.502  28.893  0.00  0.00    +0.066 C 
ENDBRANCH  19  20
ENDBRANCH  18  19
ENDBRANCH  14  15
ENDBRANCH  12  13
TORSDOF 6
ENDMDL
MODEL 2
REMARK VINA RESULT:      -9.6      1.948      2.518
REMARK  Name = C:\Users\Docking\Desktop\test protocol\1iep_ligandH.pdb
REMARK  8 active torsions:
REMARK  status: ('A' for Active; 'I' for Inactive)
REMARK    1  A    between atoms: _5  and  _11
REMARK    2  A    between atoms: _19  and  _21
REMARK    3  A    between atoms: _22  and  _66
REMARK    4  A    between atoms: _27  and  _30
REMARK    5  A    between atoms: _32  and  _33
REMARK    6  A    between atoms: _38  and  _43
REMARK    7  A    between atoms: _43  and  _46
REMARK    8  A    between atoms: _53  and  _55
REMARK                            x       y       z     vdW  Elec       q    Type
REMARK                         _______ _______ _______ _____ _____    ______ ____
ROOT
ATOM     10  C   UNL     1      -4.845  14.703  22.704  0.00  0.00    +0.038 A 
ATOM     11  C   UNL     1      -5.847  14.510  23.689  0.00  0.00    +0.047 A 
ATOM     12  C   UNL     1      -7.159  15.125  23.558  0.00  0.00    +0.035 A 
ATOM     32  C   UNL     1      -7.417  15.928  22.409  0.00  0.00    +0.024 A 
ATOM     33  C   UNL     1      -6.410  16.135  21.399  0.00  0.00    +0.007 A 
ATOM     34  C   UNL     1      -5.113  15.533  21.524  0.00  0.00    -0.029 A 
ATOM     35  C   UNL     1      -4.070  15.795  20.413  0.00  0.00    +0.045 C 
ENDROOT
BRANCH  10   9
ATOM      4  C   UNL     1      -1.904  10.926  22.360  0.00  0.00    +0.077 A 
ATOM      5  C   UNL     1      -2.936  10.097  21.807  0.00  0.00    +0.048 A 
ATOM      6  C   UNL     1      -4.212  10.679  21.633  0.00  0.00    +0.116 A 
ATOM      7  N   UNL     1      -4.428  11.993  21.990  0.00  0.00    -0.223 NA
ATOM      8  C   UNL     1      -3.411  12.763  22.522  0.00  0.00    +0.220 A 
ATOM      9  N   UNL     1      -3.603  14.089  22.880  0.00  0.00    -0.283 N 
ATOM     36  H   UNL     1      -2.829  14.622  23.277  0.00  0.00    +0.155 HD
ATOM     37  N   UNL     1      -2.184  12.231  22.699  0.00  0.00    -0.214 NA
BRANCH   4   3
ATOM      1  C   UNL     1       1.863  10.002  21.851  0.00  0.00    +0.020 A 
ATOM      2  C   UNL     1       0.525  10.466  21.566  0.00  0.00    +0.013 A 
ATOM      3  C   UNL     1      -0.503  10.456  22.600  0.00  0.00    +0.019 A 
ATOM     38  C   UNL     1      -0.140   9.967  23.922  0.00  0.00    +0.120 A 
ATOM     39  N   UNL     1       1.156   9.524  24.166  0.00  0.00    -0.263 NA
ATOM     40  C   UNL     1       2.153   9.528  23.179  0.00  0.00    +0.111 A 
ENDBRANCH   4   3
ENDBRANCH  10   9
BRANCH  12  13
ATOM     13  N   UNL     1      -8.213  14.971  24.530  0.00  0.00    -0.281 N 
ATOM     14  C   UNL     1      -8.599  15.865  25.517  0.00  0.00    +0.248 C 
ATOM     30  O   UNL     1      -7.952  16.846  25.851  0.00  0.00    -0.270 OA
ATOM     31  H   UNL     1      -8.739  14.098  24.486  0.00  0.00    +0.155 HD
BRANCH  14  15
ATOM     15  C   UNL     1      -9.881  15.625  26.246  0.00  0.00    +0.037 A 
ATOM     16  C   UNL     1     -10.002  15.902  27.680  0.00  0.00    +0.013 A 
ATOM     17  C   UNL     1     -11.245  15.646  28.363  0.00  0.00    +0.005 A 
ATOM     18  C   UNL     1     -12.378  15.111  27.612  0.00  0.00    -0.033 A 
ATOM     28  C   UNL     1     -12.232  14.850  26.190  0.00  0.00    +0.005 A 
ATOM     29  C   UNL     1     -11.015  15.099  25.517  0.00  0.00    +0.013 A 
BRANCH  18  19
ATOM     19  C   UNL     1     -13.736  14.787  28.264  0.00  0.00    +0.119 C 
BRANCH  19  20
ATOM     20  N   UNL     1     -14.142  15.610  29.442  0.00  0.00    -0.302 NA
ATOM     21  C   UNL     1     -14.375  14.753  30.689  0.00  0.00    +0.066 C 
ATOM     22  C   UNL     1     -14.777  15.632  31.918  0.00  0.00    -0.064 C 
ATOM     23  N   UNL     1     -16.030  16.440  31.575  0.00  0.00    +0.379 N 
ATOM     24  C   UNL     1     -16.444  17.224  32.747  0.00  0.00    -0.096 C 
ATOM     25  H   UNL     1     -16.846  15.716  31.345  0.00  0.00    -0.082 HD
ATOM     26  C   UNL     1     -15.808  17.294  30.334  0.00  0.00    -0.064 C 
ATOM     27  C   UNL     1     -15.380  16.414  29.127  0.00  0.00    +0.066 C 
ENDBRANCH  19  20
ENDBRANCH  18  19
ENDBRANCH  14  15
ENDBRANCH  12  13
TORSDOF 6
ENDMDL
MODEL 3
REMARK VINA RESULT:      -8.1      4.781     14.538
REMARK  Name = C:\Users\Docking\Desktop\test protocol\1iep_ligandH.pdb
REMARK  8 active torsions:
REMARK  status: ('A' for Active; 'I' for Inactive)
REMARK    1  A    between atoms: _5  and  _11
REMARK    2  A    between atoms: _19  and  _21
REMARK    3  A    between atoms: _22  and  _66
REMARK    4  A    between atoms: _27  and  _30
REMARK    5  A    between atoms: _32  and  _33
REMARK    6  A    between atoms: _38  and  _43
REMARK    7  A    between atoms: _43  and  _46
REMARK    8  A    between atoms: _53  and  _55
REMARK                            x       y       z     vdW  Elec       q    Type
REMARK                         _______ _______ _______ _____ _____    ______ ____
ROOT
ATOM     10  C   UNL     1     -13.328  14.983  29.876  0.00  0.00    +0.038 A 
ATOM     11  C   UNL     1     -12.571  15.597  28.846  0.00  0.00    +0.047 A 
ATOM     12  C   UNL     1     -11.944  14.806  27.799  0.00  0.00    +0.035 A 
ATOM     32  C   UNL     1     -12.111  13.391  27.831  0.00  0.00    +0.024 A 
ATOM     33  C   UNL     1     -12.877  12.750  28.871  0.00  0.00    +0.007 A 
ATOM     34  C   UNL     1     -13.495  13.525  29.908  0.00  0.00    -0.029 A 
ATOM     35  C   UNL     1     -14.299  12.785  31.002  0.00  0.00    +0.045 C 
ENDROOT
BRANCH  10   9
ATOM      4  C   UNL     1     -17.008  17.501  31.654  0.00  0.00    +0.077 A 
ATOM      5  C   UNL     1     -17.836  17.202  30.521  0.00  0.00    +0.048 A 
ATOM      6  C   UNL     1     -17.275  16.404  29.499  0.00  0.00    +0.116 A 
ATOM      7  N   UNL     1     -15.981  15.943  29.613  0.00  0.00    -0.223 NA
ATOM      8  C   UNL     1     -15.209  16.251  30.718  0.00  0.00    +0.220 A 
ATOM      9  N   UNL     1     -13.908  15.792  30.857  0.00  0.00    -0.283 N 
ATOM     36  H   UNL     1     -13.369  16.047  31.684  0.00  0.00    +0.155 HD
ATOM     37  N   UNL     1     -15.721  17.013  31.706  0.00  0.00    -0.214 NA
BRANCH   4   3
ATOM      1  C   UNL     1     -18.553  20.371  33.816  0.00  0.00    +0.020 A 
ATOM      2  C   UNL     1     -18.137  19.610  32.660  0.00  0.00    +0.013 A 
ATOM      3  C   UNL     1     -17.459  18.330  32.816  0.00  0.00    +0.019 A 
ATOM     38  C   UNL     1     -17.216  17.843  34.166  0.00  0.00    +0.120 A 
ATOM     39  N   UNL     1     -17.626  18.598  35.260  0.00  0.00    -0.263 NA
ATOM     40  C   UNL     1     -18.278  19.833  35.122  0.00  0.00    +0.111 A 
ENDBRANCH   4   3
ENDBRANCH  10   9
BRANCH  12  13
ATOM     13  N   UNL     1     -11.157  15.373  26.732  0.00  0.00    -0.281 N 
ATOM     14  C   UNL     1      -9.892  15.932  26.811  0.00  0.00    +0.248 C 
ATOM     30  O   UNL     1      -9.330  16.224  27.856  0.00  0.00    -0.270 OA
ATOM     31  H   UNL     1     -11.585  15.360  25.806  0.00  0.00    +0.155 HD
BRANCH  14  15
ATOM     15  C   UNL     1      -9.151  16.222  25.546  0.00  0.00    +0.037 A 
ATOM     16  C   UNL     1      -9.853  16.356  24.267  0.00  0.00    +0.013 A 
ATOM     17  C   UNL     1      -9.112  16.619  23.059  0.00  0.00    +0.005 A 
ATOM     18  C   UNL     1      -7.658  16.751  23.126  0.00  0.00    -0.033 A 
ATOM     28  C   UNL     1      -6.988  16.618  24.408  0.00  0.00    +0.005 A 
ATOM     29  C   UNL     1      -7.711  16.360  25.594  0.00  0.00    +0.013 A 
BRANCH  18  19
ATOM     19  C   UNL     1      -6.785  17.010  21.884  0.00  0.00    +0.119 C 
BRANCH  19  20
ATOM     20  N   UNL     1      -6.004  15.858  21.344  0.00  0.00    -0.302 NA
ATOM     21  C   UNL     1      -5.242  16.227  20.068  0.00  0.00    +0.066 C 
ATOM     22  C   UNL     1      -4.413  15.016  19.530  0.00  0.00    -0.064 C 
ATOM     23  N   UNL     1      -5.348  13.832  19.279  0.00  0.00    +0.379 N 
ATOM     24  C   UNL     1      -4.580  12.710  18.718  0.00  0.00    -0.096 C 
ATOM     25  H   UNL     1      -6.095  14.147  18.514  0.00  0.00    -0.082 HD
ATOM     26  C   UNL     1      -6.111  13.460  20.542  0.00  0.00    -0.064 C 
ATOM     27  C   UNL     1      -6.909  14.678  21.085  0.00  0.00    +0.066 C 
ENDBRANCH  19  20
ENDBRANCH  18  19
ENDBRANCH  14  15
ENDBRANCH  12  13
TORSDOF 6
ENDMDL
MODEL 4
REMARK VINA RESULT:      -8.0      4.982     14.498
REMARK  Name = C:\Users\Docking\Desktop\test protocol\1iep_ligandH.pdb
REMARK  8 active torsions:
REMARK  status: ('A' for Active; 'I' for Inactive)
REMARK    1  A    between atoms: _5  and  _11
REMARK    2  A    between atoms: _19  and  _21
REMARK    3  A    between atoms: _22  and  _66
REMARK    4  A    between atoms: _27  and  _30
REMARK    5  A    between atoms: _32  and  _33
REMARK    6  A    between atoms: _38  and  _43
REMARK    7  A    between atoms: _43  and  _46
REMARK    8  A    between atoms: _53  and  _55
REMARK                            x       y       z     vdW  Elec       q    Type
REMARK                         _______ _______ _______ _____ _____    ______ ____
ROOT
ATOM     10  C   UNL     1     -13.788  14.102  28.317  0.00  0.00    +0.038 A 
ATOM     11  C   UNL     1     -13.080  14.708  27.247  0.00  0.00    +0.047 A 
ATOM     12  C   UNL     1     -11.655  14.480  27.064  0.00  0.00    +0.035 A 
ATOM     32  C   UNL     1     -10.983  13.627  27.987  0.00  0.00    +0.024 A 
ATOM     33  C   UNL     1     -11.687  13.004  29.080  0.00  0.00    +0.007 A 
ATOM     34  C   UNL     1     -13.092  13.227  29.268  0.00  0.00    -0.029 A 
ATOM     35  C   UNL     1     -13.794  12.539  30.462  0.00  0.00    +0.045 C 
ENDROOT
BRANCH  10   9
ATOM      4  C   UNL     1     -17.473  16.724  29.924  0.00  0.00    +0.077 A 
ATOM      5  C   UNL     1     -16.602  17.652  30.585  0.00  0.00    +0.048 A 
ATOM      6  C   UNL     1     -15.212  17.415  30.493  0.00  0.00    +0.116 A 
ATOM      7  N   UNL     1     -14.740  16.328  29.790  0.00  0.00    -0.223 NA
ATOM      8  C   UNL     1     -15.608  15.451  29.165  0.00  0.00    +0.220 A 
ATOM      9  N   UNL     1     -15.155  14.356  28.446  0.00  0.00    -0.283 N 
ATOM     36  H   UNL     1     -15.828  13.728  28.006  0.00  0.00    +0.155 HD
ATOM     37  N   UNL     1     -16.940  15.655  29.240  0.00  0.00    -0.214 NA
BRANCH   4   3
ATOM      1  C   UNL     1     -21.260  16.204  29.094  0.00  0.00    +0.020 A 
ATOM      2  C   UNL     1     -19.824  16.053  29.051  0.00  0.00    +0.013 A 
ATOM      3  C   UNL     1     -18.966  16.841  29.927  0.00  0.00    +0.019 A 
ATOM     38  C   UNL     1     -19.597  17.779  30.843  0.00  0.00    +0.120 A 
ATOM     39  N   UNL     1     -20.983  17.904  30.861  0.00  0.00    -0.263 NA
ATOM     40  C   UNL     1     -21.819  17.153  30.021  0.00  0.00    +0.111 A 
ENDBRANCH   4   3
ENDBRANCH  10   9
BRANCH  12  13
ATOM     13  N   UNL     1     -10.882  15.073  26.001  0.00  0.00    -0.281 N 
ATOM     14  C   UNL     1      -9.923  16.068  26.099  0.00  0.00    +0.248 C 
ATOM     30  O   UNL     1      -9.735  16.752  27.095  0.00  0.00    -0.270 OA
ATOM     31  H   UNL     1     -11.064  14.717  25.063  0.00  0.00    +0.155 HD
BRANCH  14  15
ATOM     15  C   UNL     1      -9.056  16.354  24.916  0.00  0.00    +0.037 A 
ATOM     16  C   UNL     1      -9.635  16.679  23.610  0.00  0.00    +0.013 A 
ATOM     17  C   UNL     1      -8.777  16.934  22.481  0.00  0.00    +0.005 A 
ATOM     18  C   UNL     1      -7.327  16.867  22.654  0.00  0.00    -0.033 A 
ATOM     28  C   UNL     1      -6.779  16.548  23.961  0.00  0.00    +0.005 A 
ATOM     29  C   UNL     1      -7.618  16.296  25.070  0.00  0.00    +0.013 A 
BRANCH  18  19
ATOM     19  C   UNL     1      -6.336  17.104  21.499  0.00  0.00    +0.119 C 
BRANCH  19  20
ATOM     20  N   UNL     1      -5.692  15.901  20.893  0.00  0.00    -0.302 NA
ATOM     21  C   UNL     1      -4.599  16.278  19.890  0.00  0.00    +0.066 C 
ATOM     22  C   UNL     1      -3.920  15.007  19.282  0.00  0.00    -0.064 C 
ATOM     23  N   UNL     1      -4.985  14.132  18.618  0.00  0.00    +0.379 N 
ATOM     24  C   UNL     1      -4.343  12.965  17.996  0.00  0.00    -0.096 C 
ATOM     25  H   UNL     1      -5.458  14.732  17.806  0.00  0.00    -0.082 HD
ATOM     26  C   UNL     1      -6.078  13.754  19.608  0.00  0.00    -0.064 C 
ATOM     27  C   UNL     1      -6.725  15.024  20.229  0.00  0.00    +0.066 C 
ENDBRANCH  19  20
ENDBRANCH  18  19
ENDBRANCH  14  15
ENDBRANCH  12  13
TORSDOF 6
ENDMDL
MODEL 5
REMARK VINA RESULT:      -7.8     19.400     20.579
REMARK  Name = C:\Users\Docking\Desktop\test protocol\1iep_ligandH.pdb
REMARK  8 active torsions:
REMARK  status: ('A' for Active; 'I' for Inactive)
REMARK    1  A    between atoms: _5  and  _11
REMARK    2  A    between atoms: _19  and  _21
REMARK    3  A    between atoms: _22  and  _66
REMARK    4  A    between atoms: _27  and  _30
REMARK    5  A    between atoms: _32  and  _33
REMARK    6  A    between atoms: _38  and  _43
REMARK    7  A    between atoms: _43  and  _46
REMARK    8  A    between atoms: _53  and  _55
REMARK                            x       y       z     vdW  Elec       q    Type
REMARK                         _______ _______ _______ _____ _____    ______ ____
ROOT
ATOM     10  C   UNL     1      -2.733  32.015  24.318  0.00  0.00    +0.038 A 
ATOM     11  C   UNL     1      -4.092  31.974  23.915  0.00  0.00    +0.047 A 
ATOM     12  C   UNL     1      -5.151  32.453  24.789  0.00  0.00    +0.035 A 
ATOM     32  C   UNL     1      -4.789  32.970  26.068  0.00  0.00    +0.024 A 
ATOM     33  C   UNL     1      -3.413  33.018  26.494  0.00  0.00    +0.007 A 
ATOM     34  C   UNL     1      -2.364  32.544  25.636  0.00  0.00    -0.029 A 
ATOM     35  C   UNL     1      -0.906  32.613  26.148  0.00  0.00    +0.045 C 
ENDROOT
BRANCH  10   9
ATOM      4  C   UNL     1       0.546  32.683  20.877  0.00  0.00    +0.077 A 
ATOM      5  C   UNL     1       0.273  34.090  20.807  0.00  0.00    +0.048 A 
ATOM      6  C   UNL     1      -0.724  34.600  21.669  0.00  0.00    +0.116 A 
ATOM      7  N   UNL     1      -1.391  33.758  22.532  0.00  0.00    -0.223 NA
ATOM      8  C   UNL     1      -1.104  32.406  22.572  0.00  0.00    +0.220 A 
ATOM      9  N   UNL     1      -1.757  31.541  23.437  0.00  0.00    -0.283 N 
ATOM     36  H   UNL     1      -1.522  30.549  23.432  0.00  0.00    +0.155 HD
ATOM     37  N   UNL     1      -0.158  31.893  21.758  0.00  0.00    -0.214 NA
BRANCH   4   3
ATOM      1  C   UNL     1       3.434  30.327  19.692  0.00  0.00    +0.020 A 
ATOM      2  C   UNL     1       2.460  30.960  20.550  0.00  0.00    +0.013 A 
ATOM      3  C   UNL     1       1.573  31.995  20.032  0.00  0.00    +0.019 A 
ATOM     38  C   UNL     1       1.698  32.367  18.631  0.00  0.00    +0.120 A 
ATOM     39  N   UNL     1       2.647  31.740  17.829  0.00  0.00    -0.263 NA
ATOM     40  C   UNL     1       3.507  30.745  18.317  0.00  0.00    +0.111 A 
ENDBRANCH   4   3
ENDBRANCH  10   9
BRANCH  12  13
ATOM     13  N   UNL     1      -6.549  32.430  24.438  0.00  0.00    -0.281 N 
ATOM     14  C   UNL     1      -7.138  32.855  23.258  0.00  0.00    +0.248 C 
ATOM     30  O   UNL     1      -6.572  33.522  22.405  0.00  0.00    -0.270 OA
ATOM     31  H   UNL     1      -7.182  32.054  25.144  0.00  0.00    +0.155 HD
BRANCH  14  15
ATOM     15  C   UNL     1      -8.566  32.501  22.995  0.00  0.00    +0.037 A 
ATOM     16  C   UNL     1      -9.025  32.143  21.651  0.00  0.00    +0.013 A 
ATOM     17  C   UNL     1     -10.412  31.822  21.422  0.00  0.00    +0.005 A 
ATOM     18  C   UNL     1     -11.350  31.858  22.542  0.00  0.00    -0.033 A 
ATOM     28  C   UNL     1     -10.866  32.212  23.866  0.00  0.00    +0.005 A 
ATOM     29  C   UNL     1      -9.508  32.527  24.094  0.00  0.00    +0.013 A 
BRANCH  18  19
ATOM     19  C   UNL     1     -12.851  31.551  22.385  0.00  0.00    +0.119 C 
BRANCH  19  20
ATOM     20  N   UNL     1     -13.772  32.713  22.211  0.00  0.00    -0.302 NA
ATOM     21  C   UNL     1     -13.045  33.944  21.660  0.00  0.00    +0.066 C 
ATOM     22  C   UNL     1     -14.028  35.144  21.462  0.00  0.00    -0.064 C 
ATOM     23  N   UNL     1     -14.708  35.467  22.794  0.00  0.00    +0.379 N 
ATOM     24  C   UNL     1     -15.589  36.632  22.625  0.00  0.00    -0.096 C 
ATOM     25  H   UNL     1     -13.911  35.748  23.521  0.00  0.00    -0.082 HD
ATOM     26  C   UNL     1     -15.431  34.248  23.350  0.00  0.00    -0.064 C 
ATOM     27  C   UNL     1     -14.451  33.052  23.514  0.00  0.00    +0.066 C 
ENDBRANCH  19  20
ENDBRANCH  18  19
ENDBRANCH  14  15
ENDBRANCH  12  13
TORSDOF 6
ENDMDL
