MODEL 1
REMARK VINA RESULT:     -10.1      0.000      0.000
REMARK  Name = C:\Users\Docking\Desktop\test protocol\1iep_ligandH.pdb
REMARK  8 active torsions:
REMARK  status: ('A' for Active; 'I' for Inactive)
REMARK    1  A    between atoms: _5  and  _11
REMARK    2  A    between atoms: _19  and  _21
REMARK    3  A    between atoms: _22  and  _66
REMARK    4  A    between atoms: _27  and  _30
REMARK    5  A    between atoms: _32  and  _33
REMARK    6  A    between atoms: _38  and  _43
REMARK    7  A    between atoms: _43  and  _46
REMARK    8  A    between atoms: _53  and  _55
REMARK                            x       y       z     vdW  Elec       q    Type
REMARK                         _______ _______ _______ _____ _____    ______ ____
ROOT
ATOM     10  C   UNL     1      25.223   2.302  23.438  0.00  0.00    +0.038 A 
ATOM     11  C   UNL     1      26.334   2.972  24.010  0.00  0.00    +0.047 A 
ATOM     12  C   UNL     1      26.804   2.643  25.347  0.00  0.00    +0.035 A 
ATOM     32  C   UNL     1      26.119   1.625  26.072  0.00  0.00    +0.024 A 
ATOM     33  C   UNL     1      24.987   0.935  25.506  0.00  0.00    +0.007 A 
ATOM     34  C   UNL     1      24.518   1.256  24.189  0.00  0.00    -0.029 A 
ATOM     35  C   UNL     1      23.295   0.489  23.634  0.00  0.00    +0.045 C 
ENDROOT
BRANCH  10   9
ATOM      4  C   UNL     1      22.541   4.886  20.410  0.00  0.00    +0.077 A 
ATOM      5  C   UNL     1      21.878   5.566  21.485  0.00  0.00    +0.048 A 
ATOM      6  C   UNL     1      22.250   5.217  22.802  0.00  0.00    +0.116 A 
ATOM      7  N   UNL     1      23.216   4.258  23.017  0.00  0.00    -0.223 NA
ATOM      8  C   UNL     1      23.835   3.620  21.958  0.00  0.00    +0.220 A 
ATOM      9  N   UNL     1      24.815   2.658  22.150  0.00  0.00    -0.283 N 
ATOM     36  H   UNL     1      25.242   2.205  21.343  0.00  0.00    +0.155 HD
ATOM     37  N   UNL     1      23.496   3.934  20.690  0.00  0.00    -0.214 NA
BRANCH   4   3
ATOM      1  C   UNL     1      20.691   5.518  17.022  0.00  0.00    +0.020 A 
ATOM      2  C   UNL     1      20.908   5.265  18.428  0.00  0.00    +0.013 A 
ATOM      3  C   UNL     1      22.259   5.148  18.963  0.00  0.00    +0.019 A 
ATOM     38  C   UNL     1      23.376   5.294  18.042  0.00  0.00    +0.120 A 
ATOM     39  N   UNL     1      23.136   5.536  16.693  0.00  0.00    -0.263 NA
ATOM     40  C   UNL     1      21.841   5.649  16.166  0.00  0.00    +0.111 A 
ENDBRANCH   4   3
ENDBRANCH  10   9
BRANCH  12  13
ATOM     13  N   UNL     1      27.922   3.295  25.984  0.00  0.00    -0.281 N 
ATOM     14  C   UNL     1      29.201   3.474  25.483  0.00  0.00    +0.248 C 
ATOM     30  O   UNL     1      29.640   2.910  24.492  0.00  0.00    -0.270 OA
ATOM     31  H   UNL     1      27.749   3.669  26.917  0.00  0.00    +0.155 HD
BRANCH  14  15
ATOM     15  C   UNL     1      30.131   4.403  26.194  0.00  0.00    +0.037 A 
ATOM     16  C   UNL     1      30.785   4.014  27.446  0.00  0.00    +0.013 A 
ATOM     17  C   UNL     1      31.664   4.936  28.120  0.00  0.00    +0.005 A 
ATOM     18  C   UNL     1      31.896   6.257  27.542  0.00  0.00    -0.033 A 
ATOM     28  C   UNL     1      31.238   6.616  26.296  0.00  0.00    +0.005 A 
ATOM     29  C   UNL     1      30.375   5.715  25.633  0.00  0.00    +0.013 A 
BRANCH  18  19
ATOM     19  C   UNL     1      32.802   7.312  28.203  0.00  0.00    +0.119 C 
BRANCH  19  20
ATOM     20  N   UNL     1      32.130   8.459  28.885  0.00  0.00    -0.302 NA
ATOM     21  C   UNL     1      30.980   7.999  29.785  0.00  0.00    +0.066 C 
ATOM     22  C   UNL     1      30.303   9.210  30.507  0.00  0.00    -0.064 C 
ATOM     23  N   UNL     1      29.807  10.211  29.462  0.00  0.00    +0.379 N 
ATOM     24  C   UNL     1      29.119  11.322  30.136  0.00  0.00    -0.096 C 
ATOM     25  H   UNL     1      29.059   9.688  28.822  0.00  0.00    -0.082 HD
ATOM     26  C   UNL     1      30.944  10.671  28.561  0.00  0.00    -0.064 C 
ATOM     27  C   UNL     1      31.629   9.458  27.871  0.00  0.00    +0.066 C 
ENDBRANCH  19  20
ENDBRANCH  18  19
ENDBRANCH  14  15
ENDBRANCH  12  13
TORSDOF 6
ENDMDL
MODEL 2
REMARK VINA RESULT:     -10.0      1.273      1.839
REMARK  Name = C:\Users\Docking\Desktop\test protocol\1iep_ligandH.pdb
REMARK  8 active torsions:
REMARK  status: ('A' for Active; 'I' for Inactive)
REMARK    1  A    between atoms: _5  and  _11
REMARK    2  A    between atoms: _19  and  _21
REMARK    3  A    between atoms: _22  and  _66
REMARK    4  A    between atoms: _27  and  _30
REMARK    5  A    between atoms: _32  and  _33
REMARK    6  A    between atoms: _38  and  _43
REMARK    7  A    between atoms: _43  and  _46
REMARK    8  A    between atoms: _53  and  _55
REMARK                            x       y       z     vdW  Elec       q    Type
REMARK                         _______ _______ _______ _____ _____    ______ ____
ROOT
ATOM     10  C   UNL     1      25.190   2.271  23.429  0.00  0.00    +0.038 A 
ATOM     11  C   UNL     1      26.307   2.917  24.017  0.00  0.00    +0.047 A 
ATOM     12  C   UNL     1      26.763   2.564  25.353  0.00  0.00    +0.035 A 
ATOM     32  C   UNL     1      26.060   1.546  26.060  0.00  0.00    +0.024 A 
ATOM     33  C   UNL     1      24.921   0.880  25.477  0.00  0.00    +0.007 A 
ATOM     34  C   UNL     1      24.465   1.225  24.161  0.00  0.00    -0.029 A 
ATOM     35  C   UNL     1      23.235   0.483  23.589  0.00  0.00    +0.045 C 
ENDROOT
BRANCH  10   9
ATOM      4  C   UNL     1      22.549   4.918  20.420  0.00  0.00    +0.077 A 
ATOM      5  C   UNL     1      21.879   5.584  21.500  0.00  0.00    +0.048 A 
ATOM      6  C   UNL     1      22.238   5.212  22.815  0.00  0.00    +0.116 A 
ATOM      7  N   UNL     1      23.197   4.244  23.022  0.00  0.00    -0.223 NA
ATOM      8  C   UNL     1      23.822   3.620  21.958  0.00  0.00    +0.220 A 
ATOM      9  N   UNL     1      24.795   2.650  22.144  0.00  0.00    -0.283 N 
ATOM     36  H   UNL     1      25.227   2.207  21.333  0.00  0.00    +0.155 HD
ATOM     37  N   UNL     1      23.496   3.957  20.693  0.00  0.00    -0.214 NA
BRANCH   4   3
ATOM      1  C   UNL     1      20.735   5.506  17.005  0.00  0.00    +0.020 A 
ATOM      2  C   UNL     1      20.939   5.224  18.407  0.00  0.00    +0.013 A 
ATOM      3  C   UNL     1      22.281   5.204  18.975  0.00  0.00    +0.019 A 
ATOM     38  C   UNL     1      23.403   5.478  18.091  0.00  0.00    +0.120 A 
ATOM     39  N   UNL     1      23.176   5.745  16.744  0.00  0.00    -0.263 NA
ATOM     40  C   UNL     1      21.890   5.765  16.186  0.00  0.00    +0.111 A 
ENDBRANCH   4   3
ENDBRANCH  10   9
BRANCH  12  13
ATOM     13  N   UNL     1      27.886   3.191  26.005  0.00  0.00    -0.281 N 
ATOM     14  C   UNL     1      29.126   3.490  25.465  0.00  0.00    +0.248 C 
ATOM     30  O   UNL     1      29.533   3.068  24.392  0.00  0.00    -0.270 OA
ATOM     31  H   UNL     1      27.750   3.445  26.983  0.00  0.00    +0.155 HD
BRANCH  14  15
ATOM     15  C   UNL     1      30.054   4.375  26.233  0.00  0.00    +0.037 A 
ATOM     16  C   UNL     1      30.284   5.765  25.833  0.00  0.00    +0.013 A 
ATOM     17  C   UNL     1      31.197   6.592  26.582  0.00  0.00    +0.005 A 
ATOM     18  C   UNL     1      31.887   6.029  27.741  0.00  0.00    -0.033 A 
ATOM     28  C   UNL     1      31.636   4.649  28.119  0.00  0.00    +0.005 A 
ATOM     29  C   UNL     1      30.742   3.835  27.387  0.00  0.00    +0.013 A 
BRANCH  18  19
ATOM     19  C   UNL     1      32.894   6.832  28.585  0.00  0.00    +0.119 C 
BRANCH  19  20
ATOM     20  N   UNL     1      32.360   7.568  29.770  0.00  0.00    -0.302 NA
ATOM     21  C   UNL     1      33.114   8.877  30.021  0.00  0.00    +0.066 C 
ATOM     22  C   UNL     1      32.528   9.645  31.250  0.00  0.00    -0.064 C 
ATOM     23  N   UNL     1      32.581   8.743  32.484  0.00  0.00    +0.379 N 
ATOM     24  C   UNL     1      32.084   9.483  33.654  0.00  0.00    -0.096 C 
ATOM     25  H   UNL     1      33.651   8.492  32.673  0.00  0.00    -0.082 HD
ATOM     26  C   UNL     1      31.835   7.439  32.242  0.00  0.00    -0.064 C 
ATOM     27  C   UNL     1      32.407   6.698  31.001  0.00  0.00    +0.066 C 
ENDBRANCH  19  20
ENDBRANCH  18  19
ENDBRANCH  14  15
ENDBRANCH  12  13
TORSDOF 6
ENDMDL
MODEL 3
REMARK VINA RESULT:      -9.7      1.831      3.115
REMARK  Name = C:\Users\Docking\Desktop\test protocol\1iep_ligandH.pdb
REMARK  8 active torsions:
REMARK  status: ('A' for Active; 'I' for Inactive)
REMARK    1  A    between atoms: _5  and  _11
REMARK    2  A    between atoms: _19  and  _21
REMARK    3  A    between atoms: _22  and  _66
REMARK    4  A    between atoms: _27  and  _30
REMARK    5  A    between atoms: _32  and  _33
REMARK    6  A    between atoms: _38  and  _43
REMARK    7  A    between atoms: _43  and  _46
REMARK    8  A    between atoms: _53  and  _55
REMARK                            x       y       z     vdW  Elec       q    Type
REMARK                         _______ _______ _______ _____ _____    ______ ____
ROOT
ATOM     10  C   UNL     1      25.312   2.301  23.498  0.00  0.00    +0.038 A 
ATOM     11  C   UNL     1      26.411   2.989  24.073  0.00  0.00    +0.047 A 
ATOM     12  C   UNL     1      26.875   2.677  25.416  0.00  0.00    +0.035 A 
ATOM     32  C   UNL     1      26.198   1.655  26.143  0.00  0.00    +0.024 A 
ATOM     33  C   UNL     1      25.079   0.946  25.575  0.00  0.00    +0.007 A 
ATOM     34  C   UNL     1      24.615   1.252  24.251  0.00  0.00    -0.029 A 
ATOM     35  C   UNL     1      23.406   0.465  23.694  0.00  0.00    +0.045 C 
ENDROOT
BRANCH  10   9
ATOM      4  C   UNL     1      22.568   4.776  20.434  0.00  0.00    +0.077 A 
ATOM      5  C   UNL     1      21.860   5.424  21.500  0.00  0.00    +0.048 A 
ATOM      6  C   UNL     1      22.228   5.088  22.822  0.00  0.00    +0.116 A 
ATOM      7  N   UNL     1      23.230   4.170  23.050  0.00  0.00    -0.223 NA
ATOM      8  C   UNL     1      23.892   3.562  21.999  0.00  0.00    +0.220 A 
ATOM      9  N   UNL     1      24.909   2.642  22.205  0.00  0.00    -0.283 N 
ATOM     36  H   UNL     1      25.367   2.210  21.403  0.00  0.00    +0.155 HD
ATOM     37  N   UNL     1      23.559   3.865  20.727  0.00  0.00    -0.214 NA
BRANCH   4   3
ATOM      1  C   UNL     1      20.775   5.638  17.066  0.00  0.00    +0.020 A 
ATOM      2  C   UNL     1      20.983   5.405  18.477  0.00  0.00    +0.013 A 
ATOM      3  C   UNL     1      22.297   5.028  18.983  0.00  0.00    +0.019 A 
ATOM     38  C   UNL     1      23.387   4.895  18.029  0.00  0.00    +0.120 A 
ATOM     39  N   UNL     1      23.156   5.124  16.676  0.00  0.00    -0.263 NA
ATOM     40  C   UNL     1      21.896   5.486  16.177  0.00  0.00    +0.111 A 
ENDBRANCH   4   3
ENDBRANCH  10   9
BRANCH  12  13
ATOM     13  N   UNL     1      27.980   3.347  26.055  0.00  0.00    -0.281 N 
ATOM     14  C   UNL     1      29.251   3.567  25.549  0.00  0.00    +0.248 C 
ATOM     30  O   UNL     1      29.698   3.029  24.547  0.00  0.00    -0.270 OA
ATOM     31  H   UNL     1      27.804   3.703  26.994  0.00  0.00    +0.155 HD
BRANCH  14  15
ATOM     15  C   UNL     1      30.162   4.509  26.268  0.00  0.00    +0.037 A 
ATOM     16  C   UNL     1      30.359   5.882  25.798  0.00  0.00    +0.013 A 
ATOM     17  C   UNL     1      31.256   6.765  26.501  0.00  0.00    +0.005 A 
ATOM     18  C   UNL     1      31.962   6.277  27.682  0.00  0.00    -0.033 A 
ATOM     28  C   UNL     1      31.744   4.911  28.129  0.00  0.00    +0.005 A 
ATOM     29  C   UNL     1      30.867   4.042  27.443  0.00  0.00    +0.013 A 
BRANCH  18  19
ATOM     19  C   UNL     1      32.955   7.142  28.481  0.00  0.00    +0.119 C 
BRANCH  19  20
ATOM     20  N   UNL     1      34.330   6.596  28.683  0.00  0.00    -0.302 NA
ATOM     21  C   UNL     1      35.122   7.403  29.716  0.00  0.00    +0.066 C 
ATOM     22  C   UNL     1      36.550   6.804  29.931  0.00  0.00    -0.064 C 
ATOM     23  N   UNL     1      37.290   6.762  28.593  0.00  0.00    +0.379 N 
ATOM     24  C   UNL     1      38.654   6.254  28.802  0.00  0.00    -0.096 C 
ATOM     25  H   UNL     1      37.373   7.809  28.220  0.00  0.00    -0.082 HD
ATOM     26  C   UNL     1      36.508   5.964  27.560  0.00  0.00    -0.064 C 
ATOM     27  C   UNL     1      35.080   6.550  27.375  0.00  0.00    +0.066 C 
ENDBRANCH  19  20
ENDBRANCH  18  19
ENDBRANCH  14  15
ENDBRANCH  12  13
TORSDOF 6
ENDMDL
MODEL 4
REMARK VINA RESULT:      -9.7      1.559      2.106
REMARK  Name = C:\Users\Docking\Desktop\test protocol\1iep_ligandH.pdb
REMARK  8 active torsions:
REMARK  status: ('A' for Active; 'I' for Inactive)
REMARK    1  A    between atoms: _5  and  _11
REMARK    2  A    between atoms: _19  and  _21
REMARK    3  A    between atoms: _22  and  _66
REMARK    4  A    between atoms: _27  and  _30
REMARK    5  A    between atoms: _32  and  _33
REMARK    6  A    between atoms: _38  and  _43
REMARK    7  A    between atoms: _43  and  _46
REMARK    8  A    between atoms: _53  and  _55
REMARK                            x       y       z     vdW  Elec       q    Type
REMARK                         _______ _______ _______ _____ _____    ______ ____
ROOT
ATOM     10  C   UNL     1      24.939   2.394  24.360  0.00  0.00    +0.038 A 
ATOM     11  C   UNL     1      26.079   3.089  24.838  0.00  0.00    +0.047 A 
ATOM     12  C   UNL     1      26.908   2.537  25.899  0.00  0.00    +0.035 A 
ATOM     32  C   UNL     1      26.547   1.272  26.448  0.00  0.00    +0.024 A 
ATOM     33  C   UNL     1      25.391   0.552  25.974  0.00  0.00    +0.007 A 
ATOM     34  C   UNL     1      24.569   1.093  24.930  0.00  0.00    -0.029 A 
ATOM     35  C   UNL     1      23.338   0.280  24.466  0.00  0.00    +0.045 C 
ENDROOT
BRANCH  10   9
ATOM      4  C   UNL     1      24.320   3.766  19.803  0.00  0.00    +0.077 A 
ATOM      5  C   UNL     1      25.630   3.320  19.428  0.00  0.00    +0.048 A 
ATOM      6  C   UNL     1      26.435   2.749  20.439  0.00  0.00    +0.116 A 
ATOM      7  N   UNL     1      25.955   2.638  21.726  0.00  0.00    -0.223 NA
ATOM      8  C   UNL     1      24.686   3.080  22.054  0.00  0.00    +0.220 A 
ATOM      9  N   UNL     1      24.180   2.971  23.340  0.00  0.00    -0.283 N 
ATOM     36  H   UNL     1      23.242   3.316  23.543  0.00  0.00    +0.155 HD
ATOM     37  N   UNL     1      23.899   3.630  21.107  0.00  0.00    -0.214 NA
BRANCH   4   3
ATOM      1  C   UNL     1      21.012   4.946  18.079  0.00  0.00    +0.020 A 
ATOM      2  C   UNL     1      21.905   4.329  19.033  0.00  0.00    +0.013 A 
ATOM      3  C   UNL     1      23.350   4.387  18.846  0.00  0.00    +0.019 A 
ATOM     38  C   UNL     1      23.862   5.083  17.675  0.00  0.00    +0.120 A 
ATOM     39  N   UNL     1      22.977   5.667  16.773  0.00  0.00    -0.263 NA
ATOM     40  C   UNL     1      21.585   5.616  16.942  0.00  0.00    +0.111 A 
ENDBRANCH   4   3
ENDBRANCH  10   9
BRANCH  12  13
ATOM     13  N   UNL     1      28.072   3.201  26.430  0.00  0.00    -0.281 N 
ATOM     14  C   UNL     1      29.257   3.497  25.776  0.00  0.00    +0.248 C 
ATOM     30  O   UNL     1      29.577   3.043  24.688  0.00  0.00    -0.270 OA
ATOM     31  H   UNL     1      28.016   3.487  27.408  0.00  0.00    +0.155 HD
BRANCH  14  15
ATOM     15  C   UNL     1      30.232   4.420  26.432  0.00  0.00    +0.037 A 
ATOM     16  C   UNL     1      31.072   3.971  27.546  0.00  0.00    +0.013 A 
ATOM     17  C   UNL     1      31.993   4.886  28.172  0.00  0.00    +0.005 A 
ATOM     18  C   UNL     1      32.080   6.260  27.683  0.00  0.00    -0.033 A 
ATOM     28  C   UNL     1      31.239   6.677  26.573  0.00  0.00    +0.005 A 
ATOM     29  C   UNL     1      30.335   5.783  25.958  0.00  0.00    +0.013 A 
BRANCH  18  19
ATOM     19  C   UNL     1      33.019   7.311  28.305  0.00  0.00    +0.119 C 
BRANCH  19  20
ATOM     20  N   UNL     1      32.906   7.544  29.775  0.00  0.00    -0.302 NA
ATOM     21  C   UNL     1      31.484   7.936  30.187  0.00  0.00    +0.066 C 
ATOM     22  C   UNL     1      31.379   8.154  31.732  0.00  0.00    -0.064 C 
ATOM     23  N   UNL     1      32.382   9.226  32.162  0.00  0.00    +0.379 N 
ATOM     24  C   UNL     1      32.245   9.475  33.605  0.00  0.00    -0.096 C 
ATOM     25  H   UNL     1      32.118  10.169  31.629  0.00  0.00    -0.082 HD
ATOM     26  C   UNL     1      33.798   8.846  31.754  0.00  0.00    -0.064 C 
ATOM     27  C   UNL     1      33.885   8.603  30.221  0.00  0.00    +0.066 C 
ENDBRANCH  19  20
ENDBRANCH  18  19
ENDBRANCH  14  15
ENDBRANCH  12  13
TORSDOF 6
ENDMDL
MODEL 5
REMARK VINA RESULT:      -9.5      3.334     12.218
REMARK  Name = C:\Users\Docking\Desktop\test protocol\1iep_ligandH.pdb
REMARK  8 active torsions:
REMARK  status: ('A' for Active; 'I' for Inactive)
REMARK    1  A    between atoms: _5  and  _11
REMARK    2  A    between atoms: _19  and  _21
REMARK    3  A    between atoms: _22  and  _66
REMARK    4  A    between atoms: _27  and  _30
REMARK    5  A    between atoms: _32  and  _33
REMARK    6  A    between atoms: _38  and  _43
REMARK    7  A    between atoms: _43  and  _46
REMARK    8  A    between atoms: _53  and  _55
REMARK                            x       y       z     vdW  Elec       q    Type
REMARK                         _______ _______ _______ _____ _____    ______ ____
ROOT
ATOM     10  C   UNL     1      30.675   3.033  26.394  0.00  0.00    +0.038 A 
ATOM     11  C   UNL     1      30.229   3.363  25.089  0.00  0.00    +0.047 A 
ATOM     12  C   UNL     1      28.847   3.146  24.688  0.00  0.00    +0.035 A 
ATOM     32  C   UNL     1      27.946   2.593  25.644  0.00  0.00    +0.024 A 
ATOM     33  C   UNL     1      28.383   2.250  26.975  0.00  0.00    +0.007 A 
ATOM     34  C   UNL     1      29.745   2.460  27.374  0.00  0.00    -0.029 A 
ATOM     35  C   UNL     1      30.159   2.069  28.812  0.00  0.00    +0.045 C 
ENDROOT
BRANCH  10   9
ATOM      4  C   UNL     1      34.208   5.836  28.036  0.00  0.00    +0.077 A 
ATOM      5  C   UNL     1      33.319   6.946  28.225  0.00  0.00    +0.048 A 
ATOM      6  C   UNL     1      31.962   6.757  27.881  0.00  0.00    +0.116 A 
ATOM      7  N   UNL     1      31.536   5.543  27.386  0.00  0.00    -0.223 NA
ATOM      8  C   UNL     1      32.420   4.494  27.214  0.00  0.00    +0.220 A 
ATOM      9  N   UNL     1      32.012   3.262  26.725  0.00  0.00    -0.283 N 
ATOM     36  H   UNL     1      32.696   2.515  26.605  0.00  0.00    +0.155 HD
ATOM     37  N   UNL     1      33.721   4.650  27.533  0.00  0.00    -0.214 NA
BRANCH   4   3
ATOM      1  C   UNL     1      37.631   5.537  29.906  0.00  0.00    +0.020 A 
ATOM      2  C   UNL     1      36.210   5.476  29.648  0.00  0.00    +0.013 A 
ATOM      3  C   UNL     1      35.670   5.880  28.356  0.00  0.00    +0.019 A 
ATOM     38  C   UNL     1      36.601   6.343  27.338  0.00  0.00    +0.120 A 
ATOM     39  N   UNL     1      37.963   6.393  27.615  0.00  0.00    -0.263 NA
ATOM     40  C   UNL     1      38.495   6.008  28.856  0.00  0.00    +0.111 A 
ENDBRANCH   4   3
ENDBRANCH  10   9
BRANCH  12  13
ATOM     13  N   UNL     1      28.339   3.454  23.374  0.00  0.00    -0.281 N 
ATOM     14  C   UNL     1      28.588   4.580  22.608  0.00  0.00    +0.248 C 
ATOM     30  O   UNL     1      29.119   5.598  23.027  0.00  0.00    -0.270 OA
ATOM     31  H   UNL     1      27.721   2.757  22.959  0.00  0.00    +0.155 HD
BRANCH  14  15
ATOM     15  C   UNL     1      28.174   4.582  21.171  0.00  0.00    +0.037 A 
ATOM     16  C   UNL     1      27.232   3.588  20.651  0.00  0.00    +0.013 A 
ATOM     17  C   UNL     1      26.863   3.601  19.257  0.00  0.00    +0.005 A 
ATOM     18  C   UNL     1      27.436   4.615  18.375  0.00  0.00    -0.033 A 
ATOM     28  C   UNL     1      28.364   5.592  18.919  0.00  0.00    +0.005 A 
ATOM     29  C   UNL     1      28.729   5.581  20.284  0.00  0.00    +0.013 A 
BRANCH  18  19
ATOM     19  C   UNL     1      27.115   4.691  16.870  0.00  0.00    +0.119 C 
BRANCH  19  20
ATOM     20  N   UNL     1      25.677   4.811  16.483  0.00  0.00    -0.302 NA
ATOM     21  C   UNL     1      25.510   5.197  15.011  0.00  0.00    +0.066 C 
ATOM     22  C   UNL     1      24.000   5.296  14.617  0.00  0.00    -0.064 C 
ATOM     23  N   UNL     1      23.304   6.311  15.525  0.00  0.00    +0.379 N 
ATOM     24  C   UNL     1      21.898   6.450  15.120  0.00  0.00    -0.096 C 
ATOM     25  H   UNL     1      23.800   7.298  15.371  0.00  0.00    -0.082 HD
ATOM     26  C   UNL     1      23.469   5.937  16.992  0.00  0.00    -0.064 C 
ATOM     27  C   UNL     1      24.972   5.812  17.365  0.00  0.00    +0.066 C 
ENDBRANCH  19  20
ENDBRANCH  18  19
ENDBRANCH  14  15
ENDBRANCH  12  13
TORSDOF 6
ENDMDL
