MODEL 1
REMARK VINA RESULT:     -11.5      0.000      0.000
REMARK  Name = C:\Users\Docking\Desktop\test protocol\1iep_ligandH.pdb
REMARK  8 active torsions:
REMARK  status: ('A' for Active; 'I' for Inactive)
REMARK    1  A    between atoms: _5  and  _11
REMARK    2  A    between atoms: _19  and  _21
REMARK    3  A    between atoms: _22  and  _66
REMARK    4  A    between atoms: _27  and  _30
REMARK    5  A    between atoms: _32  and  _33
REMARK    6  A    between atoms: _38  and  _43
REMARK    7  A    between atoms: _43  and  _46
REMARK    8  A    between atoms: _53  and  _55
REMARK                            x       y       z     vdW  Elec       q    Type
REMARK                         _______ _______ _______ _____ _____    ______ ____
ROOT
ATOM     10  C   UNL     1      25.471 -24.929  -1.127  0.00  0.00    +0.038 A 
ATOM     11  C   UNL     1      25.611 -24.125  -2.287  0.00  0.00    +0.047 A 
ATOM     12  C   UNL     1      24.749 -24.315  -3.443  0.00  0.00    +0.035 A 
ATOM     32  C   UNL     1      23.752 -25.332  -3.383  0.00  0.00    +0.024 A 
ATOM     33  C   UNL     1      23.596 -26.159  -2.212  0.00  0.00    +0.007 A 
ATOM     34  C   UNL     1      24.445 -25.978  -1.069  0.00  0.00    -0.029 A 
ATOM     35  C   UNL     1      24.237 -26.898   0.156  0.00  0.00    +0.045 C 
ENDROOT
BRANCH  10   9
ATOM      4  C   UNL     1      29.597 -23.351   0.749  0.00  0.00    +0.077 A 
ATOM      5  C   UNL     1      30.103 -22.967  -0.537  0.00  0.00    +0.048 A 
ATOM      6  C   UNL     1      29.274 -23.200  -1.657  0.00  0.00    +0.116 A 
ATOM      7  N   UNL     1      28.032 -23.773  -1.491  0.00  0.00    -0.223 NA
ATOM      8  C   UNL     1      27.574 -24.133  -0.237  0.00  0.00    +0.220 A 
ATOM      9  N   UNL     1      26.325 -24.704  -0.046  0.00  0.00    -0.283 N 
ATOM     36  H   UNL     1      26.027 -24.962   0.895  0.00  0.00    +0.155 HD
ATOM     37  N   UNL     1      28.348 -23.923   0.849  0.00  0.00    -0.214 NA
BRANCH   4   3
ATOM      1  C   UNL     1      31.998 -21.939   3.495  0.00  0.00    +0.020 A 
ATOM      2  C   UNL     1      31.293 -22.073   2.241  0.00  0.00    +0.013 A 
ATOM      3  C   UNL     1      30.354 -23.166   2.028  0.00  0.00    +0.019 A 
ATOM     38  C   UNL     1      30.148 -24.115   3.112  0.00  0.00    +0.120 A 
ATOM     39  N   UNL     1      30.842 -23.962   4.308  0.00  0.00    -0.263 NA
ATOM     40  C   UNL     1      31.750 -22.915   4.524  0.00  0.00    +0.111 A 
ENDBRANCH   4   3
ENDBRANCH  10   9
BRANCH  12  13
ATOM     13  N   UNL     1      24.850 -23.534  -4.651  0.00  0.00    -0.281 N 
ATOM     14  C   UNL     1      26.000 -23.118  -5.302  0.00  0.00    +0.248 C 
ATOM     30  O   UNL     1      27.123 -23.174  -4.825  0.00  0.00    -0.270 OA
ATOM     31  H   UNL     1      23.967 -23.255  -5.078  0.00  0.00    +0.155 HD
BRANCH  14  15
ATOM     15  C   UNL     1      25.883 -22.544  -6.677  0.00  0.00    +0.037 A 
ATOM     16  C   UNL     1      27.006 -22.589  -7.617  0.00  0.00    +0.013 A 
ATOM     17  C   UNL     1      26.872 -22.012  -8.932  0.00  0.00    +0.005 A 
ATOM     18  C   UNL     1      25.608 -21.387  -9.314  0.00  0.00    -0.033 A 
ATOM     28  C   UNL     1      24.509 -21.361  -8.364  0.00  0.00    +0.005 A 
ATOM     29  C   UNL     1      24.637 -21.924  -7.074  0.00  0.00    +0.013 A 
BRANCH  18  19
ATOM     19  C   UNL     1      25.383 -20.728 -10.688  0.00  0.00    +0.119 C 
BRANCH  19  20
ATOM     20  N   UNL     1      24.831 -21.589 -11.777  0.00  0.00    -0.302 NA
ATOM     21  C   UNL     1      23.520 -21.033 -12.339  0.00  0.00    +0.066 C 
ATOM     22  C   UNL     1      22.968 -21.933 -13.492  0.00  0.00    -0.064 C 
ATOM     23  N   UNL     1      22.774 -23.359 -12.974  0.00  0.00    +0.379 N 
ATOM     24  C   UNL     1      22.201 -24.195 -14.039  0.00  0.00    -0.096 C 
ATOM     25  H   UNL     1      22.034 -23.318 -12.141  0.00  0.00    -0.082 HD
ATOM     26  C   UNL     1      24.072 -23.919 -12.410  0.00  0.00    -0.064 C 
ATOM     27  C   UNL     1      24.627 -23.001 -11.285  0.00  0.00    +0.066 C 
ENDBRANCH  19  20
ENDBRANCH  18  19
ENDBRANCH  14  15
ENDBRANCH  12  13
TORSDOF 6
ENDMDL
MODEL 2
REMARK VINA RESULT:     -11.0      6.013     15.587
REMARK  Name = C:\Users\Docking\Desktop\test protocol\1iep_ligandH.pdb
REMARK  8 active torsions:
REMARK  status: ('A' for Active; 'I' for Inactive)
REMARK    1  A    between atoms: _5  and  _11
REMARK    2  A    between atoms: _19  and  _21
REMARK    3  A    between atoms: _22  and  _66
REMARK    4  A    between atoms: _27  and  _30
REMARK    5  A    between atoms: _32  and  _33
REMARK    6  A    between atoms: _38  and  _43
REMARK    7  A    between atoms: _43  and  _46
REMARK    8  A    between atoms: _53  and  _55
REMARK                            x       y       z     vdW  Elec       q    Type
REMARK                         _______ _______ _______ _____ _____    ______ ____
ROOT
ATOM     10  C   UNL     1      31.071 -22.628   1.694  0.00  0.00    +0.038 A 
ATOM     11  C   UNL     1      32.276 -22.050   2.168  0.00  0.00    +0.047 A 
ATOM     12  C   UNL     1      32.764 -22.321   3.511  0.00  0.00    +0.035 A 
ATOM     32  C   UNL     1      32.000 -23.189   4.345  0.00  0.00    +0.024 A 
ATOM     33  C   UNL     1      30.772 -23.785   3.880  0.00  0.00    +0.007 A 
ATOM     34  C   UNL     1      30.285 -23.519   2.557  0.00  0.00    -0.029 A 
ATOM     35  C   UNL     1      28.959 -24.179   2.113  0.00  0.00    +0.045 C 
ENDROOT
BRANCH  10   9
ATOM      4  C   UNL     1      30.207 -19.539  -1.876  0.00  0.00    +0.077 A 
ATOM      5  C   UNL     1      30.603 -18.415  -1.078  0.00  0.00    +0.048 A 
ATOM      6  C   UNL     1      31.016 -18.673   0.248  0.00  0.00    +0.116 A 
ATOM      7  N   UNL     1      31.028 -19.964   0.730  0.00  0.00    -0.223 NA
ATOM      8  C   UNL     1      30.638 -21.026  -0.066  0.00  0.00    +0.220 A 
ATOM      9  N   UNL     1      30.650 -22.333   0.396  0.00  0.00    -0.283 N 
ATOM     36  H   UNL     1      30.347 -23.088  -0.220  0.00  0.00    +0.155 HD
ATOM     37  N   UNL     1      30.238 -20.805  -1.335  0.00  0.00    -0.214 NA
BRANCH   4   3
ATOM      1  C   UNL     1      29.112 -18.097  -5.344  0.00  0.00    +0.020 A 
ATOM      2  C   UNL     1      29.555 -18.149  -3.970  0.00  0.00    +0.013 A 
ATOM      3  C   UNL     1      29.749 -19.428  -3.297  0.00  0.00    +0.019 A 
ATOM     38  C   UNL     1      29.484 -20.645  -4.050  0.00  0.00    +0.120 A 
ATOM     39  N   UNL     1      29.057 -20.564  -5.372  0.00  0.00    -0.263 NA
ATOM     40  C   UNL     1      28.865 -19.339  -6.028  0.00  0.00    +0.111 A 
ENDBRANCH   4   3
ENDBRANCH  10   9
BRANCH  12  13
ATOM     13  N   UNL     1      33.976 -21.757   4.050  0.00  0.00    -0.281 N 
ATOM     14  C   UNL     1      34.975 -21.078   3.371  0.00  0.00    +0.248 C 
ATOM     30  O   UNL     1      35.079 -21.039   2.154  0.00  0.00    -0.270 OA
ATOM     31  H   UNL     1      34.115 -21.871   5.054  0.00  0.00    +0.155 HD
BRANCH  14  15
ATOM     15  C   UNL     1      36.015 -20.348   4.157  0.00  0.00    +0.037 A 
ATOM     16  C   UNL     1      36.749 -21.007   5.241  0.00  0.00    +0.013 A 
ATOM     17  C   UNL     1      37.736 -20.275   5.995  0.00  0.00    +0.005 A 
ATOM     18  C   UNL     1      37.996 -18.875   5.666  0.00  0.00    -0.033 A 
ATOM     28  C   UNL     1      37.257 -18.249   4.583  0.00  0.00    +0.005 A 
ATOM     29  C   UNL     1      36.288 -18.962   3.842  0.00  0.00    +0.013 A 
BRANCH  18  19
ATOM     19  C   UNL     1      39.016 -18.012   6.432  0.00  0.00    +0.119 C 
BRANCH  19  20
ATOM     20  N   UNL     1      38.623 -17.532   7.790  0.00  0.00    -0.302 NA
ATOM     21  C   UNL     1      38.909 -18.576   8.873  0.00  0.00    +0.066 C 
ATOM     22  C   UNL     1      38.513 -18.049  10.291  0.00  0.00    -0.064 C 
ATOM     23  N   UNL     1      37.034 -17.659  10.292  0.00  0.00    +0.379 N 
ATOM     24  C   UNL     1      36.644 -17.218  11.639  0.00  0.00    -0.096 C 
ATOM     25  H   UNL     1      36.444 -18.574  10.051  0.00  0.00    -0.082 HD
ATOM     26  C   UNL     1      36.739 -16.624   9.216  0.00  0.00    -0.064 C 
ATOM     27  C   UNL     1      37.164 -17.146   7.815  0.00  0.00    +0.066 C 
ENDBRANCH  19  20
ENDBRANCH  18  19
ENDBRANCH  14  15
ENDBRANCH  12  13
TORSDOF 6
ENDMDL
MODEL 3
REMARK VINA RESULT:     -10.6      6.198     15.252
REMARK  Name = C:\Users\Docking\Desktop\test protocol\1iep_ligandH.pdb
REMARK  8 active torsions:
REMARK  status: ('A' for Active; 'I' for Inactive)
REMARK    1  A    between atoms: _5  and  _11
REMARK    2  A    between atoms: _19  and  _21
REMARK    3  A    between atoms: _22  and  _66
REMARK    4  A    between atoms: _27  and  _30
REMARK    5  A    between atoms: _32  and  _33
REMARK    6  A    between atoms: _38  and  _43
REMARK    7  A    between atoms: _43  and  _46
REMARK    8  A    between atoms: _53  and  _55
REMARK                            x       y       z     vdW  Elec       q    Type
REMARK                         _______ _______ _______ _____ _____    ______ ____
ROOT
ATOM     10  C   UNL     1      30.942 -22.773   1.472  0.00  0.00    +0.038 A 
ATOM     11  C   UNL     1      32.187 -22.236   1.889  0.00  0.00    +0.047 A 
ATOM     12  C   UNL     1      32.708 -22.491   3.223  0.00  0.00    +0.035 A 
ATOM     32  C   UNL     1      31.936 -23.300   4.106  0.00  0.00    +0.024 A 
ATOM     33  C   UNL     1      30.668 -23.853   3.700  0.00  0.00    +0.007 A 
ATOM     34  C   UNL     1      30.148 -23.603   2.386  0.00  0.00    -0.029 A 
ATOM     35  C   UNL     1      28.780 -24.216   2.006  0.00  0.00    +0.045 C 
ENDROOT
BRANCH  10   9
ATOM      4  C   UNL     1      30.062 -19.745  -2.147  0.00  0.00    +0.077 A 
ATOM      5  C   UNL     1      30.517 -18.615  -1.390  0.00  0.00    +0.048 A 
ATOM      6  C   UNL     1      30.962 -18.854  -0.070  0.00  0.00    +0.116 A 
ATOM      7  N   UNL     1      30.950 -20.133   0.443  0.00  0.00    -0.223 NA
ATOM      8  C   UNL     1      30.504 -21.201  -0.313  0.00  0.00    +0.220 A 
ATOM      9  N   UNL     1      30.490 -22.496   0.180  0.00  0.00    -0.283 N 
ATOM     36  H   UNL     1      30.146 -23.256  -0.407  0.00  0.00    +0.155 HD
ATOM     37  N   UNL     1      30.071 -20.998  -1.575  0.00  0.00    -0.214 NA
BRANCH   4   3
ATOM      1  C   UNL     1      28.949 -18.357  -5.630  0.00  0.00    +0.020 A 
ATOM      2  C   UNL     1      29.435 -18.390  -4.270  0.00  0.00    +0.013 A 
ATOM      3  C   UNL     1      29.564 -19.654  -3.556  0.00  0.00    +0.019 A 
ATOM     38  C   UNL     1      29.191 -20.876  -4.252  0.00  0.00    +0.120 A 
ATOM     39  N   UNL     1      28.724 -20.813  -5.561  0.00  0.00    -0.263 NA
ATOM     40  C   UNL     1      28.594 -19.603  -6.258  0.00  0.00    +0.111 A 
ENDBRANCH   4   3
ENDBRANCH  10   9
BRANCH  12  13
ATOM     13  N   UNL     1      33.962 -21.966   3.704  0.00  0.00    -0.281 N 
ATOM     14  C   UNL     1      34.599 -20.797   3.321  0.00  0.00    +0.248 C 
ATOM     30  O   UNL     1      34.289 -20.129   2.345  0.00  0.00    -0.270 OA
ATOM     31  H   UNL     1      34.437 -22.523   4.414  0.00  0.00    +0.155 HD
BRANCH  14  15
ATOM     15  C   UNL     1      35.756 -20.306   4.130  0.00  0.00    +0.037 A 
ATOM     16  C   UNL     1      36.386 -21.153   5.146  0.00  0.00    +0.013 A 
ATOM     17  C   UNL     1      37.489 -20.650   5.924  0.00  0.00    +0.005 A 
ATOM     18  C   UNL     1      37.971 -19.291   5.688  0.00  0.00    -0.033 A 
ATOM     28  C   UNL     1      37.331 -18.474   4.670  0.00  0.00    +0.005 A 
ATOM     29  C   UNL     1      36.248 -18.964   3.906  0.00  0.00    +0.013 A 
BRANCH  18  19
ATOM     19  C   UNL     1      39.129 -18.663   6.486  0.00  0.00    +0.119 C 
BRANCH  19  20
ATOM     20  N   UNL     1      40.505 -19.177   6.213  0.00  0.00    -0.302 NA
ATOM     21  C   UNL     1      40.762 -19.363   4.715  0.00  0.00    +0.066 C 
ATOM     22  C   UNL     1      42.213 -19.879   4.446  0.00  0.00    -0.064 C 
ATOM     23  N   UNL     1      42.432 -21.192   5.200  0.00  0.00    +0.379 N 
ATOM     24  C   UNL     1      43.776 -21.709   4.903  0.00  0.00    -0.096 C 
ATOM     25  H   UNL     1      41.692 -21.930   4.815  0.00  0.00    -0.082 HD
ATOM     26  C   UNL     1      42.176 -21.016   6.691  0.00  0.00    -0.064 C 
ATOM     27  C   UNL     1      40.741 -20.475   6.945  0.00  0.00    +0.066 C 
ENDBRANCH  19  20
ENDBRANCH  18  19
ENDBRANCH  14  15
ENDBRANCH  12  13
TORSDOF 6
ENDMDL
