MODEL 1
REMARK VINA RESULT:      -9.0      0.000      0.000
REMARK  Name = C:\Users\Docking\Desktop\test protocol\1iep_ligandH.pdb
REMARK  8 active torsions:
REMARK  status: ('A' for Active; 'I' for Inactive)
REMARK    1  A    between atoms: _5  and  _11
REMARK    2  A    between atoms: _19  and  _21
REMARK    3  A    between atoms: _22  and  _66
REMARK    4  A    between atoms: _27  and  _30
REMARK    5  A    between atoms: _32  and  _33
REMARK    6  A    between atoms: _38  and  _43
REMARK    7  A    between atoms: _43  and  _46
REMARK    8  A    between atoms: _53  and  _55
REMARK                            x       y       z     vdW  Elec       q    Type
REMARK                         _______ _______ _______ _____ _____    ______ ____
ROOT
ATOM     10  C   UNL     1     -30.923  19.800   9.897  0.00  0.00    +0.038 A 
ATOM     11  C   UNL     1     -31.242  21.168  10.089  0.00  0.00    +0.047 A 
ATOM     12  C   UNL     1     -30.392  22.221   9.554  0.00  0.00    +0.035 A 
ATOM     32  C   UNL     1     -29.226  21.843   8.827  0.00  0.00    +0.024 A 
ATOM     33  C   UNL     1     -28.887  20.456   8.623  0.00  0.00    +0.007 A 
ATOM     34  C   UNL     1     -29.720  19.414   9.151  0.00  0.00    -0.029 A 
ATOM     35  C   UNL     1     -29.304  17.944   8.907  0.00  0.00    +0.045 C 
ENDROOT
BRANCH  10   9
ATOM      4  C   UNL     1     -32.627  17.227  13.574  0.00  0.00    +0.077 A 
ATOM      5  C   UNL     1     -31.726  17.847  14.502  0.00  0.00    +0.048 A 
ATOM      6  C   UNL     1     -30.835  18.817  13.992  0.00  0.00    +0.116 A 
ATOM      7  N   UNL     1     -30.853  19.137  12.652  0.00  0.00    -0.223 NA
ATOM      8  C   UNL     1     -31.734  18.519  11.783  0.00  0.00    +0.220 A 
ATOM      9  N   UNL     1     -31.775  18.831  10.433  0.00  0.00    -0.283 N 
ATOM     36  H   UNL     1     -32.434  18.347   9.823  0.00  0.00    +0.155 HD
ATOM     37  N   UNL     1     -32.594  17.588  12.245  0.00  0.00    -0.214 NA
BRANCH   4   3
ATOM      1  C   UNL     1     -35.179  14.265  13.431  0.00  0.00    +0.020 A 
ATOM      2  C   UNL     1     -34.214  15.253  13.005  0.00  0.00    +0.013 A 
ATOM      3  C   UNL     1     -33.631  16.185  13.961  0.00  0.00    +0.019 A 
ATOM     38  C   UNL     1     -34.048  16.091  15.352  0.00  0.00    +0.120 A 
ATOM     39  N   UNL     1     -34.980  15.131  15.733  0.00  0.00    -0.263 NA
ATOM     40  C   UNL     1     -35.549  14.229  14.821  0.00  0.00    +0.111 A 
ENDBRANCH   4   3
ENDBRANCH  10   9
BRANCH  12  13
ATOM     13  N   UNL     1     -30.660  23.627   9.724  0.00  0.00    -0.281 N 
ATOM     14  C   UNL     1     -31.708  24.364   9.198  0.00  0.00    +0.248 C 
ATOM     30  O   UNL     1     -32.461  23.966   8.321  0.00  0.00    -0.270 OA
ATOM     31  H   UNL     1     -29.996  24.142  10.303  0.00  0.00    +0.155 HD
BRANCH  14  15
ATOM     15  C   UNL     1     -31.946  25.748   9.709  0.00  0.00    +0.037 A 
ATOM     16  C   UNL     1     -32.942  26.013  10.750  0.00  0.00    +0.013 A 
ATOM     17  C   UNL     1     -33.163  27.360  11.213  0.00  0.00    +0.005 A 
ATOM     18  C   UNL     1     -32.385  28.453  10.635  0.00  0.00    -0.033 A 
ATOM     28  C   UNL     1     -31.400  28.161   9.607  0.00  0.00    +0.005 A 
ATOM     29  C   UNL     1     -31.181  26.843   9.150  0.00  0.00    +0.013 A 
BRANCH  18  19
ATOM     19  C   UNL     1     -32.570  29.924  11.054  0.00  0.00    +0.119 C 
BRANCH  19  20
ATOM     20  N   UNL     1     -31.887  30.370  12.304  0.00  0.00    -0.302 NA
ATOM     21  C   UNL     1     -30.451  29.844  12.393  0.00  0.00    +0.066 C 
ATOM     22  C   UNL     1     -29.743  30.339  13.696  0.00  0.00    -0.064 C 
ATOM     23  N   UNL     1     -30.558  29.899  14.914  0.00  0.00    +0.379 N 
ATOM     24  C   UNL     1     -29.865  30.313  16.143  0.00  0.00    -0.096 C 
ATOM     25  H   UNL     1     -30.600  28.785  14.908  0.00  0.00    -0.082 HD
ATOM     26  C   UNL     1     -31.987  30.416  14.832  0.00  0.00    -0.064 C 
ATOM     27  C   UNL     1     -32.672  29.942  13.520  0.00  0.00    +0.066 C 
ENDBRANCH  19  20
ENDBRANCH  18  19
ENDBRANCH  14  15
ENDBRANCH  12  13
TORSDOF 6
ENDMDL
MODEL 2
REMARK VINA RESULT:      -8.2      3.847      6.007
REMARK  Name = C:\Users\Docking\Desktop\test protocol\1iep_ligandH.pdb
REMARK  8 active torsions:
REMARK  status: ('A' for Active; 'I' for Inactive)
REMARK    1  A    between atoms: _5  and  _11
REMARK    2  A    between atoms: _19  and  _21
REMARK    3  A    between atoms: _22  and  _66
REMARK    4  A    between atoms: _27  and  _30
REMARK    5  A    between atoms: _32  and  _33
REMARK    6  A    between atoms: _38  and  _43
REMARK    7  A    between atoms: _43  and  _46
REMARK    8  A    between atoms: _53  and  _55
REMARK                            x       y       z     vdW  Elec       q    Type
REMARK                         _______ _______ _______ _____ _____    ______ ____
ROOT
ATOM     10  C   UNL     1     -31.620  25.793   7.696  0.00  0.00    +0.038 A 
ATOM     11  C   UNL     1     -31.238  26.538   8.841  0.00  0.00    +0.047 A 
ATOM     12  C   UNL     1     -30.276  27.625   8.745  0.00  0.00    +0.035 A 
ATOM     32  C   UNL     1     -29.724  27.928   7.466  0.00  0.00    +0.024 A 
ATOM     33  C   UNL     1     -30.100  27.180   6.292  0.00  0.00    +0.007 A 
ATOM     34  C   UNL     1     -31.047  26.105   6.381  0.00  0.00    -0.029 A 
ATOM     35  C   UNL     1     -31.408  25.333   5.091  0.00  0.00    +0.045 C 
ENDROOT
BRANCH  10   9
ATOM      4  C   UNL     1     -33.027  21.607   9.577  0.00  0.00    +0.077 A 
ATOM      5  C   UNL     1     -31.799  21.452  10.302  0.00  0.00    +0.048 A 
ATOM      6  C   UNL     1     -30.828  22.469  10.158  0.00  0.00    +0.116 A 
ATOM      7  N   UNL     1     -31.077  23.555   9.347  0.00  0.00    -0.223 NA
ATOM      8  C   UNL     1     -32.272  23.672   8.661  0.00  0.00    +0.220 A 
ATOM      9  N   UNL     1     -32.548  24.760   7.846  0.00  0.00    -0.283 N 
ATOM     36  H   UNL     1     -33.438  24.806   7.351  0.00  0.00    +0.155 HD
ATOM     37  N   UNL     1     -33.215  22.715   8.780  0.00  0.00    -0.214 NA
BRANCH   4   3
ATOM      1  C   UNL     1     -35.067  18.270   9.586  0.00  0.00    +0.020 A 
ATOM      2  C   UNL     1     -33.947  19.180   9.529  0.00  0.00    +0.013 A 
ATOM      3  C   UNL     1     -34.151  20.620   9.629  0.00  0.00    +0.019 A 
ATOM     38  C   UNL     1     -35.512  21.109   9.788  0.00  0.00    +0.120 A 
ATOM     39  N   UNL     1     -36.572  20.208   9.837  0.00  0.00    -0.263 NA
ATOM     40  C   UNL     1     -36.387  18.821   9.740  0.00  0.00    +0.111 A 
ENDBRANCH   4   3
ENDBRANCH  10   9
BRANCH  12  13
ATOM     13  N   UNL     1     -29.844  28.411   9.874  0.00  0.00    -0.281 N 
ATOM     14  C   UNL     1     -30.380  29.600  10.338  0.00  0.00    +0.248 C 
ATOM     30  O   UNL     1     -31.185  30.283   9.722  0.00  0.00    -0.270 OA
ATOM     31  H   UNL     1     -29.045  28.046  10.393  0.00  0.00    +0.155 HD
BRANCH  14  15
ATOM     15  C   UNL     1     -29.951  30.113  11.675  0.00  0.00    +0.037 A 
ATOM     16  C   UNL     1     -30.606  29.666  12.907  0.00  0.00    +0.013 A 
ATOM     17  C   UNL     1     -30.183  30.189  14.182  0.00  0.00    +0.005 A 
ATOM     18  C   UNL     1     -29.097  31.165  14.231  0.00  0.00    -0.033 A 
ATOM     28  C   UNL     1     -28.462  31.588  12.994  0.00  0.00    +0.005 A 
ATOM     29  C   UNL     1     -28.874  31.078  11.742  0.00  0.00    +0.013 A 
BRANCH  18  19
ATOM     19  C   UNL     1     -28.595  31.793  15.545  0.00  0.00    +0.119 C 
BRANCH  19  20
ATOM     20  N   UNL     1     -29.169  31.263  16.818  0.00  0.00    -0.302 NA
ATOM     21  C   UNL     1     -28.939  32.219  17.992  0.00  0.00    +0.066 C 
ATOM     22  C   UNL     1     -29.565  31.660  19.312  0.00  0.00    -0.064 C 
ATOM     23  N   UNL     1     -28.972  30.282  19.610  0.00  0.00    +0.379 N 
ATOM     24  C   UNL     1     -29.515  29.779  20.880  0.00  0.00    -0.096 C 
ATOM     25  H   UNL     1     -27.872  30.408  19.739  0.00  0.00    -0.082 HD
ATOM     26  C   UNL     1     -29.194  29.326  18.446  0.00  0.00    -0.064 C 
ATOM     27  C   UNL     1     -28.594  29.905  17.134  0.00  0.00    +0.066 C 
ENDBRANCH  19  20
ENDBRANCH  18  19
ENDBRANCH  14  15
ENDBRANCH  12  13
TORSDOF 6
ENDMDL
MODEL 3
REMARK VINA RESULT:      -8.1      3.209     11.889
REMARK  Name = C:\Users\Docking\Desktop\test protocol\1iep_ligandH.pdb
REMARK  8 active torsions:
REMARK  status: ('A' for Active; 'I' for Inactive)
REMARK    1  A    between atoms: _5  and  _11
REMARK    2  A    between atoms: _19  and  _21
REMARK    3  A    between atoms: _22  and  _66
REMARK    4  A    between atoms: _27  and  _30
REMARK    5  A    between atoms: _32  and  _33
REMARK    6  A    between atoms: _38  and  _43
REMARK    7  A    between atoms: _43  and  _46
REMARK    8  A    between atoms: _53  and  _55
REMARK                            x       y       z     vdW  Elec       q    Type
REMARK                         _______ _______ _______ _____ _____    ______ ____
ROOT
ATOM     10  C   UNL     1     -33.576  27.042   9.599  0.00  0.00    +0.038 A 
ATOM     11  C   UNL     1     -33.232  25.726  10.000  0.00  0.00    +0.047 A 
ATOM     12  C   UNL     1     -34.018  24.579   9.572  0.00  0.00    +0.035 A 
ATOM     32  C   UNL     1     -35.147  24.809   8.734  0.00  0.00    +0.024 A 
ATOM     33  C   UNL     1     -35.513  26.141   8.318  0.00  0.00    +0.007 A 
ATOM     34  C   UNL     1     -34.742  27.276   8.739  0.00  0.00    -0.029 A 
ATOM     35  C   UNL     1     -35.184  28.681   8.268  0.00  0.00    +0.045 C 
ENDROOT
BRANCH  10   9
ATOM      4  C   UNL     1     -29.729  29.889   9.240  0.00  0.00    +0.077 A 
ATOM      5  C   UNL     1     -29.236  29.179   8.095  0.00  0.00    +0.048 A 
ATOM      6  C   UNL     1     -29.999  28.082   7.634  0.00  0.00    +0.116 A 
ATOM      7  N   UNL     1     -31.166  27.732   8.278  0.00  0.00    -0.223 NA
ATOM      8  C   UNL     1     -31.612  28.437   9.381  0.00  0.00    +0.220 A 
ATOM      9  N   UNL     1     -32.786  28.107  10.039  0.00  0.00    -0.283 N 
ATOM     36  H   UNL     1     -33.077  28.647  10.854  0.00  0.00    +0.155 HD
ATOM     37  N   UNL     1     -30.900  29.487   9.841  0.00  0.00    -0.214 NA
BRANCH   4   3
ATOM      1  C   UNL     1     -27.445  32.131  11.489  0.00  0.00    +0.020 A 
ATOM      2  C   UNL     1     -28.087  30.957  10.943  0.00  0.00    +0.013 A 
ATOM      3  C   UNL     1     -29.036  31.072   9.843  0.00  0.00    +0.019 A 
ATOM     38  C   UNL     1     -29.316  32.398   9.314  0.00  0.00    +0.120 A 
ATOM     39  N   UNL     1     -28.684  33.510   9.862  0.00  0.00    -0.263 NA
ATOM     40  C   UNL     1     -27.770  33.413  10.921  0.00  0.00    +0.111 A 
ENDBRANCH   4   3
ENDBRANCH  10   9
BRANCH  12  13
ATOM     13  N   UNL     1     -33.721  23.221   9.954  0.00  0.00    -0.281 N 
ATOM     14  C   UNL     1     -32.898  22.315   9.306  0.00  0.00    +0.248 C 
ATOM     30  O   UNL     1     -32.457  22.467   8.176  0.00  0.00    -0.270 OA
ATOM     31  H   UNL     1     -34.172  22.887  10.806  0.00  0.00    +0.155 HD
BRANCH  14  15
ATOM     15  C   UNL     1     -32.522  21.050  10.008  0.00  0.00    +0.037 A 
ATOM     16  C   UNL     1     -33.157  19.774   9.667  0.00  0.00    +0.013 A 
ATOM     17  C   UNL     1     -32.788  18.572  10.372  0.00  0.00    +0.005 A 
ATOM     18  C   UNL     1     -31.777  18.641  11.424  0.00  0.00    -0.033 A 
ATOM     28  C   UNL     1     -31.159  19.918  11.738  0.00  0.00    +0.005 A 
ATOM     29  C   UNL     1     -31.519  21.099  11.050  0.00  0.00    +0.013 A 
BRANCH  18  19
ATOM     19  C   UNL     1     -31.336  17.412  12.243  0.00  0.00    +0.119 C 
BRANCH  19  20
ATOM     20  N   UNL     1     -30.375  17.645  13.362  0.00  0.00    -0.302 NA
ATOM     21  C   UNL     1     -28.919  17.547  12.898  0.00  0.00    +0.066 C 
ATOM     22  C   UNL     1     -27.928  17.815  14.077  0.00  0.00    -0.064 C 
ATOM     23  N   UNL     1     -28.204  16.823  15.208  0.00  0.00    +0.379 N 
ATOM     24  C   UNL     1     -27.235  17.034  16.294  0.00  0.00    -0.096 C 
ATOM     25  H   UNL     1     -28.041  15.796  14.805  0.00  0.00    -0.082 HD
ATOM     26  C   UNL     1     -29.651  16.912  15.673  0.00  0.00    -0.064 C 
ATOM     27  C   UNL     1     -30.628  16.673  14.488  0.00  0.00    +0.066 C 
ENDBRANCH  19  20
ENDBRANCH  18  19
ENDBRANCH  14  15
ENDBRANCH  12  13
TORSDOF 6
ENDMDL
MODEL 4
REMARK VINA RESULT:      -8.1      4.367     12.296
REMARK  Name = C:\Users\Docking\Desktop\test protocol\1iep_ligandH.pdb
REMARK  8 active torsions:
REMARK  status: ('A' for Active; 'I' for Inactive)
REMARK    1  A    between atoms: _5  and  _11
REMARK    2  A    between atoms: _19  and  _21
REMARK    3  A    between atoms: _22  and  _66
REMARK    4  A    between atoms: _27  and  _30
REMARK    5  A    between atoms: _32  and  _33
REMARK    6  A    between atoms: _38  and  _43
REMARK    7  A    between atoms: _43  and  _46
REMARK    8  A    between atoms: _53  and  _55
REMARK                            x       y       z     vdW  Elec       q    Type
REMARK                         _______ _______ _______ _____ _____    ______ ____
ROOT
ATOM     10  C   UNL     1     -29.943  27.437   7.350  0.00  0.00    +0.038 A 
ATOM     11  C   UNL     1     -30.602  26.355   7.987  0.00  0.00    +0.047 A 
ATOM     12  C   UNL     1     -29.890  25.132   8.323  0.00  0.00    +0.035 A 
ATOM     32  C   UNL     1     -28.505  25.046   7.997  0.00  0.00    +0.024 A 
ATOM     33  C   UNL     1     -27.819  26.136   7.349  0.00  0.00    +0.007 A 
ATOM     34  C   UNL     1     -28.517  27.344   7.013  0.00  0.00    -0.029 A 
ATOM     35  C   UNL     1     -27.732  28.477   6.312  0.00  0.00    +0.045 C 
ENDROOT
BRANCH  10   9
ATOM      4  C   UNL     1     -32.871  29.972   4.515  0.00  0.00    +0.077 A 
ATOM      5  C   UNL     1     -32.924  28.926   3.535  0.00  0.00    +0.048 A 
ATOM      6  C   UNL     1     -32.179  27.754   3.795  0.00  0.00    +0.116 A 
ATOM      7  N   UNL     1     -31.438  27.648   4.952  0.00  0.00    -0.223 NA
ATOM      8  C   UNL     1     -31.407  28.676   5.876  0.00  0.00    +0.220 A 
ATOM      9  N   UNL     1     -30.675  28.588   7.050  0.00  0.00    -0.283 N 
ATOM     36  H   UNL     1     -30.672  29.371   7.703  0.00  0.00    +0.155 HD
ATOM     37  N   UNL     1     -32.109  29.806   5.650  0.00  0.00    -0.214 NA
BRANCH   4   3
ATOM      1  C   UNL     1     -35.724  32.633   4.231  0.00  0.00    +0.020 A 
ATOM      2  C   UNL     1     -35.062  31.355   4.358  0.00  0.00    +0.013 A 
ATOM      3  C   UNL     1     -33.607  31.269   4.385  0.00  0.00    +0.019 A 
ATOM     38  C   UNL     1     -32.846  32.505   4.282  0.00  0.00    +0.120 A 
ATOM     39  N   UNL     1     -33.510  33.721   4.159  0.00  0.00    -0.263 NA
ATOM     40  C   UNL     1     -34.910  33.816   4.130  0.00  0.00    +0.111 A 
ENDBRANCH   4   3
ENDBRANCH  10   9
BRANCH  12  13
ATOM     13  N   UNL     1     -30.509  23.998   8.962  0.00  0.00    -0.281 N 
ATOM     14  C   UNL     1     -31.358  23.060   8.398  0.00  0.00    +0.248 C 
ATOM     30  O   UNL     1     -31.886  23.177   7.302  0.00  0.00    -0.270 OA
ATOM     31  H   UNL     1     -30.295  23.871   9.952  0.00  0.00    +0.155 HD
BRANCH  14  15
ATOM     15  C   UNL     1     -31.677  21.819   9.167  0.00  0.00    +0.037 A 
ATOM     16  C   UNL     1     -33.049  21.514   9.582  0.00  0.00    +0.013 A 
ATOM     17  C   UNL     1     -33.327  20.318  10.338  0.00  0.00    +0.005 A 
ATOM     18  C   UNL     1     -32.229  19.418  10.683  0.00  0.00    -0.033 A 
ATOM     28  C   UNL     1     -30.879  19.743  10.255  0.00  0.00    +0.005 A 
ATOM     29  C   UNL     1     -30.602  20.914   9.514  0.00  0.00    +0.013 A 
BRANCH  18  19
ATOM     19  C   UNL     1     -32.430  18.131  11.505  0.00  0.00    +0.119 C 
BRANCH  19  20
ATOM     20  N   UNL     1     -31.356  17.765  12.476  0.00  0.00    -0.302 NA
ATOM     21  C   UNL     1     -31.784  16.625  13.404  0.00  0.00    +0.066 C 
ATOM     22  C   UNL     1     -30.640  16.240  14.398  0.00  0.00    -0.064 C 
ATOM     23  N   UNL     1     -30.233  17.473  15.206  0.00  0.00    +0.379 N 
ATOM     24  C   UNL     1     -29.198  17.101  16.181  0.00  0.00    -0.096 C 
ATOM     25  H   UNL     1     -31.129  17.814  15.776  0.00  0.00    -0.082 HD
ATOM     26  C   UNL     1     -29.808  18.612  14.290  0.00  0.00    -0.064 C 
ATOM     27  C   UNL     1     -30.941  18.968  13.288  0.00  0.00    +0.066 C 
ENDBRANCH  19  20
ENDBRANCH  18  19
ENDBRANCH  14  15
ENDBRANCH  12  13
TORSDOF 6
ENDMDL
MODEL 5
REMARK VINA RESULT:      -7.9      3.171      5.924
REMARK  Name = C:\Users\Docking\Desktop\test protocol\1iep_ligandH.pdb
REMARK  8 active torsions:
REMARK  status: ('A' for Active; 'I' for Inactive)
REMARK    1  A    between atoms: _5  and  _11
REMARK    2  A    between atoms: _19  and  _21
REMARK    3  A    between atoms: _22  and  _66
REMARK    4  A    between atoms: _27  and  _30
REMARK    5  A    between atoms: _32  and  _33
REMARK    6  A    between atoms: _38  and  _43
REMARK    7  A    between atoms: _43  and  _46
REMARK    8  A    between atoms: _53  and  _55
REMARK                            x       y       z     vdW  Elec       q    Type
REMARK                         _______ _______ _______ _____ _____    ______ ____
ROOT
ATOM     10  C   UNL     1     -31.335  25.416   8.377  0.00  0.00    +0.038 A 
ATOM     11  C   UNL     1     -31.341  26.239   9.532  0.00  0.00    +0.047 A 
ATOM     12  C   UNL     1     -31.474  27.684   9.425  0.00  0.00    +0.035 A 
ATOM     32  C   UNL     1     -31.601  28.256   8.126  0.00  0.00    +0.024 A 
ATOM     33  C   UNL     1     -31.595  27.434   6.942  0.00  0.00    +0.007 A 
ATOM     34  C   UNL     1     -31.462  26.009   7.041  0.00  0.00    -0.029 A 
ATOM     35  C   UNL     1     -31.456  25.177   5.737  0.00  0.00    +0.045 C 
ENDROOT
BRANCH  10   9
ATOM      4  C   UNL     1     -33.077  21.114   9.602  0.00  0.00    +0.077 A 
ATOM      5  C   UNL     1     -34.346  21.669   9.978  0.00  0.00    +0.048 A 
ATOM      6  C   UNL     1     -34.506  23.067   9.848  0.00  0.00    +0.116 A 
ATOM      7  N   UNL     1     -33.469  23.842   9.375  0.00  0.00    -0.223 NA
ATOM      8  C   UNL     1     -32.258  23.275   9.023  0.00  0.00    +0.220 A 
ATOM      9  N   UNL     1     -31.205  24.034   8.538  0.00  0.00    -0.283 N 
ATOM     36  H   UNL     1     -30.325  23.579   8.296  0.00  0.00    +0.155 HD
ATOM     37  N   UNL     1     -32.079  21.943   9.139  0.00  0.00    -0.214 NA
BRANCH   4   3
ATOM      1  C   UNL     1     -31.150  17.711   9.579  0.00  0.00    +0.020 A 
ATOM      2  C   UNL     1     -31.408  19.130   9.494  0.00  0.00    +0.013 A 
ATOM      3  C   UNL     1     -32.755  19.654   9.679  0.00  0.00    +0.019 A 
ATOM     38  C   UNL     1     -33.827  18.709   9.952  0.00  0.00    +0.120 A 
ATOM     39  N   UNL     1     -33.549  17.348  10.027  0.00  0.00    -0.263 NA
ATOM     40  C   UNL     1     -32.257  16.831   9.849  0.00  0.00    +0.111 A 
ENDBRANCH   4   3
ENDBRANCH  10   9
BRANCH  12  13
ATOM     13  N   UNL     1     -31.478  28.572  10.561  0.00  0.00    -0.281 N 
ATOM     14  C   UNL     1     -32.445  28.688  11.547  0.00  0.00    +0.248 C 
ATOM     30  O   UNL     1     -33.561  28.193  11.483  0.00  0.00    -0.270 OA
ATOM     31  H   UNL     1     -30.671  29.189  10.650  0.00  0.00    +0.155 HD
BRANCH  14  15
ATOM     15  C   UNL     1     -32.132  29.482  12.775  0.00  0.00    +0.037 A 
ATOM     16  C   UNL     1     -33.198  30.063  13.595  0.00  0.00    +0.013 A 
ATOM     17  C   UNL     1     -32.868  30.838  14.765  0.00  0.00    +0.005 A 
ATOM     18  C   UNL     1     -31.465  31.035  15.122  0.00  0.00    -0.033 A 
ATOM     28  C   UNL     1     -30.429  30.443  14.293  0.00  0.00    +0.005 A 
ATOM     29  C   UNL     1     -30.748  29.683  13.145  0.00  0.00    +0.013 A 
BRANCH  18  19
ATOM     19  C   UNL     1     -31.021  31.865  16.340  0.00  0.00    +0.119 C 
BRANCH  19  20
ATOM     20  N   UNL     1     -30.466  31.120  17.510  0.00  0.00    -0.302 NA
ATOM     21  C   UNL     1     -31.393  31.190  18.727  0.00  0.00    +0.066 C 
ATOM     22  C   UNL     1     -30.808  30.387  19.934  0.00  0.00    -0.064 C 
ATOM     23  N   UNL     1     -29.420  30.928  20.279  0.00  0.00    +0.379 N 
ATOM     24  C   UNL     1     -28.892  30.213  21.450  0.00  0.00    -0.096 C 
ATOM     25  H   UNL     1     -29.535  32.000  20.560  0.00  0.00    -0.082 HD
ATOM     26  C   UNL     1     -28.493  30.864  19.073  0.00  0.00    -0.064 C 
ATOM     27  C   UNL     1     -29.097  31.641  17.870  0.00  0.00    +0.066 C 
ENDBRANCH  19  20
ENDBRANCH  18  19
ENDBRANCH  14  15
ENDBRANCH  12  13
TORSDOF 6
ENDMDL
