MODEL 1
REMARK VINA RESULT:      -8.8      0.000      0.000
REMARK  Name = C:\Users\Docking\Desktop\test protocol\1iep_ligandH.pdb
REMARK  8 active torsions:
REMARK  status: ('A' for Active; 'I' for Inactive)
REMARK    1  A    between atoms: _5  and  _11
REMARK    2  A    between atoms: _19  and  _21
REMARK    3  A    between atoms: _22  and  _66
REMARK    4  A    between atoms: _27  and  _30
REMARK    5  A    between atoms: _32  and  _33
REMARK    6  A    between atoms: _38  and  _43
REMARK    7  A    between atoms: _43  and  _46
REMARK    8  A    between atoms: _53  and  _55
REMARK                            x       y       z     vdW  Elec       q    Type
REMARK                         _______ _______ _______ _____ _____    ______ ____
ROOT
ATOM     10  C   UNL     1      17.621  30.075   9.410  0.00  0.00    +0.038 A 
ATOM     11  C   UNL     1      17.404  28.682   9.566  0.00  0.00    +0.047 A 
ATOM     12  C   UNL     1      16.955  27.860   8.453  0.00  0.00    +0.035 A 
ATOM     32  C   UNL     1      16.738  28.490   7.193  0.00  0.00    +0.024 A 
ATOM     33  C   UNL     1      16.953  29.905   7.016  0.00  0.00    +0.007 A 
ATOM     34  C   UNL     1      17.394  30.721   8.111  0.00  0.00    -0.029 A 
ATOM     35  C   UNL     1      17.602  32.233   7.866  0.00  0.00    +0.045 C 
ENDROOT
BRANCH  10   9
ATOM      4  C   UNL     1      17.236  31.469  13.986  0.00  0.00    +0.077 A 
ATOM      5  C   UNL     1      16.058  30.676  14.190  0.00  0.00    +0.048 A 
ATOM      6  C   UNL     1      15.580  29.929  13.090  0.00  0.00    +0.116 A 
ATOM      7  N   UNL     1      16.239  29.979  11.881  0.00  0.00    -0.223 NA
ATOM      8  C   UNL     1      17.371  30.756  11.717  0.00  0.00    +0.220 A 
ATOM      9  N   UNL     1      18.053  30.816  10.512  0.00  0.00    -0.283 N 
ATOM     36  H   UNL     1      18.880  31.407  10.429  0.00  0.00    +0.155 HD
ATOM     37  N   UNL     1      17.846  31.480  12.752  0.00  0.00    -0.214 NA
BRANCH   4   3
ATOM      1  C   UNL     1      18.654  32.703  17.416  0.00  0.00    +0.020 A 
ATOM      2  C   UNL     1      18.040  31.851  16.424  0.00  0.00    +0.013 A 
ATOM      3  C   UNL     1      17.864  32.311  15.053  0.00  0.00    +0.019 A 
ATOM     38  C   UNL     1      18.325  33.649  14.715  0.00  0.00    +0.120 A 
ATOM     39  N   UNL     1      18.911  34.448  15.691  0.00  0.00    -0.263 NA
ATOM     40  C   UNL     1      19.084  34.017  17.015  0.00  0.00    +0.111 A 
ENDBRANCH   4   3
ENDBRANCH  10   9
BRANCH  12  13
ATOM     13  N   UNL     1      16.710  26.443   8.555  0.00  0.00    -0.281 N 
ATOM     14  C   UNL     1      17.590  25.406   8.294  0.00  0.00    +0.248 C 
ATOM     30  O   UNL     1      18.663  25.537   7.724  0.00  0.00    -0.270 OA
ATOM     31  H   UNL     1      15.774  26.172   8.856  0.00  0.00    +0.155 HD
BRANCH  14  15
ATOM     15  C   UNL     1      17.218  24.020   8.713  0.00  0.00    +0.037 A 
ATOM     16  C   UNL     1      18.022  22.863   8.312  0.00  0.00    +0.013 A 
ATOM     17  C   UNL     1      17.632  21.536   8.715  0.00  0.00    +0.005 A 
ATOM     18  C   UNL     1      16.430  21.359   9.527  0.00  0.00    -0.033 A 
ATOM     28  C   UNL     1      15.653  22.524   9.915  0.00  0.00    +0.005 A 
ATOM     29  C   UNL     1      16.032  23.827   9.520  0.00  0.00    +0.013 A 
BRANCH  18  19
ATOM     19  C   UNL     1      15.926  19.977   9.985  0.00  0.00    +0.119 C 
BRANCH  19  20
ATOM     20  N   UNL     1      16.413  19.475  11.305  0.00  0.00    -0.302 NA
ATOM     21  C   UNL     1      17.163  18.147  11.173  0.00  0.00    +0.066 C 
ATOM     22  C   UNL     1      17.684  17.648  12.560  0.00  0.00    -0.064 C 
ATOM     23  N   UNL     1      16.506  17.511  13.526  0.00  0.00    +0.379 N 
ATOM     24  C   UNL     1      16.985  16.987  14.813  0.00  0.00    -0.096 C 
ATOM     25  H   UNL     1      15.801  16.762  13.096  0.00  0.00    -0.082 HD
ATOM     26  C   UNL     1      15.753  18.827  13.661  0.00  0.00    -0.064 C 
ATOM     27  C   UNL     1      15.265  19.329  12.273  0.00  0.00    +0.066 C 
ENDBRANCH  19  20
ENDBRANCH  18  19
ENDBRANCH  14  15
ENDBRANCH  12  13
TORSDOF 6
ENDMDL
MODEL 2
REMARK VINA RESULT:      -8.5     20.494     22.236
REMARK  Name = C:\Users\Docking\Desktop\test protocol\1iep_ligandH.pdb
REMARK  8 active torsions:
REMARK  status: ('A' for Active; 'I' for Inactive)
REMARK    1  A    between atoms: _5  and  _11
REMARK    2  A    between atoms: _19  and  _21
REMARK    3  A    between atoms: _22  and  _66
REMARK    4  A    between atoms: _27  and  _30
REMARK    5  A    between atoms: _32  and  _33
REMARK    6  A    between atoms: _38  and  _43
REMARK    7  A    between atoms: _43  and  _46
REMARK    8  A    between atoms: _53  and  _55
REMARK                            x       y       z     vdW  Elec       q    Type
REMARK                         _______ _______ _______ _____ _____    ______ ____
ROOT
ATOM     10  C   UNL     1      23.108  13.594  -2.189  0.00  0.00    +0.038 A 
ATOM     11  C   UNL     1      21.709  13.407  -2.326  0.00  0.00    +0.047 A 
ATOM     12  C   UNL     1      20.970  14.025  -3.416  0.00  0.00    +0.035 A 
ATOM     32  C   UNL     1      21.690  14.826  -4.350  0.00  0.00    +0.024 A 
ATOM     33  C   UNL     1      23.112  15.028  -4.225  0.00  0.00    +0.007 A 
ATOM     34  C   UNL     1      23.845  14.423  -3.150  0.00  0.00    -0.029 A 
ATOM     35  C   UNL     1      25.367  14.678  -3.061  0.00  0.00    +0.045 C 
ENDROOT
BRANCH  10   9
ATOM      4  C   UNL     1      25.750  10.043  -0.332  0.00  0.00    +0.077 A 
ATOM      5  C   UNL     1      25.800   9.346  -1.585  0.00  0.00    +0.048 A 
ATOM      6  C   UNL     1      25.127   9.931  -2.681  0.00  0.00    +0.116 A 
ATOM      7  N   UNL     1      24.457  11.125  -2.524  0.00  0.00    -0.223 NA
ATOM      8  C   UNL     1      24.427  11.771  -1.302  0.00  0.00    +0.220 A 
ATOM      9  N   UNL     1      23.766  12.976  -1.123  0.00  0.00    -0.283 N 
ATOM     36  H   UNL     1      23.761  13.417  -0.204  0.00  0.00    +0.155 HD
ATOM     37  N   UNL     1      25.061  11.232  -0.239  0.00  0.00    -0.214 NA
BRANCH   4   3
ATOM      1  C   UNL     1      27.683   9.922   3.066  0.00  0.00    +0.020 A 
ATOM      2  C   UNL     1      27.055  10.446   1.875  0.00  0.00    +0.013 A 
ATOM      3  C   UNL     1      26.415   9.554   0.917  0.00  0.00    +0.019 A 
ATOM     38  C   UNL     1      26.426   8.126   1.196  0.00  0.00    +0.120 A 
ATOM     39  N   UNL     1      27.040   7.650   2.351  0.00  0.00    -0.263 NA
ATOM     40  C   UNL     1      27.661   8.499   3.280  0.00  0.00    +0.111 A 
ENDBRANCH   4   3
ENDBRANCH  10   9
BRANCH  12  13
ATOM     13  N   UNL     1      19.548  13.878  -3.602  0.00  0.00    -0.281 N 
ATOM     14  C   UNL     1      18.772  12.752  -3.379  0.00  0.00    +0.248 C 
ATOM     30  O   UNL     1      19.220  11.631  -3.188  0.00  0.00    -0.270 OA
ATOM     31  H   UNL     1      19.053  14.704  -3.940  0.00  0.00    +0.155 HD
BRANCH  14  15
ATOM     15  C   UNL     1      17.284  12.888  -3.384  0.00  0.00    +0.037 A 
ATOM     16  C   UNL     1      16.429  11.908  -2.709  0.00  0.00    +0.013 A 
ATOM     17  C   UNL     1      14.995  12.054  -2.743  0.00  0.00    +0.005 A 
ATOM     18  C   UNL     1      14.407  13.187  -3.454  0.00  0.00    -0.033 A 
ATOM     28  C   UNL     1      15.279  14.147  -4.111  0.00  0.00    +0.005 A 
ATOM     29  C   UNL     1      16.685  14.006  -4.081  0.00  0.00    +0.013 A 
BRANCH  18  19
ATOM     19  C   UNL     1      12.887  13.410  -3.560  0.00  0.00    +0.119 C 
BRANCH  19  20
ATOM     20  N   UNL     1      12.240  13.096  -4.869  0.00  0.00    -0.302 NA
ATOM     21  C   UNL     1      13.102  12.167  -5.728  0.00  0.00    +0.066 C 
ATOM     22  C   UNL     1      12.399  11.831  -7.084  0.00  0.00    -0.064 C 
ATOM     23  N   UNL     1      12.092  13.129  -7.831  0.00  0.00    +0.379 N 
ATOM     24  C   UNL     1      11.484  12.814  -9.132  0.00  0.00    -0.096 C 
ATOM     25  H   UNL     1      13.061  13.645  -8.027  0.00  0.00    -0.082 HD
ATOM     26  C   UNL     1      11.237  14.060  -6.983  0.00  0.00    -0.064 C 
ATOM     27  C   UNL     1      11.931  14.364  -5.626  0.00  0.00    +0.066 C 
ENDBRANCH  19  20
ENDBRANCH  18  19
ENDBRANCH  14  15
ENDBRANCH  12  13
TORSDOF 6
ENDMDL
MODEL 3
REMARK VINA RESULT:      -8.2      5.478     10.626
REMARK  Name = C:\Users\Docking\Desktop\test protocol\1iep_ligandH.pdb
REMARK  8 active torsions:
REMARK  status: ('A' for Active; 'I' for Inactive)
REMARK    1  A    between atoms: _5  and  _11
REMARK    2  A    between atoms: _19  and  _21
REMARK    3  A    between atoms: _22  and  _66
REMARK    4  A    between atoms: _27  and  _30
REMARK    5  A    between atoms: _32  and  _33
REMARK    6  A    between atoms: _38  and  _43
REMARK    7  A    between atoms: _43  and  _46
REMARK    8  A    between atoms: _53  and  _55
REMARK                            x       y       z     vdW  Elec       q    Type
REMARK                         _______ _______ _______ _____ _____    ______ ____
ROOT
ATOM     10  C   UNL     1      17.642  31.046  12.697  0.00  0.00    +0.038 A 
ATOM     11  C   UNL     1      16.559  30.880  13.597  0.00  0.00    +0.047 A 
ATOM     12  C   UNL     1      16.298  31.851  14.648  0.00  0.00    +0.035 A 
ATOM     32  C   UNL     1      17.159  32.982  14.752  0.00  0.00    +0.024 A 
ATOM     33  C   UNL     1      18.265  33.166  13.845  0.00  0.00    +0.007 A 
ATOM     34  C   UNL     1      18.529  32.210  12.808  0.00  0.00    -0.029 A 
ATOM     35  C   UNL     1      19.733  32.455  11.869  0.00  0.00    +0.045 C 
ENDROOT
BRANCH  10   9
ATOM      4  C   UNL     1      16.830  29.228   8.329  0.00  0.00    +0.077 A 
ATOM      5  C   UNL     1      15.900  30.271   8.003  0.00  0.00    +0.048 A 
ATOM      6  C   UNL     1      15.653  31.252   8.990  0.00  0.00    +0.116 A 
ATOM      7  N   UNL     1      16.294  31.185  10.208  0.00  0.00    -0.223 NA
ATOM      8  C   UNL     1      17.184  30.165  10.491  0.00  0.00    +0.220 A 
ATOM      9  N   UNL     1      17.846  30.083  11.706  0.00  0.00    -0.283 N 
ATOM     36  H   UNL     1      18.489  29.310  11.879  0.00  0.00    +0.155 HD
ATOM     37  N   UNL     1      17.435  29.215   9.566  0.00  0.00    -0.214 NA
BRANCH   4   3
ATOM      1  C   UNL     1      17.856  27.241   5.120  0.00  0.00    +0.020 A 
ATOM      2  C   UNL     1      17.506  28.345   5.984  0.00  0.00    +0.013 A 
ATOM      3  C   UNL     1      17.197  28.121   7.391  0.00  0.00    +0.019 A 
ATOM     38  C   UNL     1      17.253  26.758   7.896  0.00  0.00    +0.120 A 
ATOM     39  N   UNL     1      17.592  25.714   7.040  0.00  0.00    -0.263 NA
ATOM     40  C   UNL     1      17.889  25.917   5.684  0.00  0.00    +0.111 A 
ENDBRANCH   4   3
ENDBRANCH  10   9
BRANCH  12  13
ATOM     13  N   UNL     1      15.219  31.730  15.597  0.00  0.00    -0.281 N 
ATOM     14  C   UNL     1      13.875  32.002  15.397  0.00  0.00    +0.248 C 
ATOM     30  O   UNL     1      13.427  32.597  14.428  0.00  0.00    -0.270 OA
ATOM     31  H   UNL     1      15.477  31.406  16.529  0.00  0.00    +0.155 HD
BRANCH  14  15
ATOM     15  C   UNL     1      12.888  31.562  16.429  0.00  0.00    +0.037 A 
ATOM     16  C   UNL     1      11.503  32.040  16.410  0.00  0.00    +0.013 A 
ATOM     17  C   UNL     1      10.576  31.613  17.428  0.00  0.00    +0.005 A 
ATOM     18  C   UNL     1      11.031  30.701  18.474  0.00  0.00    -0.033 A 
ATOM     28  C   UNL     1      12.409  30.237  18.466  0.00  0.00    +0.005 A 
ATOM     29  C   UNL     1      13.321  30.654  17.471  0.00  0.00    +0.013 A 
BRANCH  18  19
ATOM     19  C   UNL     1      10.117  30.210  19.611  0.00  0.00    +0.119 C 
BRANCH  19  20
ATOM     20  N   UNL     1       9.099  29.171  19.271  0.00  0.00    -0.302 NA
ATOM     21  C   UNL     1       9.715  27.988  18.519  0.00  0.00    +0.066 C 
ATOM     22  C   UNL     1       8.641  26.900  18.190  0.00  0.00    -0.064 C 
ATOM     23  N   UNL     1       7.513  27.533  17.373  0.00  0.00    +0.379 N 
ATOM     24  C   UNL     1       6.530  26.500  17.013  0.00  0.00    -0.096 C 
ATOM     25  H   UNL     1       7.957  27.922  16.428  0.00  0.00    -0.082 HD
ATOM     26  C   UNL     1       6.896  28.712  18.113  0.00  0.00    -0.064 C 
ATOM     27  C   UNL     1       7.977  29.773  18.460  0.00  0.00    +0.066 C 
ENDBRANCH  19  20
ENDBRANCH  18  19
ENDBRANCH  14  15
ENDBRANCH  12  13
TORSDOF 6
ENDMDL
MODEL 4
REMARK VINA RESULT:      -8.1     19.069     23.600
REMARK  Name = C:\Users\Docking\Desktop\test protocol\1iep_ligandH.pdb
REMARK  8 active torsions:
REMARK  status: ('A' for Active; 'I' for Inactive)
REMARK    1  A    between atoms: _5  and  _11
REMARK    2  A    between atoms: _19  and  _21
REMARK    3  A    between atoms: _22  and  _66
REMARK    4  A    between atoms: _27  and  _30
REMARK    5  A    between atoms: _32  and  _33
REMARK    6  A    between atoms: _38  and  _43
REMARK    7  A    between atoms: _43  and  _46
REMARK    8  A    between atoms: _53  and  _55
REMARK                            x       y       z     vdW  Elec       q    Type
REMARK                         _______ _______ _______ _____ _____    ______ ____
ROOT
ATOM     10  C   UNL     1      24.380  21.700  28.652  0.00  0.00    +0.038 A 
ATOM     11  C   UNL     1      23.529  22.354  29.579  0.00  0.00    +0.047 A 
ATOM     12  C   UNL     1      23.097  23.726  29.364  0.00  0.00    +0.035 A 
ATOM     32  C   UNL     1      23.548  24.402  28.193  0.00  0.00    +0.024 A 
ATOM     33  C   UNL     1      24.414  23.752  27.241  0.00  0.00    +0.007 A 
ATOM     34  C   UNL     1      24.846  22.399  27.449  0.00  0.00    -0.029 A 
ATOM     35  C   UNL     1      25.780  21.755  26.398  0.00  0.00    +0.045 C 
ENDROOT
BRANCH  10   9
ATOM      4  C   UNL     1      26.577  18.375  31.328  0.00  0.00    +0.077 A 
ATOM      5  C   UNL     1      27.020  19.351  32.282  0.00  0.00    +0.048 A 
ATOM      6  C   UNL     1      26.667  20.698  32.044  0.00  0.00    +0.116 A 
ATOM      7  N   UNL     1      25.926  21.033  30.932  0.00  0.00    -0.223 NA
ATOM      8  C   UNL     1      25.517  20.068  30.030  0.00  0.00    +0.220 A 
ATOM      9  N   UNL     1      24.765  20.382  28.908  0.00  0.00    -0.283 N 
ATOM     36  H   UNL     1      24.489  19.642  28.263  0.00  0.00    +0.155 HD
ATOM     37  N   UNL     1      25.843  18.775  30.234  0.00  0.00    -0.214 NA
BRANCH   4   3
ATOM      1  C   UNL     1      27.058  14.587  30.479  0.00  0.00    +0.020 A 
ATOM      2  C   UNL     1      26.766  15.992  30.315  0.00  0.00    +0.013 A 
ATOM      3  C   UNL     1      26.868  16.911  31.442  0.00  0.00    +0.019 A 
ATOM     38  C   UNL     1      27.273  16.371  32.732  0.00  0.00    +0.120 A 
ATOM     39  N   UNL     1      27.546  15.013  32.860  0.00  0.00    -0.263 NA
ATOM     40  C   UNL     1      27.449  14.119  31.783  0.00  0.00    +0.111 A 
ENDBRANCH   4   3
ENDBRANCH  10   9
BRANCH  12  13
ATOM     13  N   UNL     1      22.240  24.445  30.275  0.00  0.00    -0.281 N 
ATOM     14  C   UNL     1      22.609  25.197  31.378  0.00  0.00    +0.248 C 
ATOM     30  O   UNL     1      23.725  25.191  31.876  0.00  0.00    -0.270 OA
ATOM     31  H   UNL     1      21.239  24.393  30.082  0.00  0.00    +0.155 HD
BRANCH  14  15
ATOM     15  C   UNL     1      21.588  26.072  32.030  0.00  0.00    +0.037 A 
ATOM     16  C   UNL     1      21.904  26.840  33.237  0.00  0.00    +0.013 A 
ATOM     17  C   UNL     1      20.895  27.663  33.856  0.00  0.00    +0.005 A 
ATOM     18  C   UNL     1      19.560  27.723  33.266  0.00  0.00    -0.033 A 
ATOM     28  C   UNL     1      19.275  26.956  32.066  0.00  0.00    +0.005 A 
ATOM     29  C   UNL     1      20.261  26.147  31.457  0.00  0.00    +0.013 A 
BRANCH  18  19
ATOM     19  C   UNL     1      18.416  28.558  33.871  0.00  0.00    +0.119 C 
BRANCH  19  20
ATOM     20  N   UNL     1      17.144  28.640  33.093  0.00  0.00    -0.302 NA
ATOM     21  C   UNL     1      17.054  29.930  32.273  0.00  0.00    +0.066 C 
ATOM     22  C   UNL     1      15.727  29.989  31.448  0.00  0.00    -0.064 C 
ATOM     23  N   UNL     1      14.534  29.867  32.397  0.00  0.00    +0.379 N 
ATOM     24  C   UNL     1      13.284  29.980  31.631  0.00  0.00    -0.096 C 
ATOM     25  H   UNL     1      14.576  30.727  33.106  0.00  0.00    -0.082 HD
ATOM     26  C   UNL     1      14.617  28.588  33.219  0.00  0.00    -0.064 C 
ATOM     27  C   UNL     1      15.952  28.526  34.012  0.00  0.00    +0.066 C 
ENDBRANCH  19  20
ENDBRANCH  18  19
ENDBRANCH  14  15
ENDBRANCH  12  13
TORSDOF 6
ENDMDL
MODEL 5
REMARK VINA RESULT:      -8.0      4.860     11.548
REMARK  Name = C:\Users\Docking\Desktop\test protocol\1iep_ligandH.pdb
REMARK  8 active torsions:
REMARK  status: ('A' for Active; 'I' for Inactive)
REMARK    1  A    between atoms: _5  and  _11
REMARK    2  A    between atoms: _19  and  _21
REMARK    3  A    between atoms: _22  and  _66
REMARK    4  A    between atoms: _27  and  _30
REMARK    5  A    between atoms: _32  and  _33
REMARK    6  A    between atoms: _38  and  _43
REMARK    7  A    between atoms: _43  and  _46
REMARK    8  A    between atoms: _53  and  _55
REMARK                            x       y       z     vdW  Elec       q    Type
REMARK                         _______ _______ _______ _____ _____    ______ ____
ROOT
ATOM     10  C   UNL     1      18.572  32.315  11.135  0.00  0.00    +0.038 A 
ATOM     11  C   UNL     1      18.447  32.045  12.522  0.00  0.00    +0.047 A 
ATOM     12  C   UNL     1      18.317  33.123  13.490  0.00  0.00    +0.035 A 
ATOM     32  C   UNL     1      18.316  34.465  13.010  0.00  0.00    +0.024 A 
ATOM     33  C   UNL     1      18.443  34.758  11.604  0.00  0.00    +0.007 A 
ATOM     34  C   UNL     1      18.574  33.698  10.645  0.00  0.00    -0.029 A 
ATOM     35  C   UNL     1      18.714  34.071   9.151  0.00  0.00    +0.045 C 
ENDROOT
BRANCH  10   9
ATOM      4  C   UNL     1      16.744  28.592   8.720  0.00  0.00    +0.077 A 
ATOM      5  C   UNL     1      15.442  28.785   9.291  0.00  0.00    +0.048 A 
ATOM      6  C   UNL     1      15.286  29.849  10.207  0.00  0.00    +0.116 A 
ATOM      7  N   UNL     1      16.360  30.654  10.522  0.00  0.00    -0.223 NA
ATOM      8  C   UNL     1      17.603  30.439   9.954  0.00  0.00    +0.220 A 
ATOM      9  N   UNL     1      18.694  31.241  10.250  0.00  0.00    -0.283 N 
ATOM     36  H   UNL     1      19.596  31.046   9.816  0.00  0.00    +0.155 HD
ATOM     37  N   UNL     1      17.777  29.429   9.078  0.00  0.00    -0.214 NA
BRANCH   4   3
ATOM      1  C   UNL     1      17.925  26.704   5.505  0.00  0.00    +0.020 A 
ATOM      2  C   UNL     1      17.633  27.783   6.420  0.00  0.00    +0.013 A 
ATOM      3  C   UNL     1      17.065  27.512   7.734  0.00  0.00    +0.019 A 
ATOM     38  C   UNL     1      16.805  26.127   8.096  0.00  0.00    +0.120 A 
ATOM     39  N   UNL     1      17.095  25.108   7.194  0.00  0.00    -0.263 NA
ATOM     40  C   UNL     1      17.640  25.357   5.925  0.00  0.00    +0.111 A 
ENDBRANCH   4   3
ENDBRANCH  10   9
BRANCH  12  13
ATOM     13  N   UNL     1      18.195  32.910  14.911  0.00  0.00    -0.281 N 
ATOM     14  C   UNL     1      17.639  31.822  15.564  0.00  0.00    +0.248 C 
ATOM     30  O   UNL     1      16.967  30.958  15.020  0.00  0.00    -0.270 OA
ATOM     31  H   UNL     1      18.563  33.651  15.507  0.00  0.00    +0.155 HD
BRANCH  14  15
ATOM     15  C   UNL     1      17.849  31.680  17.037  0.00  0.00    +0.037 A 
ATOM     16  C   UNL     1      18.029  30.364  17.656  0.00  0.00    +0.013 A 
ATOM     17  C   UNL     1      18.213  30.254  19.081  0.00  0.00    +0.005 A 
ATOM     18  C   UNL     1      18.219  31.465  19.898  0.00  0.00    -0.033 A 
ATOM     28  C   UNL     1      18.043  32.758  19.258  0.00  0.00    +0.005 A 
ATOM     29  C   UNL     1      17.862  32.870  17.861  0.00  0.00    +0.013 A 
BRANCH  18  19
ATOM     19  C   UNL     1      18.387  31.441  21.429  0.00  0.00    +0.119 C 
BRANCH  19  20
ATOM     20  N   UNL     1      17.195  31.802  22.254  0.00  0.00    -0.302 NA
ATOM     21  C   UNL     1      15.890  31.677  21.463  0.00  0.00    +0.066 C 
ATOM     22  C   UNL     1      14.652  32.038  22.347  0.00  0.00    -0.064 C 
ATOM     23  N   UNL     1      14.818  33.455  22.899  0.00  0.00    +0.379 N 
ATOM     24  C   UNL     1      13.629  33.818  23.683  0.00  0.00    -0.096 C 
ATOM     25  H   UNL     1      14.876  34.151  22.030  0.00  0.00    -0.082 HD
ATOM     26  C   UNL     1      16.115  33.588  23.684  0.00  0.00    -0.064 C 
ATOM     27  C   UNL     1      17.336  33.200  22.805  0.00  0.00    +0.066 C 
ENDBRANCH  19  20
ENDBRANCH  18  19
ENDBRANCH  14  15
ENDBRANCH  12  13
TORSDOF 6
ENDMDL
