MODEL 1
REMARK VINA RESULT:      -7.6      0.000      0.000
REMARK  Name = C:\Users\Docking\Desktop\test protocol\1iep_ligandH.pdb
REMARK  8 active torsions:
REMARK  status: ('A' for Active; 'I' for Inactive)
REMARK    1  A    between atoms: _5  and  _11
REMARK    2  A    between atoms: _19  and  _21
REMARK    3  A    between atoms: _22  and  _66
REMARK    4  A    between atoms: _27  and  _30
REMARK    5  A    between atoms: _32  and  _33
REMARK    6  A    between atoms: _38  and  _43
REMARK    7  A    between atoms: _43  and  _46
REMARK    8  A    between atoms: _53  and  _55
REMARK                            x       y       z     vdW  Elec       q    Type
REMARK                         _______ _______ _______ _____ _____    ______ ____
ROOT
ATOM     10  C   UNL     1     -70.131  10.438   8.593  0.00  0.00    +0.038 A 
ATOM     11  C   UNL     1     -69.449  11.628   8.231  0.00  0.00    +0.047 A 
ATOM     12  C   UNL     1     -68.610  12.336   9.186  0.00  0.00    +0.035 A 
ATOM     32  C   UNL     1     -68.486  11.802  10.501  0.00  0.00    +0.024 A 
ATOM     33  C   UNL     1     -69.172  10.594  10.887  0.00  0.00    +0.007 A 
ATOM     34  C   UNL     1     -70.003   9.893   9.950  0.00  0.00    -0.029 A 
ATOM     35  C   UNL     1     -70.720   8.606  10.421  0.00  0.00    +0.045 C 
ENDROOT
BRANCH  10   9
ATOM      4  C   UNL     1     -70.834   7.076   5.241  0.00  0.00    +0.077 A 
ATOM      5  C   UNL     1     -69.502   6.566   5.389  0.00  0.00    +0.048 A 
ATOM      6  C   UNL     1     -68.665   7.201   6.334  0.00  0.00    +0.116 A 
ATOM      7  N   UNL     1     -69.136   8.266   7.070  0.00  0.00    -0.223 NA
ATOM      8  C   UNL     1     -70.426   8.735   6.901  0.00  0.00    +0.220 A 
ATOM      9  N   UNL     1     -70.923   9.800   7.637  0.00  0.00    -0.283 N 
ATOM     36  H   UNL     1     -71.878  10.121   7.478  0.00  0.00    +0.155 HD
ATOM     37  N   UNL     1     -71.244   8.147   6.005  0.00  0.00    -0.214 NA
BRANCH   4   3
ATOM      1  C   UNL     1     -72.646   4.740   2.679  0.00  0.00    +0.020 A 
ATOM      2  C   UNL     1     -71.644   5.244   3.591  0.00  0.00    +0.013 A 
ATOM      3  C   UNL     1     -71.839   6.510   4.286  0.00  0.00    +0.019 A 
ATOM     38  C   UNL     1     -73.068   7.247   4.036  0.00  0.00    +0.120 A 
ATOM     39  N   UNL     1     -74.014   6.739   3.151  0.00  0.00    -0.263 NA
ATOM     40  C   UNL     1     -73.837   5.522   2.475  0.00  0.00    +0.111 A 
ENDBRANCH   4   3
ENDBRANCH  10   9
BRANCH  12  13
ATOM     13  N   UNL     1     -67.901  13.553   8.877  0.00  0.00    -0.281 N 
ATOM     14  C   UNL     1     -68.398  14.846   8.854  0.00  0.00    +0.248 C 
ATOM     30  O   UNL     1     -69.586  15.130   8.887  0.00  0.00    -0.270 OA
ATOM     31  H   UNL     1     -66.912  13.448   8.648  0.00  0.00    +0.155 HD
BRANCH  14  15
ATOM     15  C   UNL     1     -67.436  15.987   8.767  0.00  0.00    +0.037 A 
ATOM     16  C   UNL     1     -66.532  16.133   7.623  0.00  0.00    +0.013 A 
ATOM     17  C   UNL     1     -65.603  17.234   7.572  0.00  0.00    +0.005 A 
ATOM     18  C   UNL     1     -65.575  18.199   8.669  0.00  0.00    -0.033 A 
ATOM     28  C   UNL     1     -66.486  18.032   9.789  0.00  0.00    +0.005 A 
ATOM     29  C   UNL     1     -67.398  16.954   9.843  0.00  0.00    +0.013 A 
BRANCH  18  19
ATOM     19  C   UNL     1     -64.602  19.392   8.708  0.00  0.00    +0.119 C 
BRANCH  19  20
ATOM     20  N   UNL     1     -63.976  19.721  10.023  0.00  0.00    -0.302 NA
ATOM     21  C   UNL     1     -64.442  21.077  10.558  0.00  0.00    +0.066 C 
ATOM     22  C   UNL     1     -63.795  21.395  11.946  0.00  0.00    -0.064 C 
ATOM     23  N   UNL     1     -62.272  21.360  11.815  0.00  0.00    +0.379 N 
ATOM     24  C   UNL     1     -61.660  21.715  13.104  0.00  0.00    -0.096 C 
ATOM     25  H   UNL     1     -61.978  22.139  11.074  0.00  0.00    -0.082 HD
ATOM     26  C   UNL     1     -61.799  20.015  11.281  0.00  0.00    -0.064 C 
ATOM     27  C   UNL     1     -62.471  19.695   9.916  0.00  0.00    +0.066 C 
ENDBRANCH  19  20
ENDBRANCH  18  19
ENDBRANCH  14  15
ENDBRANCH  12  13
TORSDOF 6
ENDMDL
MODEL 2
REMARK VINA RESULT:      -7.5     29.563     32.955
REMARK  Name = C:\Users\Docking\Desktop\test protocol\1iep_ligandH.pdb
REMARK  8 active torsions:
REMARK  status: ('A' for Active; 'I' for Inactive)
REMARK    1  A    between atoms: _5  and  _11
REMARK    2  A    between atoms: _19  and  _21
REMARK    3  A    between atoms: _22  and  _66
REMARK    4  A    between atoms: _27  and  _30
REMARK    5  A    between atoms: _32  and  _33
REMARK    6  A    between atoms: _38  and  _43
REMARK    7  A    between atoms: _43  and  _46
REMARK    8  A    between atoms: _53  and  _55
REMARK                            x       y       z     vdW  Elec       q    Type
REMARK                         _______ _______ _______ _____ _____    ______ ____
ROOT
ATOM     10  C   UNL     1     -61.471   0.327 -21.704  0.00  0.00    +0.038 A 
ATOM     11  C   UNL     1     -61.249   1.698 -21.415  0.00  0.00    +0.047 A 
ATOM     12  C   UNL     1     -62.246   2.706 -21.740  0.00  0.00    +0.035 A 
ATOM     32  C   UNL     1     -63.459   2.283 -22.358  0.00  0.00    +0.024 A 
ATOM     33  C   UNL     1     -63.700   0.894 -22.660  0.00  0.00    +0.007 A 
ATOM     34  C   UNL     1     -62.720  -0.105 -22.343  0.00  0.00    -0.029 A 
ATOM     35  C   UNL     1     -63.029  -1.579 -22.696  0.00  0.00    +0.045 C 
ENDROOT
BRANCH  10   9
ATOM      4  C   UNL     1     -57.625  -2.332 -22.787  0.00  0.00    +0.077 A 
ATOM      5  C   UNL     1     -57.604  -1.857 -24.141  0.00  0.00    +0.048 A 
ATOM      6  C   UNL     1     -58.605  -0.935 -24.520  0.00  0.00    +0.116 A 
ATOM      7  N   UNL     1     -59.551  -0.525 -23.606  0.00  0.00    -0.223 NA
ATOM      8  C   UNL     1     -59.543  -1.003 -22.308  0.00  0.00    +0.220 A 
ATOM      9  N   UNL     1     -60.480  -0.598 -21.370  0.00  0.00    -0.283 N 
ATOM     36  H   UNL     1     -60.445  -0.980 -20.425  0.00  0.00    +0.155 HD
ATOM     37  N   UNL     1     -58.599  -1.886 -21.922  0.00  0.00    -0.214 NA
BRANCH   4   3
ATOM      1  C   UNL     1     -55.536  -4.545 -20.329  0.00  0.00    +0.020 A 
ATOM      2  C   UNL     1     -56.512  -3.594 -20.811  0.00  0.00    +0.013 A 
ATOM      3  C   UNL     1     -56.631  -3.306 -22.234  0.00  0.00    +0.019 A 
ATOM     38  C   UNL     1     -55.742  -4.003 -23.152  0.00  0.00    +0.120 A 
ATOM     39  N   UNL     1     -54.811  -4.912 -22.658  0.00  0.00    -0.263 NA
ATOM     40  C   UNL     1     -54.686  -5.196 -21.290  0.00  0.00    +0.111 A 
ENDBRANCH   4   3
ENDBRANCH  10   9
BRANCH  12  13
ATOM     13  N   UNL     1     -62.073   4.114 -21.478  0.00  0.00    -0.281 N 
ATOM     14  C   UNL     1     -61.995   4.747 -20.248  0.00  0.00    +0.248 C 
ATOM     30  O   UNL     1     -62.277   4.223 -19.181  0.00  0.00    -0.270 OA
ATOM     31  H   UNL     1     -62.000   4.716 -22.298  0.00  0.00    +0.155 HD
BRANCH  14  15
ATOM     15  C   UNL     1     -61.553   6.174 -20.199  0.00  0.00    +0.037 A 
ATOM     16  C   UNL     1     -61.987   7.067 -19.120  0.00  0.00    +0.013 A 
ATOM     17  C   UNL     1     -61.560   8.443 -19.106  0.00  0.00    +0.005 A 
ATOM     18  C   UNL     1     -60.692   8.936 -20.173  0.00  0.00    -0.033 A 
ATOM     28  C   UNL     1     -60.273   8.027 -21.227  0.00  0.00    +0.005 A 
ATOM     29  C   UNL     1     -60.690   6.678 -21.246  0.00  0.00    +0.013 A 
BRANCH  18  19
ATOM     19  C   UNL     1     -60.205  10.395 -20.249  0.00  0.00    +0.119 C 
BRANCH  19  20
ATOM     20  N   UNL     1     -59.114  10.702 -21.221  0.00  0.00    -0.302 NA
ATOM     21  C   UNL     1     -57.960  11.466 -20.566  0.00  0.00    +0.066 C 
ATOM     22  C   UNL     1     -56.817  11.759 -21.592  0.00  0.00    -0.064 C 
ATOM     23  N   UNL     1     -57.386  12.546 -22.774  0.00  0.00    +0.379 N 
ATOM     24  C   UNL     1     -56.303  12.873 -23.713  0.00  0.00    -0.096 C 
ATOM     25  H   UNL     1     -57.792  13.506 -22.378  0.00  0.00    -0.082 HD
ATOM     26  C   UNL     1     -58.536  11.794 -23.429  0.00  0.00    -0.064 C 
ATOM     27  C   UNL     1     -59.653  11.482 -22.395  0.00  0.00    +0.066 C 
ENDBRANCH  19  20
ENDBRANCH  18  19
ENDBRANCH  14  15
ENDBRANCH  12  13
TORSDOF 6
ENDMDL
MODEL 3
REMARK VINA RESULT:      -7.3     13.592     16.650
REMARK  Name = C:\Users\Docking\Desktop\test protocol\1iep_ligandH.pdb
REMARK  8 active torsions:
REMARK  status: ('A' for Active; 'I' for Inactive)
REMARK    1  A    between atoms: _5  and  _11
REMARK    2  A    between atoms: _19  and  _21
REMARK    3  A    between atoms: _22  and  _66
REMARK    4  A    between atoms: _27  and  _30
REMARK    5  A    between atoms: _32  and  _33
REMARK    6  A    between atoms: _38  and  _43
REMARK    7  A    between atoms: _43  and  _46
REMARK    8  A    between atoms: _53  and  _55
REMARK                            x       y       z     vdW  Elec       q    Type
REMARK                         _______ _______ _______ _____ _____    ______ ____
ROOT
ATOM     10  C   UNL     1     -55.139   7.780  10.346  0.00  0.00    +0.038 A 
ATOM     11  C   UNL     1     -56.308   7.401  11.053  0.00  0.00    +0.047 A 
ATOM     12  C   UNL     1     -57.288   8.390  11.473  0.00  0.00    +0.035 A 
ATOM     32  C   UNL     1     -57.046   9.758  11.153  0.00  0.00    +0.024 A 
ATOM     33  C   UNL     1     -55.862  10.162  10.436  0.00  0.00    +0.007 A 
ATOM     34  C   UNL     1     -54.891   9.190  10.022  0.00  0.00    -0.029 A 
ATOM     35  C   UNL     1     -53.637   9.680   9.261  0.00  0.00    +0.045 C 
ENDROOT
BRANCH  10   9
ATOM      4  C   UNL     1     -51.088   5.285  10.978  0.00  0.00    +0.077 A 
ATOM      5  C   UNL     1     -50.736   6.039  12.147  0.00  0.00    +0.048 A 
ATOM      6  C   UNL     1     -51.620   7.065  12.548  0.00  0.00    +0.116 A 
ATOM      7  N   UNL     1     -52.769   7.310  11.827  0.00  0.00    -0.223 NA
ATOM      8  C   UNL     1     -53.078   6.565  10.703  0.00  0.00    +0.220 A 
ATOM      9  N   UNL     1     -54.231   6.788   9.967  0.00  0.00    -0.283 N 
ATOM     36  H   UNL     1     -54.420   6.222   9.141  0.00  0.00    +0.155 HD
ATOM     37  N   UNL     1     -52.248   5.580  10.299  0.00  0.00    -0.214 NA
BRANCH   4   3
ATOM      1  C   UNL     1     -49.976   1.992   9.183  0.00  0.00    +0.020 A 
ATOM      2  C   UNL     1     -50.823   3.047   9.690  0.00  0.00    +0.013 A 
ATOM      3  C   UNL     1     -50.256   4.166  10.431  0.00  0.00    +0.019 A 
ATOM     38  C   UNL     1     -48.817   4.190  10.642  0.00  0.00    +0.120 A 
ATOM     39  N   UNL     1     -48.026   3.159  10.143  0.00  0.00    -0.263 NA
ATOM     40  C   UNL     1     -48.561   2.076   9.430  0.00  0.00    +0.111 A 
ENDBRANCH   4   3
ENDBRANCH  10   9
BRANCH  12  13
ATOM     13  N   UNL     1     -58.490   8.066  12.200  0.00  0.00    -0.281 N 
ATOM     14  C   UNL     1     -58.612   7.738  13.541  0.00  0.00    +0.248 C 
ATOM     30  O   UNL     1     -57.673   7.465  14.274  0.00  0.00    -0.270 OA
ATOM     31  H   UNL     1     -59.356   8.079  11.661  0.00  0.00    +0.155 HD
BRANCH  14  15
ATOM     15  C   UNL     1     -59.975   7.693  14.152  0.00  0.00    +0.037 A 
ATOM     16  C   UNL     1     -60.828   6.509  14.022  0.00  0.00    +0.013 A 
ATOM     17  C   UNL     1     -62.145   6.499  14.607  0.00  0.00    +0.005 A 
ATOM     18  C   UNL     1     -62.618   7.678  15.329  0.00  0.00    -0.033 A 
ATOM     28  C   UNL     1     -61.749   8.837  15.447  0.00  0.00    +0.005 A 
ATOM     29  C   UNL     1     -60.458   8.851  14.874  0.00  0.00    +0.013 A 
BRANCH  18  19
ATOM     19  C   UNL     1     -64.017   7.763  15.966  0.00  0.00    +0.119 C 
BRANCH  19  20
ATOM     20  N   UNL     1     -64.960   8.780  15.413  0.00  0.00    -0.302 NA
ATOM     21  C   UNL     1     -66.271   8.838  16.202  0.00  0.00    +0.066 C 
ATOM     22  C   UNL     1     -67.236   9.922  15.623  0.00  0.00    -0.064 C 
ATOM     23  N   UNL     1     -67.506   9.626  14.147  0.00  0.00    +0.379 N 
ATOM     24  C   UNL     1     -68.460  10.610  13.615  0.00  0.00    -0.096 C 
ATOM     25  H   UNL     1     -67.987   8.622  14.087  0.00  0.00    -0.082 HD
ATOM     26  C   UNL     1     -66.208   9.563  13.355  0.00  0.00    -0.064 C 
ATOM     27  C   UNL     1     -65.244   8.503  13.957  0.00  0.00    +0.066 C 
ENDBRANCH  19  20
ENDBRANCH  18  19
ENDBRANCH  14  15
ENDBRANCH  12  13
TORSDOF 6
ENDMDL
MODEL 4
REMARK VINA RESULT:      -7.3     29.045     34.394
REMARK  Name = C:\Users\Docking\Desktop\test protocol\1iep_ligandH.pdb
REMARK  8 active torsions:
REMARK  status: ('A' for Active; 'I' for Inactive)
REMARK    1  A    between atoms: _5  and  _11
REMARK    2  A    between atoms: _19  and  _21
REMARK    3  A    between atoms: _22  and  _66
REMARK    4  A    between atoms: _27  and  _30
REMARK    5  A    between atoms: _32  and  _33
REMARK    6  A    between atoms: _38  and  _43
REMARK    7  A    between atoms: _43  and  _46
REMARK    8  A    between atoms: _53  and  _55
REMARK                            x       y       z     vdW  Elec       q    Type
REMARK                         _______ _______ _______ _____ _____    ______ ____
ROOT
ATOM     10  C   UNL     1     -61.639   6.725 -19.876  0.00  0.00    +0.038 A 
ATOM     11  C   UNL     1     -61.170   5.487 -20.383  0.00  0.00    +0.047 A 
ATOM     12  C   UNL     1     -62.033   4.317 -20.430  0.00  0.00    +0.035 A 
ATOM     32  C   UNL     1     -63.370   4.445 -19.954  0.00  0.00    +0.024 A 
ATOM     33  C   UNL     1     -63.864   5.696 -19.434  0.00  0.00    +0.007 A 
ATOM     34  C   UNL     1     -63.016   6.852 -19.384  0.00  0.00    -0.029 A 
ATOM     35  C   UNL     1     -63.597   8.166 -18.810  0.00  0.00    +0.045 C 
ENDROOT
BRANCH  10   9
ATOM      4  C   UNL     1     -59.582  10.540 -21.938  0.00  0.00    +0.077 A 
ATOM      5  C   UNL     1     -60.284  10.326 -23.171  0.00  0.00    +0.048 A 
ATOM      6  C   UNL     1     -61.159   9.219 -23.236  0.00  0.00    +0.116 A 
ATOM      7  N   UNL     1     -61.314   8.394 -22.143  0.00  0.00    -0.223 NA
ATOM      8  C   UNL     1     -60.621   8.628 -20.969  0.00  0.00    +0.220 A 
ATOM      9  N   UNL     1     -60.767   7.816 -19.855  0.00  0.00    -0.283 N 
ATOM     36  H   UNL     1     -60.233   8.018 -19.010  0.00  0.00    +0.155 HD
ATOM     37  N   UNL     1     -59.778   9.678 -20.882  0.00  0.00    -0.214 NA
BRANCH   4   3
ATOM      1  C   UNL     1     -56.802  12.830 -20.412  0.00  0.00    +0.020 A 
ATOM      2  C   UNL     1     -57.707  11.716 -20.582  0.00  0.00    +0.013 A 
ATOM      3  C   UNL     1     -58.625  11.669 -21.713  0.00  0.00    +0.019 A 
ATOM     38  C   UNL     1     -58.602  12.773 -22.661  0.00  0.00    +0.120 A 
ATOM     39  N   UNL     1     -57.720  13.833 -22.470  0.00  0.00    -0.263 NA
ATOM     40  C   UNL     1     -56.834  13.889 -21.385  0.00  0.00    +0.111 A 
ENDBRANCH   4   3
ENDBRANCH  10   9
BRANCH  12  13
ATOM     13  N   UNL     1     -61.609   3.031 -20.926  0.00  0.00    -0.281 N 
ATOM     14  C   UNL     1     -61.340   2.670 -22.236  0.00  0.00    +0.248 C 
ATOM     30  O   UNL     1     -61.631   3.345 -23.212  0.00  0.00    -0.270 OA
ATOM     31  H   UNL     1     -61.493   2.298 -20.226  0.00  0.00    +0.155 HD
BRANCH  14  15
ATOM     15  C   UNL     1     -60.663   1.364 -22.501  0.00  0.00    +0.037 A 
ATOM     16  C   UNL     1     -60.005   1.095 -23.782  0.00  0.00    +0.013 A 
ATOM     17  C   UNL     1     -59.374  -0.179 -24.018  0.00  0.00    +0.005 A 
ATOM     18  C   UNL     1     -59.398  -1.195 -22.968  0.00  0.00    -0.033 A 
ATOM     28  C   UNL     1     -60.053  -0.900 -21.705  0.00  0.00    +0.005 A 
ATOM     29  C   UNL     1     -60.673   0.348 -21.470  0.00  0.00    +0.013 A 
BRANCH  18  19
ATOM     19  C   UNL     1     -58.769  -2.590 -23.140  0.00  0.00    +0.119 C 
BRANCH  19  20
ATOM     20  N   UNL     1     -57.278  -2.667 -23.185  0.00  0.00    -0.302 NA
ATOM     21  C   UNL     1     -56.789  -3.901 -23.949  0.00  0.00    +0.066 C 
ATOM     22  C   UNL     1     -55.228  -3.954 -24.005  0.00  0.00    -0.064 C 
ATOM     23  N   UNL     1     -54.668  -3.941 -22.582  0.00  0.00    +0.379 N 
ATOM     24  C   UNL     1     -53.202  -4.049 -22.630  0.00  0.00    -0.096 C 
ATOM     25  H   UNL     1     -55.057  -4.845 -22.057  0.00  0.00    -0.082 HD
ATOM     26  C   UNL     1     -55.151  -2.718 -21.815  0.00  0.00    -0.064 C 
ATOM     27  C   UNL     1     -56.704  -2.660 -21.790  0.00  0.00    +0.066 C 
ENDBRANCH  19  20
ENDBRANCH  18  19
ENDBRANCH  14  15
ENDBRANCH  12  13
TORSDOF 6
ENDMDL
MODEL 5
REMARK VINA RESULT:      -7.2      6.372      7.649
REMARK  Name = C:\Users\Docking\Desktop\test protocol\1iep_ligandH.pdb
REMARK  8 active torsions:
REMARK  status: ('A' for Active; 'I' for Inactive)
REMARK    1  A    between atoms: _5  and  _11
REMARK    2  A    between atoms: _19  and  _21
REMARK    3  A    between atoms: _22  and  _66
REMARK    4  A    between atoms: _27  and  _30
REMARK    5  A    between atoms: _32  and  _33
REMARK    6  A    between atoms: _38  and  _43
REMARK    7  A    between atoms: _43  and  _46
REMARK    8  A    between atoms: _53  and  _55
REMARK                            x       y       z     vdW  Elec       q    Type
REMARK                         _______ _______ _______ _____ _____    ______ ____
ROOT
ATOM     10  C   UNL     1     -71.823  18.698   2.826  0.00  0.00    +0.038 A 
ATOM     11  C   UNL     1     -70.580  18.533   3.489  0.00  0.00    +0.047 A 
ATOM     12  C   UNL     1     -70.312  19.188   4.760  0.00  0.00    +0.035 A 
ATOM     32  C   UNL     1     -71.334  20.002   5.329  0.00  0.00    +0.024 A 
ATOM     33  C   UNL     1     -72.603  20.182   4.668  0.00  0.00    +0.007 A 
ATOM     34  C   UNL     1     -72.872  19.540   3.413  0.00  0.00    -0.029 A 
ATOM     35  C   UNL     1     -74.248  19.773   2.747  0.00  0.00    +0.045 C 
ENDROOT
BRANCH  10   9
ATOM      4  C   UNL     1     -72.365  14.722   0.193  0.00  0.00    +0.077 A 
ATOM      5  C   UNL     1     -72.203  13.871   1.337  0.00  0.00    +0.048 A 
ATOM      6  C   UNL     1     -71.975  14.496   2.583  0.00  0.00    +0.116 A 
ATOM      7  N   UNL     1     -71.915  15.870   2.668  0.00  0.00    -0.223 NA
ATOM      8  C   UNL     1     -72.074  16.661   1.545  0.00  0.00    +0.220 A 
ATOM      9  N   UNL     1     -72.026  18.045   1.608  0.00  0.00    -0.283 N 
ATOM     36  H   UNL     1     -72.141  18.593   0.756  0.00  0.00    +0.155 HD
ATOM     37  N   UNL     1     -72.292  16.089   0.343  0.00  0.00    -0.214 NA
BRANCH   4   3
ATOM      1  C   UNL     1     -71.923  13.796  -3.582  0.00  0.00    +0.020 A 
ATOM      2  C   UNL     1     -71.631  14.305  -2.262  0.00  0.00    +0.013 A 
ATOM      3  C   UNL     1     -72.616  14.211  -1.192  0.00  0.00    +0.019 A 
ATOM     38  C   UNL     1     -73.897  13.590  -1.493  0.00  0.00    +0.120 A 
ATOM     39  N   UNL     1     -74.151  13.110  -2.774  0.00  0.00    -0.263 NA
ATOM     40  C   UNL     1     -73.211  13.197  -3.812  0.00  0.00    +0.111 A 
ENDBRANCH   4   3
ENDBRANCH  10   9
BRANCH  12  13
ATOM     13  N   UNL     1     -69.066  19.064   5.475  0.00  0.00    -0.281 N 
ATOM     14  C   UNL     1     -68.825  18.376   6.653  0.00  0.00    +0.248 C 
ATOM     30  O   UNL     1     -69.698  17.938   7.388  0.00  0.00    -0.270 OA
ATOM     31  H   UNL     1     -68.265  19.542   5.063  0.00  0.00    +0.155 HD
BRANCH  14  15
ATOM     15  C   UNL     1     -67.411  18.157   7.085  0.00  0.00    +0.037 A 
ATOM     16  C   UNL     1     -66.950  16.841   7.536  0.00  0.00    +0.013 A 
ATOM     17  C   UNL     1     -65.585  16.661   7.963  0.00  0.00    +0.005 A 
ATOM     18  C   UNL     1     -64.671  17.800   7.939  0.00  0.00    -0.033 A 
ATOM     28  C   UNL     1     -65.153  19.093   7.483  0.00  0.00    +0.005 A 
ATOM     29  C   UNL     1     -66.491  19.274   7.064  0.00  0.00    +0.013 A 
BRANCH  18  19
ATOM     19  C   UNL     1     -63.203  17.704   8.397  0.00  0.00    +0.119 C 
BRANCH  19  20
ATOM     20  N   UNL     1     -62.899  18.099   9.805  0.00  0.00    -0.302 NA
ATOM     21  C   UNL     1     -64.128  17.988  10.711  0.00  0.00    +0.066 C 
ATOM     22  C   UNL     1     -63.786  18.384  12.185  0.00  0.00    -0.064 C 
ATOM     23  N   UNL     1     -63.221  19.806  12.210  0.00  0.00    +0.379 N 
ATOM     24  C   UNL     1     -62.953  20.202  13.600  0.00  0.00    -0.096 C 
ATOM     25  H   UNL     1     -64.006  20.488  11.809  0.00  0.00    -0.082 HD
ATOM     26  C   UNL     1     -62.000  19.926  11.309  0.00  0.00    -0.064 C 
ATOM     27  C   UNL     1     -62.344  19.502   9.854  0.00  0.00    +0.066 C 
ENDBRANCH  19  20
ENDBRANCH  18  19
ENDBRANCH  14  15
ENDBRANCH  12  13
TORSDOF 6
ENDMDL
