MODEL 1
REMARK VINA RESULT:      -9.2      0.000      0.000
REMARK  Name = C:\Users\Docking\Desktop\test protocol\1iep_ligandH.pdb
REMARK  8 active torsions:
REMARK  status: ('A' for Active; 'I' for Inactive)
REMARK    1  A    between atoms: _5  and  _11
REMARK    2  A    between atoms: _19  and  _21
REMARK    3  A    between atoms: _22  and  _66
REMARK    4  A    between atoms: _27  and  _30
REMARK    5  A    between atoms: _32  and  _33
REMARK    6  A    between atoms: _38  and  _43
REMARK    7  A    between atoms: _43  and  _46
REMARK    8  A    between atoms: _53  and  _55
REMARK                            x       y       z     vdW  Elec       q    Type
REMARK                         _______ _______ _______ _____ _____    ______ ____
ROOT
ATOM     10  C   UNL     1      -7.921 -14.242   9.172  0.00  0.00    +0.038 A 
ATOM     11  C   UNL     1      -7.143 -13.132   9.588  0.00  0.00    +0.047 A 
ATOM     12  C   UNL     1      -5.703 -13.244   9.760  0.00  0.00    +0.035 A 
ATOM     32  C   UNL     1      -5.087 -14.502   9.496  0.00  0.00    +0.024 A 
ATOM     33  C   UNL     1      -5.862 -15.641   9.073  0.00  0.00    +0.007 A 
ATOM     34  C   UNL     1      -7.283 -15.537   8.904  0.00  0.00    -0.029 A 
ATOM     35  C   UNL     1      -8.065 -16.794   8.455  0.00  0.00    +0.045 C 
ENDROOT
BRANCH  10   9
ATOM      4  C   UNL     1     -12.398 -14.277  10.901  0.00  0.00    +0.077 A 
ATOM      5  C   UNL     1     -11.955 -14.681  12.204  0.00  0.00    +0.048 A 
ATOM      6  C   UNL     1     -10.567 -14.876  12.386  0.00  0.00    +0.116 A 
ATOM      7  N   UNL     1      -9.697 -14.679  11.336  0.00  0.00    -0.223 NA
ATOM      8  C   UNL     1     -10.158 -14.291  10.091  0.00  0.00    +0.220 A 
ATOM      9  N   UNL     1      -9.300 -14.079   9.023  0.00  0.00    -0.283 N 
ATOM     36  H   UNL     1      -9.680 -13.800   8.119  0.00  0.00    +0.155 HD
ATOM     37  N   UNL     1     -11.478 -14.099   9.892  0.00  0.00    -0.214 NA
BRANCH   4   3
ATOM      1  C   UNL     1     -16.218 -13.475  11.162  0.00  0.00    +0.020 A 
ATOM      2  C   UNL     1     -14.846 -13.707  11.551  0.00  0.00    +0.013 A 
ATOM      3  C   UNL     1     -13.833 -14.027  10.553  0.00  0.00    +0.019 A 
ATOM     38  C   UNL     1     -14.244 -14.104   9.159  0.00  0.00    +0.120 A 
ATOM     39  N   UNL     1     -15.572 -13.877   8.815  0.00  0.00    -0.263 NA
ATOM     40  C   UNL     1     -16.556 -13.570   9.766  0.00  0.00    +0.111 A 
ENDBRANCH   4   3
ENDBRANCH  10   9
BRANCH  12  13
ATOM     13  N   UNL     1      -4.863 -12.153  10.188  0.00  0.00    -0.281 N 
ATOM     14  C   UNL     1      -4.867 -11.505  11.412  0.00  0.00    +0.248 C 
ATOM     30  O   UNL     1      -5.743 -11.625  12.255  0.00  0.00    -0.270 OA
ATOM     31  H   UNL     1      -4.183 -11.818   9.506  0.00  0.00    +0.155 HD
BRANCH  14  15
ATOM     15  C   UNL     1      -3.741 -10.578  11.742  0.00  0.00    +0.037 A 
ATOM     16  C   UNL     1      -2.371 -11.072  11.898  0.00  0.00    +0.013 A 
ATOM     17  C   UNL     1      -1.307 -10.160  12.233  0.00  0.00    +0.005 A 
ATOM     18  C   UNL     1      -1.609  -8.742  12.414  0.00  0.00    -0.033 A 
ATOM     28  C   UNL     1      -2.977  -8.278  12.248  0.00  0.00    +0.005 A 
ATOM     29  C   UNL     1      -4.023  -9.170  11.921  0.00  0.00    +0.013 A 
BRANCH  18  19
ATOM     19  C   UNL     1      -0.540  -7.700  12.793  0.00  0.00    +0.119 C 
BRANCH  19  20
ATOM     20  N   UNL     1      -0.064  -6.785  11.713  0.00  0.00    -0.302 NA
ATOM     21  C   UNL     1      -1.031  -5.622  11.478  0.00  0.00    +0.066 C 
ATOM     22  C   UNL     1      -0.506  -4.662  10.360  0.00  0.00    -0.064 C 
ATOM     23  N   UNL     1      -0.289  -5.456   9.071  0.00  0.00    +0.379 N 
ATOM     24  C   UNL     1       0.149  -4.546   8.003  0.00  0.00    -0.096 C 
ATOM     25  H   UNL     1      -1.273  -5.884   8.768  0.00  0.00    -0.082 HD
ATOM     26  C   UNL     1       0.670  -6.616   9.297  0.00  0.00    -0.064 C 
ATOM     27  C   UNL     1       0.153  -7.547  10.429  0.00  0.00    +0.066 C 
ENDBRANCH  19  20
ENDBRANCH  18  19
ENDBRANCH  14  15
ENDBRANCH  12  13
TORSDOF 6
ENDMDL
MODEL 2
REMARK VINA RESULT:      -9.0      5.111     13.122
REMARK  Name = C:\Users\Docking\Desktop\test protocol\1iep_ligandH.pdb
REMARK  8 active torsions:
REMARK  status: ('A' for Active; 'I' for Inactive)
REMARK    1  A    between atoms: _5  and  _11
REMARK    2  A    between atoms: _19  and  _21
REMARK    3  A    between atoms: _22  and  _66
REMARK    4  A    between atoms: _27  and  _30
REMARK    5  A    between atoms: _32  and  _33
REMARK    6  A    between atoms: _38  and  _43
REMARK    7  A    between atoms: _43  and  _46
REMARK    8  A    between atoms: _53  and  _55
REMARK                            x       y       z     vdW  Elec       q    Type
REMARK                         _______ _______ _______ _____ _____    ______ ____
ROOT
ATOM     10  C   UNL     1      -5.833 -12.137  11.375  0.00  0.00    +0.038 A 
ATOM     11  C   UNL     1      -6.235 -13.267  12.132  0.00  0.00    +0.047 A 
ATOM     12  C   UNL     1      -6.715 -14.476  11.482  0.00  0.00    +0.035 A 
ATOM     32  C   UNL     1      -6.771 -14.500  10.058  0.00  0.00    +0.024 A 
ATOM     33  C   UNL     1      -6.368 -13.360   9.273  0.00  0.00    +0.007 A 
ATOM     34  C   UNL     1      -5.895 -12.164   9.909  0.00  0.00    -0.029 A 
ATOM     35  C   UNL     1      -5.482 -10.970   9.017  0.00  0.00    +0.045 C 
ENDROOT
BRANCH  10   9
ATOM      4  C   UNL     1      -2.323  -9.408  13.184  0.00  0.00    +0.077 A 
ATOM      5  C   UNL     1      -1.309 -10.334  12.771  0.00  0.00    +0.048 A 
ATOM      6  C   UNL     1      -1.733 -11.505  12.102  0.00  0.00    +0.116 A 
ATOM      7  N   UNL     1      -3.074 -11.721  11.869  0.00  0.00    -0.223 NA
ATOM      8  C   UNL     1      -4.026 -10.808  12.282  0.00  0.00    +0.220 A 
ATOM      9  N   UNL     1      -5.379 -11.002  12.051  0.00  0.00    -0.283 N 
ATOM     36  H   UNL     1      -6.051 -10.308  12.379  0.00  0.00    +0.155 HD
ATOM     37  N   UNL     1      -3.647  -9.684  12.924  0.00  0.00    -0.214 NA
BRANCH   4   3
ATOM      1  C   UNL     1      -1.829  -6.726  15.988  0.00  0.00    +0.020 A 
ATOM      2  C   UNL     1      -2.121  -7.987  15.347  0.00  0.00    +0.013 A 
ATOM      3  C   UNL     1      -2.033  -8.125  13.899  0.00  0.00    +0.019 A 
ATOM     38  C   UNL     1      -1.644  -6.957  13.122  0.00  0.00    +0.120 A 
ATOM     39  N   UNL     1      -1.371  -5.755  13.767  0.00  0.00    -0.263 NA
ATOM     40  C   UNL     1      -1.454  -5.610  15.160  0.00  0.00    +0.111 A 
ENDBRANCH   4   3
ENDBRANCH  10   9
BRANCH  12  13
ATOM     13  N   UNL     1      -7.145 -15.651  12.198  0.00  0.00    -0.281 N 
ATOM     14  C   UNL     1      -6.375 -16.506  12.971  0.00  0.00    +0.248 C 
ATOM     30  O   UNL     1      -5.153 -16.510  12.989  0.00  0.00    -0.270 OA
ATOM     31  H   UNL     1      -8.136 -15.881  12.128  0.00  0.00    +0.155 HD
BRANCH  14  15
ATOM     15  C   UNL     1      -7.062 -17.511  13.837  0.00  0.00    +0.037 A 
ATOM     16  C   UNL     1      -8.514 -17.481  14.032  0.00  0.00    +0.013 A 
ATOM     17  C   UNL     1      -9.149 -18.453  14.887  0.00  0.00    +0.005 A 
ATOM     18  C   UNL     1      -8.332 -19.464  15.553  0.00  0.00    -0.033 A 
ATOM     28  C   UNL     1      -6.894 -19.474  15.338  0.00  0.00    +0.005 A 
ATOM     29  C   UNL     1      -6.268 -18.523  14.502  0.00  0.00    +0.013 A 
BRANCH  18  19
ATOM     19  C   UNL     1      -8.922 -20.526  16.499  0.00  0.00    +0.119 C 
BRANCH  19  20
ATOM     20  N   UNL     1      -9.780 -21.585  15.888  0.00  0.00    -0.302 NA
ATOM     21  C   UNL     1     -11.262 -21.383  16.216  0.00  0.00    +0.066 C 
ATOM     22  C   UNL     1     -12.148 -22.487  15.551  0.00  0.00    -0.064 C 
ATOM     23  N   UNL     1     -11.673 -23.865  16.014  0.00  0.00    +0.379 N 
ATOM     24  C   UNL     1     -12.540 -24.902  15.436  0.00  0.00    -0.096 C 
ATOM     25  H   UNL     1     -11.788 -23.907  17.122  0.00  0.00    -0.082 HD
ATOM     26  C   UNL     1     -10.199 -24.073  15.694  0.00  0.00    -0.064 C 
ATOM     27  C   UNL     1      -9.332 -22.954  16.336  0.00  0.00    +0.066 C 
ENDBRANCH  19  20
ENDBRANCH  18  19
ENDBRANCH  14  15
ENDBRANCH  12  13
TORSDOF 6
ENDMDL
MODEL 3
REMARK VINA RESULT:      -9.0      1.347      1.956
REMARK  Name = C:\Users\Docking\Desktop\test protocol\1iep_ligandH.pdb
REMARK  8 active torsions:
REMARK  status: ('A' for Active; 'I' for Inactive)
REMARK    1  A    between atoms: _5  and  _11
REMARK    2  A    between atoms: _19  and  _21
REMARK    3  A    between atoms: _22  and  _66
REMARK    4  A    between atoms: _27  and  _30
REMARK    5  A    between atoms: _32  and  _33
REMARK    6  A    between atoms: _38  and  _43
REMARK    7  A    between atoms: _43  and  _46
REMARK    8  A    between atoms: _53  and  _55
REMARK                            x       y       z     vdW  Elec       q    Type
REMARK                         _______ _______ _______ _____ _____    ______ ____
ROOT
ATOM     10  C   UNL     1      -7.936 -14.397   9.579  0.00  0.00    +0.038 A 
ATOM     11  C   UNL     1      -7.150 -13.285   9.976  0.00  0.00    +0.047 A 
ATOM     12  C   UNL     1      -5.699 -13.312   9.867  0.00  0.00    +0.035 A 
ATOM     32  C   UNL     1      -5.083 -14.487   9.346  0.00  0.00    +0.024 A 
ATOM     33  C   UNL     1      -5.866 -15.626   8.938  0.00  0.00    +0.007 A 
ATOM     34  C   UNL     1      -7.297 -15.606   9.046  0.00  0.00    -0.029 A 
ATOM     35  C   UNL     1      -8.087 -16.859   8.600  0.00  0.00    +0.045 C 
ENDROOT
BRANCH  10   9
ATOM      4  C   UNL     1     -12.316 -13.659   7.760  0.00  0.00    +0.077 A 
ATOM      5  C   UNL     1     -11.792 -13.383   6.454  0.00  0.00    +0.048 A 
ATOM      6  C   UNL     1     -10.389 -13.434   6.294  0.00  0.00    +0.116 A 
ATOM      7  N   UNL     1      -9.580 -13.740   7.367  0.00  0.00    -0.223 NA
ATOM      8  C   UNL     1     -10.118 -13.999   8.614  0.00  0.00    +0.220 A 
ATOM      9  N   UNL     1      -9.324 -14.317   9.705  0.00  0.00    -0.283 N 
ATOM     36  H   UNL     1      -9.759 -14.494  10.611  0.00  0.00    +0.155 HD
ATOM     37  N   UNL     1     -11.455 -13.955   8.793  0.00  0.00    -0.214 NA
BRANCH   4   3
ATOM      1  C   UNL     1     -16.084 -12.633   7.978  0.00  0.00    +0.020 A 
ATOM      2  C   UNL     1     -14.681 -12.597   7.635  0.00  0.00    +0.013 A 
ATOM      3  C   UNL     1     -13.777 -13.646   8.088  0.00  0.00    +0.019 A 
ATOM     38  C   UNL     1     -14.328 -14.726   8.892  0.00  0.00    +0.120 A 
ATOM     39  N   UNL     1     -15.683 -14.733   9.208  0.00  0.00    -0.263 NA
ATOM     40  C   UNL     1     -16.563 -13.728   8.780  0.00  0.00    +0.111 A 
ENDBRANCH   4   3
ENDBRANCH  10   9
BRANCH  12  13
ATOM     13  N   UNL     1      -4.848 -12.217  10.263  0.00  0.00    -0.281 N 
ATOM     14  C   UNL     1      -4.863 -11.515  11.457  0.00  0.00    +0.248 C 
ATOM     30  O   UNL     1      -5.757 -11.584  12.288  0.00  0.00    -0.270 OA
ATOM     31  H   UNL     1      -4.151 -11.924   9.579  0.00  0.00    +0.155 HD
BRANCH  14  15
ATOM     15  C   UNL     1      -3.728 -10.593  11.767  0.00  0.00    +0.037 A 
ATOM     16  C   UNL     1      -2.359 -11.095  11.912  0.00  0.00    +0.013 A 
ATOM     17  C   UNL     1      -1.286 -10.187  12.228  0.00  0.00    +0.005 A 
ATOM     18  C   UNL     1      -1.577  -8.766  12.399  0.00  0.00    -0.033 A 
ATOM     28  C   UNL     1      -2.943  -8.294  12.244  0.00  0.00    +0.005 A 
ATOM     29  C   UNL     1      -3.998  -9.182  11.936  0.00  0.00    +0.013 A 
BRANCH  18  19
ATOM     19  C   UNL     1      -0.497  -7.728  12.758  0.00  0.00    +0.119 C 
BRANCH  19  20
ATOM     20  N   UNL     1      -0.028  -6.824  11.665  0.00  0.00    -0.302 NA
ATOM     21  C   UNL     1      -0.978  -5.643  11.448  0.00  0.00    +0.066 C 
ATOM     22  C   UNL     1      -0.460  -4.696  10.317  0.00  0.00    -0.064 C 
ATOM     23  N   UNL     1      -0.287  -5.496   9.025  0.00  0.00    +0.379 N 
ATOM     24  C   UNL     1       0.144  -4.597   7.945  0.00  0.00    -0.096 C 
ATOM     25  H   UNL     1      -1.285  -5.907   8.746  0.00  0.00    -0.082 HD
ATOM     26  C   UNL     1       0.655  -6.674   9.233  0.00  0.00    -0.064 C 
ATOM     27  C   UNL     1       0.146  -7.593  10.379  0.00  0.00    +0.066 C 
ENDBRANCH  19  20
ENDBRANCH  18  19
ENDBRANCH  14  15
ENDBRANCH  12  13
TORSDOF 6
ENDMDL
MODEL 4
REMARK VINA RESULT:      -9.0      2.103      2.411
REMARK  Name = C:\Users\Docking\Desktop\test protocol\1iep_ligandH.pdb
REMARK  8 active torsions:
REMARK  status: ('A' for Active; 'I' for Inactive)
REMARK    1  A    between atoms: _5  and  _11
REMARK    2  A    between atoms: _19  and  _21
REMARK    3  A    between atoms: _22  and  _66
REMARK    4  A    between atoms: _27  and  _30
REMARK    5  A    between atoms: _32  and  _33
REMARK    6  A    between atoms: _38  and  _43
REMARK    7  A    between atoms: _43  and  _46
REMARK    8  A    between atoms: _53  and  _55
REMARK                            x       y       z     vdW  Elec       q    Type
REMARK                         _______ _______ _______ _____ _____    ______ ____
ROOT
ATOM     10  C   UNL     1      -7.753 -14.423  10.245  0.00  0.00    +0.038 A 
ATOM     11  C   UNL     1      -6.935 -13.319  10.597  0.00  0.00    +0.047 A 
ATOM     12  C   UNL     1      -5.597 -13.169  10.047  0.00  0.00    +0.035 A 
ATOM     32  C   UNL     1      -5.124 -14.160   9.139  0.00  0.00    +0.024 A 
ATOM     33  C   UNL     1      -5.941 -15.289   8.771  0.00  0.00    +0.007 A 
ATOM     34  C   UNL     1      -7.261 -15.445   9.312  0.00  0.00    -0.029 A 
ATOM     35  C   UNL     1      -8.091 -16.679   8.887  0.00  0.00    +0.045 C 
ENDROOT
BRANCH  10   9
ATOM      4  C   UNL     1     -10.731 -14.534  14.007  0.00  0.00    +0.077 A 
ATOM      5  C   UNL     1      -9.649 -14.419  14.942  0.00  0.00    +0.048 A 
ATOM      6  C   UNL     1      -8.341 -14.342  14.414  0.00  0.00    +0.116 A 
ATOM      7  N   UNL     1      -8.141 -14.377  13.051  0.00  0.00    -0.223 NA
ATOM      8  C   UNL     1      -9.207 -14.489  12.177  0.00  0.00    +0.220 A 
ATOM      9  N   UNL     1      -9.030 -14.518  10.802  0.00  0.00    -0.283 N 
ATOM     36  H   UNL     1      -9.841 -14.610  10.191  0.00  0.00    +0.155 HD
ATOM     37  N   UNL     1     -10.466 -14.566  12.656  0.00  0.00    -0.214 NA
BRANCH   4   3
ATOM      1  C   UNL     1     -14.118 -14.012  15.892  0.00  0.00    +0.020 A 
ATOM      2  C   UNL     1     -12.721 -13.892  15.545  0.00  0.00    +0.013 A 
ATOM      3  C   UNL     1     -12.170 -14.622  14.410  0.00  0.00    +0.019 A 
ATOM     38  C   UNL     1     -13.067 -15.470  13.641  0.00  0.00    +0.120 A 
ATOM     39  N   UNL     1     -14.408 -15.567  13.999  0.00  0.00    -0.263 NA
ATOM     40  C   UNL     1     -14.949 -14.871  15.090  0.00  0.00    +0.111 A 
ENDBRANCH   4   3
ENDBRANCH  10   9
BRANCH  12  13
ATOM     13  N   UNL     1      -4.718 -12.073  10.374  0.00  0.00    -0.281 N 
ATOM     14  C   UNL     1      -4.731 -11.281  11.511  0.00  0.00    +0.248 C 
ATOM     30  O   UNL     1      -5.640 -11.258  12.327  0.00  0.00    -0.270 OA
ATOM     31  H   UNL     1      -3.999 -11.855   9.684  0.00  0.00    +0.155 HD
BRANCH  14  15
ATOM     15  C   UNL     1      -3.572 -10.374  11.772  0.00  0.00    +0.037 A 
ATOM     16  C   UNL     1      -2.210 -10.898  11.901  0.00  0.00    +0.013 A 
ATOM     17  C   UNL     1      -1.113 -10.003  12.170  0.00  0.00    +0.005 A 
ATOM     18  C   UNL     1      -1.374  -8.572  12.309  0.00  0.00    -0.033 A 
ATOM     28  C   UNL     1      -2.734  -8.078  12.170  0.00  0.00    +0.005 A 
ATOM     29  C   UNL     1      -3.812  -8.953  11.908  0.00  0.00    +0.013 A 
BRANCH  18  19
ATOM     19  C   UNL     1      -0.267  -7.546  12.616  0.00  0.00    +0.119 C 
BRANCH  19  20
ATOM     20  N   UNL     1       0.159  -6.646  11.504  0.00  0.00    -0.302 NA
ATOM     21  C   UNL     1      -0.806  -5.472  11.314  0.00  0.00    +0.066 C 
ATOM     22  C   UNL     1      -0.333  -4.527  10.161  0.00  0.00    -0.064 C 
ATOM     23  N   UNL     1      -0.199  -5.333   8.868  0.00  0.00    +0.379 N 
ATOM     24  C   UNL     1       0.189  -4.437   7.769  0.00  0.00    -0.096 C 
ATOM     25  H   UNL     1      -1.204  -5.751   8.625  0.00  0.00    -0.082 HD
ATOM     26  C   UNL     1       0.756  -6.504   9.049  0.00  0.00    -0.064 C 
ATOM     27  C   UNL     1       0.293  -7.420  10.216  0.00  0.00    +0.066 C 
ENDBRANCH  19  20
ENDBRANCH  18  19
ENDBRANCH  14  15
ENDBRANCH  12  13
TORSDOF 6
ENDMDL
MODEL 5
REMARK VINA RESULT:      -8.8      1.894      2.509
REMARK  Name = C:\Users\Docking\Desktop\test protocol\1iep_ligandH.pdb
REMARK  8 active torsions:
REMARK  status: ('A' for Active; 'I' for Inactive)
REMARK    1  A    between atoms: _5  and  _11
REMARK    2  A    between atoms: _19  and  _21
REMARK    3  A    between atoms: _22  and  _66
REMARK    4  A    between atoms: _27  and  _30
REMARK    5  A    between atoms: _32  and  _33
REMARK    6  A    between atoms: _38  and  _43
REMARK    7  A    between atoms: _43  and  _46
REMARK    8  A    between atoms: _53  and  _55
REMARK                            x       y       z     vdW  Elec       q    Type
REMARK                         _______ _______ _______ _____ _____    ______ ____
ROOT
ATOM     10  C   UNL     1      -7.845 -14.603  10.066  0.00  0.00    +0.038 A 
ATOM     11  C   UNL     1      -7.082 -13.481  10.479  0.00  0.00    +0.047 A 
ATOM     12  C   UNL     1      -5.717 -13.287  10.016  0.00  0.00    +0.035 A 
ATOM     32  C   UNL     1      -5.160 -14.255   9.130  0.00  0.00    +0.024 A 
ATOM     33  C   UNL     1      -5.920 -15.402   8.701  0.00  0.00    +0.007 A 
ATOM     34  C   UNL     1      -7.267 -15.600   9.156  0.00  0.00    -0.029 A 
ATOM     35  C   UNL     1      -8.033 -16.852   8.668  0.00  0.00    +0.045 C 
ENDROOT
BRANCH  10   9
ATOM      4  C   UNL     1     -11.027 -16.128  13.319  0.00  0.00    +0.077 A 
ATOM      5  C   UNL     1     -10.004 -16.727  14.126  0.00  0.00    +0.048 A 
ATOM      6  C   UNL     1      -8.672 -16.626  13.666  0.00  0.00    +0.116 A 
ATOM      7  N   UNL     1      -8.396 -15.973  12.484  0.00  0.00    -0.223 NA
ATOM      8  C   UNL     1      -9.407 -15.408  11.728  0.00  0.00    +0.220 A 
ATOM      9  N   UNL     1      -9.151 -14.740  10.541  0.00  0.00    -0.283 N 
ATOM     36  H   UNL     1      -9.925 -14.343  10.009  0.00  0.00    +0.155 HD
ATOM     37  N   UNL     1     -10.687 -15.492  12.146  0.00  0.00    -0.214 NA
BRANCH   4   3
ATOM      1  C   UNL     1     -14.811 -15.183  13.612  0.00  0.00    +0.020 A 
ATOM      2  C   UNL     1     -13.416 -15.116  13.243  0.00  0.00    +0.013 A 
ATOM      3  C   UNL     1     -12.482 -16.148  13.673  0.00  0.00    +0.019 A 
ATOM     38  C   UNL     1     -12.995 -17.243  14.483  0.00  0.00    +0.120 A 
ATOM     39  N   UNL     1     -14.343 -17.280  14.825  0.00  0.00    -0.263 NA
ATOM     40  C   UNL     1     -15.252 -16.291  14.417  0.00  0.00    +0.111 A 
ENDBRANCH   4   3
ENDBRANCH  10   9
BRANCH  12  13
ATOM     13  N   UNL     1      -4.892 -12.171  10.409  0.00  0.00    -0.281 N 
ATOM     14  C   UNL     1      -4.863 -11.522  11.632  0.00  0.00    +0.248 C 
ATOM     30  O   UNL     1      -5.699 -11.667  12.512  0.00  0.00    -0.270 OA
ATOM     31  H   UNL     1      -4.252 -11.817   9.698  0.00  0.00    +0.155 HD
BRANCH  14  15
ATOM     15  C   UNL     1      -3.752 -10.563  11.914  0.00  0.00    +0.037 A 
ATOM     16  C   UNL     1      -3.993  -9.119  11.975  0.00  0.00    +0.013 A 
ATOM     17  C   UNL     1      -2.900  -8.214  12.232  0.00  0.00    +0.005 A 
ATOM     18  C   UNL     1      -1.557  -8.751  12.431  0.00  0.00    -0.033 A 
ATOM     28  C   UNL     1      -1.347 -10.188  12.371  0.00  0.00    +0.005 A 
ATOM     29  C   UNL     1      -2.415 -11.078  12.118  0.00  0.00    +0.013 A 
BRANCH  18  19
ATOM     19  C   UNL     1      -0.329  -7.859  12.689  0.00  0.00    +0.119 C 
BRANCH  19  20
ATOM     20  N   UNL     1       0.116  -6.968  11.576  0.00  0.00    -0.302 NA
ATOM     21  C   UNL     1      -0.822  -5.772  11.387  0.00  0.00    +0.066 C 
ATOM     22  C   UNL     1      -0.330  -4.839  10.234  0.00  0.00    -0.064 C 
ATOM     23  N   UNL     1      -0.217  -5.648   8.940  0.00  0.00    +0.379 N 
ATOM     24  C   UNL     1       0.189  -4.761   7.841  0.00  0.00    -0.096 C 
ATOM     25  H   UNL     1      -1.232  -6.043   8.699  0.00  0.00    -0.082 HD
ATOM     26  C   UNL     1       0.711  -6.841   9.120  0.00  0.00    -0.064 C 
ATOM     27  C   UNL     1       0.230  -7.746  10.288  0.00  0.00    +0.066 C 
ENDBRANCH  19  20
ENDBRANCH  18  19
ENDBRANCH  14  15
ENDBRANCH  12  13
TORSDOF 6
ENDMDL
