MODEL 1
REMARK VINA RESULT:      -8.8      0.000      0.000
REMARK  Name = C:\Users\Docking\Desktop\test protocol\1iep_ligandH.pdb
REMARK  8 active torsions:
REMARK  status: ('A' for Active; 'I' for Inactive)
REMARK    1  A    between atoms: _5  and  _11
REMARK    2  A    between atoms: _19  and  _21
REMARK    3  A    between atoms: _22  and  _66
REMARK    4  A    between atoms: _27  and  _30
REMARK    5  A    between atoms: _32  and  _33
REMARK    6  A    between atoms: _38  and  _43
REMARK    7  A    between atoms: _43  and  _46
REMARK    8  A    between atoms: _53  and  _55
REMARK                            x       y       z     vdW  Elec       q    Type
REMARK                         _______ _______ _______ _____ _____    ______ ____
ROOT
ATOM     10  C   UNL     1      -5.903 -12.144  11.525  0.00  0.00    +0.038 A 
ATOM     11  C   UNL     1      -6.205 -13.152  12.476  0.00  0.00    +0.047 A 
ATOM     12  C   UNL     1      -6.669 -14.466  12.058  0.00  0.00    +0.035 A 
ATOM     32  C   UNL     1      -6.809 -14.720  10.663  0.00  0.00    +0.024 A 
ATOM     33  C   UNL     1      -6.507 -13.707   9.682  0.00  0.00    +0.007 A 
ATOM     34  C   UNL     1      -6.052 -12.408  10.089  0.00  0.00    -0.029 A 
ATOM     35  C   UNL     1      -5.749 -11.358   8.995  0.00  0.00    +0.045 C 
ENDROOT
BRANCH  10   9
ATOM      4  C   UNL     1      -2.421  -9.080  12.759  0.00  0.00    +0.077 A 
ATOM      5  C   UNL     1      -1.395 -10.047  12.497  0.00  0.00    +0.048 A 
ATOM      6  C   UNL     1      -1.805 -11.324  12.053  0.00  0.00    +0.116 A 
ATOM      7  N   UNL     1      -3.145 -11.601  11.886  0.00  0.00    -0.223 NA
ATOM      8  C   UNL     1      -4.109 -10.646  12.150  0.00  0.00    +0.220 A 
ATOM      9  N   UNL     1      -5.462 -10.900  11.982  0.00  0.00    -0.283 N 
ATOM     36  H   UNL     1      -6.142 -10.171  12.195  0.00  0.00    +0.155 HD
ATOM     37  N   UNL     1      -3.743  -9.419  12.577  0.00  0.00    -0.214 NA
BRANCH   4   3
ATOM      1  C   UNL     1      -1.414  -6.020  14.979  0.00  0.00    +0.020 A 
ATOM      2  C   UNL     1      -1.665  -7.384  14.574  0.00  0.00    +0.013 A 
ATOM      3  C   UNL     1      -2.145  -7.686  13.231  0.00  0.00    +0.019 A 
ATOM     38  C   UNL     1      -2.363  -6.576  12.316  0.00  0.00    +0.120 A 
ATOM     39  N   UNL     1      -2.114  -5.272  12.735  0.00  0.00    -0.263 NA
ATOM     40  C   UNL     1      -1.653  -4.970  14.025  0.00  0.00    +0.111 A 
ENDBRANCH   4   3
ENDBRANCH  10   9
BRANCH  12  13
ATOM     13  N   UNL     1      -6.999 -15.526  12.978  0.00  0.00    -0.281 N 
ATOM     14  C   UNL     1      -8.236 -16.110  13.195  0.00  0.00    +0.248 C 
ATOM     30  O   UNL     1      -9.295 -15.661  12.781  0.00  0.00    -0.270 OA
ATOM     31  H   UNL     1      -6.227 -15.890  13.537  0.00  0.00    +0.155 HD
BRANCH  14  15
ATOM     15  C   UNL     1      -8.309 -17.367  14.000  0.00  0.00    +0.037 A 
ATOM     16  C   UNL     1      -9.551 -17.774  14.663  0.00  0.00    +0.013 A 
ATOM     17  C   UNL     1      -9.590 -18.982  15.448  0.00  0.00    +0.005 A 
ATOM     18  C   UNL     1      -8.382 -19.794  15.573  0.00  0.00    -0.033 A 
ATOM     28  C   UNL     1      -7.165 -19.370  14.901  0.00  0.00    +0.005 A 
ATOM     29  C   UNL     1      -7.123 -18.186  14.132  0.00  0.00    +0.013 A 
BRANCH  18  19
ATOM     19  C   UNL     1      -8.326 -21.087  16.408  0.00  0.00    +0.119 C 
BRANCH  19  20
ATOM     20  N   UNL     1      -9.579 -21.894  16.503  0.00  0.00    -0.302 NA
ATOM     21  C   UNL     1      -9.696 -22.617  17.848  0.00  0.00    +0.066 C 
ATOM     22  C   UNL     1     -11.024 -23.438  17.940  0.00  0.00    -0.064 C 
ATOM     23  N   UNL     1     -11.084 -24.435  16.782  0.00  0.00    +0.379 N 
ATOM     24  C   UNL     1     -12.303 -25.249  16.898  0.00  0.00    -0.096 C 
ATOM     25  H   UNL     1     -10.210 -25.120  16.880  0.00  0.00    -0.082 HD
ATOM     26  C   UNL     1     -10.966 -23.725  15.441  0.00  0.00    -0.064 C 
ATOM     27  C   UNL     1      -9.657 -22.889  15.371  0.00  0.00    +0.066 C 
ENDBRANCH  19  20
ENDBRANCH  18  19
ENDBRANCH  14  15
ENDBRANCH  12  13
TORSDOF 6
ENDMDL
MODEL 2
REMARK VINA RESULT:      -8.8      2.546     13.281
REMARK  Name = C:\Users\Docking\Desktop\test protocol\1iep_ligandH.pdb
REMARK  8 active torsions:
REMARK  status: ('A' for Active; 'I' for Inactive)
REMARK    1  A    between atoms: _5  and  _11
REMARK    2  A    between atoms: _19  and  _21
REMARK    3  A    between atoms: _22  and  _66
REMARK    4  A    between atoms: _27  and  _30
REMARK    5  A    between atoms: _32  and  _33
REMARK    6  A    between atoms: _38  and  _43
REMARK    7  A    between atoms: _43  and  _46
REMARK    8  A    between atoms: _53  and  _55
REMARK                            x       y       z     vdW  Elec       q    Type
REMARK                         _______ _______ _______ _____ _____    ______ ____
ROOT
ATOM     10  C   UNL     1      -7.223 -14.551  11.296  0.00  0.00    +0.038 A 
ATOM     11  C   UNL     1      -6.380 -13.512  11.766  0.00  0.00    +0.047 A 
ATOM     12  C   UNL     1      -5.951 -12.436  10.887  0.00  0.00    +0.035 A 
ATOM     32  C   UNL     1      -6.402 -12.448   9.535  0.00  0.00    +0.024 A 
ATOM     33  C   UNL     1      -7.258 -13.497   9.040  0.00  0.00    +0.007 A 
ATOM     34  C   UNL     1      -7.682 -14.563   9.902  0.00  0.00    -0.029 A 
ATOM     35  C   UNL     1      -8.595 -15.665   9.316  0.00  0.00    +0.045 C 
ENDROOT
BRANCH  10   9
ATOM      4  C   UNL     1      -6.203 -18.117  14.343  0.00  0.00    +0.077 A 
ATOM      5  C   UNL     1      -4.791 -17.976  14.128  0.00  0.00    +0.048 A 
ATOM      6  C   UNL     1      -4.370 -16.979  13.220  0.00  0.00    +0.116 A 
ATOM      7  N   UNL     1      -5.299 -16.187  12.581  0.00  0.00    -0.223 NA
ATOM      8  C   UNL     1      -6.653 -16.350  12.809  0.00  0.00    +0.220 A 
ATOM      9  N   UNL     1      -7.605 -15.560  12.184  0.00  0.00    -0.283 N 
ATOM     36  H   UNL     1      -8.594 -15.717  12.374  0.00  0.00    +0.155 HD
ATOM     37  N   UNL     1      -7.081 -17.297  13.671  0.00  0.00    -0.214 NA
BRANCH   4   3
ATOM      1  C   UNL     1      -8.659 -20.672  15.998  0.00  0.00    +0.020 A 
ATOM      2  C   UNL     1      -8.125 -19.704  15.069  0.00  0.00    +0.013 A 
ATOM      3  C   UNL     1      -6.804 -19.123  15.274  0.00  0.00    +0.019 A 
ATOM     38  C   UNL     1      -6.042 -19.548  16.440  0.00  0.00    +0.120 A 
ATOM     39  N   UNL     1      -6.583 -20.481  17.319  0.00  0.00    -0.263 NA
ATOM     40  C   UNL     1      -7.854 -21.045  17.132  0.00  0.00    +0.111 A 
ENDBRANCH   4   3
ENDBRANCH  10   9
BRANCH  12  13
ATOM     13  N   UNL     1      -5.090 -11.358  11.306  0.00  0.00    -0.281 N 
ATOM     14  C   UNL     1      -3.948 -11.435  12.086  0.00  0.00    +0.248 C 
ATOM     30  O   UNL     1      -3.611 -12.422  12.723  0.00  0.00    -0.270 OA
ATOM     31  H   UNL     1      -5.354 -10.425  10.989  0.00  0.00    +0.155 HD
BRANCH  14  15
ATOM     15  C   UNL     1      -3.058 -10.238  12.184  0.00  0.00    +0.037 A 
ATOM     16  C   UNL     1      -1.631 -10.374  12.487  0.00  0.00    +0.013 A 
ATOM     17  C   UNL     1      -0.799  -9.201  12.593  0.00  0.00    +0.005 A 
ATOM     18  C   UNL     1      -1.393  -7.881  12.393  0.00  0.00    -0.033 A 
ATOM     28  C   UNL     1      -2.810  -7.776  12.088  0.00  0.00    +0.005 A 
ATOM     29  C   UNL     1      -3.629  -8.922  11.985  0.00  0.00    +0.013 A 
BRANCH  18  19
ATOM     19  C   UNL     1      -0.586  -6.575  12.508  0.00  0.00    +0.119 C 
BRANCH  19  20
ATOM     20  N   UNL     1      -0.022  -6.006  11.247  0.00  0.00    -0.302 NA
ATOM     21  C   UNL     1      -0.895  -4.882  10.684  0.00  0.00    +0.066 C 
ATOM     22  C   UNL     1      -0.279  -4.283   9.377  0.00  0.00    -0.064 C 
ATOM     23  N   UNL     1      -0.098  -5.398   8.345  0.00  0.00    +0.379 N 
ATOM     24  C   UNL     1       0.427  -4.829   7.095  0.00  0.00    -0.096 C 
ATOM     25  H   UNL     1      -1.105  -5.823   8.127  0.00  0.00    -0.082 HD
ATOM     26  C   UNL     1       0.767  -6.522   8.899  0.00  0.00    -0.064 C 
ATOM     27  C   UNL     1       0.161  -7.089  10.213  0.00  0.00    +0.066 C 
ENDBRANCH  19  20
ENDBRANCH  18  19
ENDBRANCH  14  15
ENDBRANCH  12  13
TORSDOF 6
ENDMDL
MODEL 3
REMARK VINA RESULT:      -8.7      1.197      1.406
REMARK  Name = C:\Users\Docking\Desktop\test protocol\1iep_ligandH.pdb
REMARK  8 active torsions:
REMARK  status: ('A' for Active; 'I' for Inactive)
REMARK    1  A    between atoms: _5  and  _11
REMARK    2  A    between atoms: _19  and  _21
REMARK    3  A    between atoms: _22  and  _66
REMARK    4  A    between atoms: _27  and  _30
REMARK    5  A    between atoms: _32  and  _33
REMARK    6  A    between atoms: _38  and  _43
REMARK    7  A    between atoms: _43  and  _46
REMARK    8  A    between atoms: _53  and  _55
REMARK                            x       y       z     vdW  Elec       q    Type
REMARK                         _______ _______ _______ _____ _____    ______ ____
ROOT
ATOM     10  C   UNL     1      -5.879 -12.437  11.484  0.00  0.00    +0.038 A 
ATOM     11  C   UNL     1      -6.143 -13.560  12.309  0.00  0.00    +0.047 A 
ATOM     12  C   UNL     1      -6.608 -14.817  11.742  0.00  0.00    +0.035 A 
ATOM     32  C   UNL     1      -6.791 -14.895  10.331  0.00  0.00    +0.024 A 
ATOM     33  C   UNL     1      -6.528 -13.762   9.478  0.00  0.00    +0.007 A 
ATOM     34  C   UNL     1      -6.072 -12.520  10.031  0.00  0.00    -0.029 A 
ATOM     35  C   UNL     1      -5.812 -11.336   9.070  0.00  0.00    +0.045 C 
ENDROOT
BRANCH  10   9
ATOM      4  C   UNL     1      -2.385  -9.486  12.942  0.00  0.00    +0.077 A 
ATOM      5  C   UNL     1      -1.359 -10.387  12.502  0.00  0.00    +0.048 A 
ATOM      6  C   UNL     1      -1.773 -11.603  11.912  0.00  0.00    +0.116 A 
ATOM      7  N   UNL     1      -3.115 -11.885  11.777  0.00  0.00    -0.223 NA
ATOM      8  C   UNL     1      -4.078 -10.995  12.214  0.00  0.00    +0.220 A 
ATOM      9  N   UNL     1      -5.434 -11.255  12.081  0.00  0.00    -0.283 N 
ATOM     36  H   UNL     1      -6.113 -10.576  12.422  0.00  0.00    +0.155 HD
ATOM     37  N   UNL     1      -3.709  -9.828  12.782  0.00  0.00    -0.214 NA
BRANCH   4   3
ATOM      1  C   UNL     1      -1.536  -5.706  13.483  0.00  0.00    +0.020 A 
ATOM      2  C   UNL     1      -1.796  -6.961  12.816  0.00  0.00    +0.013 A 
ATOM      3  C   UNL     1      -2.107  -8.162  13.582  0.00  0.00    +0.019 A 
ATOM     38  C   UNL     1      -2.148  -8.057  15.033  0.00  0.00    +0.120 A 
ATOM     39  N   UNL     1      -1.891  -6.835  15.648  0.00  0.00    -0.263 NA
ATOM     40  C   UNL     1      -1.590  -5.674  14.921  0.00  0.00    +0.111 A 
ENDBRANCH   4   3
ENDBRANCH  10   9
BRANCH  12  13
ATOM     13  N   UNL     1      -6.900 -15.988  12.531  0.00  0.00    -0.281 N 
ATOM     14  C   UNL     1      -6.020 -16.751  13.281  0.00  0.00    +0.248 C 
ATOM     30  O   UNL     1      -4.802 -16.666  13.216  0.00  0.00    -0.270 OA
ATOM     31  H   UNL     1      -7.874 -16.292  12.536  0.00  0.00    +0.155 HD
BRANCH  14  15
ATOM     15  C   UNL     1      -6.571 -17.765  14.230  0.00  0.00    +0.037 A 
ATOM     16  C   UNL     1      -8.016 -17.918  14.424  0.00  0.00    +0.013 A 
ATOM     17  C   UNL     1      -8.521 -18.892  15.359  0.00  0.00    +0.005 A 
ATOM     18  C   UNL     1      -7.579 -19.724  16.105  0.00  0.00    -0.033 A 
ATOM     28  C   UNL     1      -6.152 -19.555  15.889  0.00  0.00    +0.005 A 
ATOM     29  C   UNL     1      -5.653 -18.600  14.974  0.00  0.00    +0.013 A 
BRANCH  18  19
ATOM     19  C   UNL     1      -8.028 -20.774  17.138  0.00  0.00    +0.119 C 
BRANCH  19  20
ATOM     20  N   UNL     1      -9.258 -21.561  16.822  0.00  0.00    -0.302 NA
ATOM     21  C   UNL     1      -9.779 -22.326  18.043  0.00  0.00    +0.066 C 
ATOM     22  C   UNL     1     -11.078 -23.126  17.700  0.00  0.00    -0.064 C 
ATOM     23  N   UNL     1     -10.793 -24.084  16.542  0.00  0.00    +0.379 N 
ATOM     24  C   UNL     1     -11.997 -24.879  16.256  0.00  0.00    -0.096 C 
ATOM     25  H   UNL     1      -9.994 -24.787  16.874  0.00  0.00    -0.082 HD
ATOM     26  C   UNL     1     -10.272 -23.332  15.326  0.00  0.00    -0.064 C 
ATOM     27  C   UNL     1      -8.998 -22.517  15.684  0.00  0.00    +0.066 C 
ENDBRANCH  19  20
ENDBRANCH  18  19
ENDBRANCH  14  15
ENDBRANCH  12  13
TORSDOF 6
ENDMDL
MODEL 4
REMARK VINA RESULT:      -8.7      2.363     13.228
REMARK  Name = C:\Users\Docking\Desktop\test protocol\1iep_ligandH.pdb
REMARK  8 active torsions:
REMARK  status: ('A' for Active; 'I' for Inactive)
REMARK    1  A    between atoms: _5  and  _11
REMARK    2  A    between atoms: _19  and  _21
REMARK    3  A    between atoms: _22  and  _66
REMARK    4  A    between atoms: _27  and  _30
REMARK    5  A    between atoms: _32  and  _33
REMARK    6  A    between atoms: _38  and  _43
REMARK    7  A    between atoms: _43  and  _46
REMARK    8  A    between atoms: _53  and  _55
REMARK                            x       y       z     vdW  Elec       q    Type
REMARK                         _______ _______ _______ _____ _____    ______ ____
ROOT
ATOM     10  C   UNL     1      -7.664 -14.553  10.890  0.00  0.00    +0.038 A 
ATOM     11  C   UNL     1      -6.839 -13.557  11.472  0.00  0.00    +0.047 A 
ATOM     12  C   UNL     1      -6.182 -12.550  10.653  0.00  0.00    +0.035 A 
ATOM     32  C   UNL     1      -6.389 -12.586   9.243  0.00  0.00    +0.024 A 
ATOM     33  C   UNL     1      -7.224 -13.592   8.634  0.00  0.00    +0.007 A 
ATOM     34  C   UNL     1      -7.872 -14.589   9.437  0.00  0.00    -0.029 A 
ATOM     35  C   UNL     1      -8.751 -15.647   8.730  0.00  0.00    +0.045 C 
ENDROOT
BRANCH  10   9
ATOM      4  C   UNL     1      -7.475 -17.981  14.243  0.00  0.00    +0.077 A 
ATOM      5  C   UNL     1      -6.045 -17.909  14.321  0.00  0.00    +0.048 A 
ATOM      6  C   UNL     1      -5.395 -16.981  13.476  0.00  0.00    +0.116 A 
ATOM      7  N   UNL     1      -6.131 -16.190  12.621  0.00  0.00    -0.223 NA
ATOM      8  C   UNL     1      -7.510 -16.286  12.570  0.00  0.00    +0.220 A 
ATOM      9  N   UNL     1      -8.271 -15.494  11.724  0.00  0.00    -0.283 N 
ATOM     36  H   UNL     1      -9.285 -15.601  11.710  0.00  0.00    +0.155 HD
ATOM     37  N   UNL     1      -8.154 -17.165  13.366  0.00  0.00    -0.214 NA
BRANCH   4   3
ATOM      1  C   UNL     1      -8.592 -20.919  16.571  0.00  0.00    +0.020 A 
ATOM      2  C   UNL     1      -7.746 -20.054  15.781  0.00  0.00    +0.013 A 
ATOM      3  C   UNL     1      -8.305 -18.909  15.075  0.00  0.00    +0.019 A 
ATOM     38  C   UNL     1      -9.735 -18.665  15.189  0.00  0.00    +0.120 A 
ATOM     39  N   UNL     1     -10.525 -19.516  15.956  0.00  0.00    -0.263 NA
ATOM     40  C   UNL     1      -9.998 -20.622  16.639  0.00  0.00    +0.111 A 
ENDBRANCH   4   3
ENDBRANCH  10   9
BRANCH  12  13
ATOM     13  N   UNL     1      -5.326 -11.520  11.187  0.00  0.00    -0.281 N 
ATOM     14  C   UNL     1      -4.115 -11.673  11.840  0.00  0.00    +0.248 C 
ATOM     30  O   UNL     1      -3.683 -12.738  12.255  0.00  0.00    -0.270 OA
ATOM     31  H   UNL     1      -5.654 -10.561  11.069  0.00  0.00    +0.155 HD
BRANCH  14  15
ATOM     15  C   UNL     1      -3.266 -10.466  12.080  0.00  0.00    +0.037 A 
ATOM     16  C   UNL     1      -3.788  -9.115  11.863  0.00  0.00    +0.013 A 
ATOM     17  C   UNL     1      -2.943  -7.968  12.086  0.00  0.00    +0.005 A 
ATOM     18  C   UNL     1      -1.566  -8.169  12.529  0.00  0.00    -0.033 A 
ATOM     28  C   UNL     1      -1.075  -9.521  12.741  0.00  0.00    +0.005 A 
ATOM     29  C   UNL     1      -1.900 -10.647  12.523  0.00  0.00    +0.013 A 
BRANCH  18  19
ATOM     19  C   UNL     1      -0.587  -7.005  12.771  0.00  0.00    +0.119 C 
BRANCH  19  20
ATOM     20  N   UNL     1      -0.046  -6.305  11.567  0.00  0.00    -0.302 NA
ATOM     21  C   UNL     1      -0.948  -5.152  11.120  0.00  0.00    +0.066 C 
ATOM     22  C   UNL     1      -0.356  -4.416   9.874  0.00  0.00    -0.064 C 
ATOM     23  N   UNL     1      -0.159  -5.422   8.738  0.00  0.00    +0.379 N 
ATOM     24  C   UNL     1       0.343  -4.723   7.546  0.00  0.00    -0.096 C 
ATOM     25  H   UNL     1      -1.159  -5.846   8.485  0.00  0.00    -0.082 HD
ATOM     26  C   UNL     1       0.734  -6.574   9.175  0.00  0.00    -0.064 C 
ATOM     27  C   UNL     1       0.152  -7.279  10.432  0.00  0.00    +0.066 C 
ENDBRANCH  19  20
ENDBRANCH  18  19
ENDBRANCH  14  15
ENDBRANCH  12  13
TORSDOF 6
ENDMDL
MODEL 5
REMARK VINA RESULT:      -8.6      2.259     13.698
REMARK  Name = C:\Users\Docking\Desktop\test protocol\1iep_ligandH.pdb
REMARK  8 active torsions:
REMARK  status: ('A' for Active; 'I' for Inactive)
REMARK    1  A    between atoms: _5  and  _11
REMARK    2  A    between atoms: _19  and  _21
REMARK    3  A    between atoms: _22  and  _66
REMARK    4  A    between atoms: _27  and  _30
REMARK    5  A    between atoms: _32  and  _33
REMARK    6  A    between atoms: _38  and  _43
REMARK    7  A    between atoms: _43  and  _46
REMARK    8  A    between atoms: _53  and  _55
REMARK                            x       y       z     vdW  Elec       q    Type
REMARK                         _______ _______ _______ _____ _____    ______ ____
ROOT
ATOM     10  C   UNL     1      -7.460 -16.459  12.468  0.00  0.00    +0.038 A 
ATOM     11  C   UNL     1      -6.429 -15.517  12.715  0.00  0.00    +0.047 A 
ATOM     12  C   UNL     1      -6.446 -14.202  12.093  0.00  0.00    +0.035 A 
ATOM     32  C   UNL     1      -7.531 -13.879  11.227  0.00  0.00    +0.024 A 
ATOM     33  C   UNL     1      -8.587 -14.824  10.964  0.00  0.00    +0.007 A 
ATOM     34  C   UNL     1      -8.574 -16.124  11.573  0.00  0.00    -0.029 A 
ATOM     35  C   UNL     1      -9.729 -17.100  11.251  0.00  0.00    +0.045 C 
ENDROOT
BRANCH  10   9
ATOM      4  C   UNL     1      -8.360 -19.404  16.150  0.00  0.00    +0.077 A 
ATOM      5  C   UNL     1      -8.993 -18.362  16.905  0.00  0.00    +0.048 A 
ATOM      6  C   UNL     1      -9.060 -17.081  16.314  0.00  0.00    +0.116 A 
ATOM      7  N   UNL     1      -8.531 -16.869  15.059  0.00  0.00    -0.223 NA
ATOM      8  C   UNL     1      -7.925 -17.895  14.358  0.00  0.00    +0.220 A 
ATOM      9  N   UNL     1      -7.393 -17.707  13.092  0.00  0.00    -0.283 N 
ATOM     36  H   UNL     1      -6.948 -18.488  12.611  0.00  0.00    +0.155 HD
ATOM     37  N   UNL     1      -7.847 -19.128  14.902  0.00  0.00    -0.214 NA
BRANCH   4   3
ATOM      1  C   UNL     1      -8.900 -23.239  16.701  0.00  0.00    +0.020 A 
ATOM      2  C   UNL     1      -9.083 -21.896  16.199  0.00  0.00    +0.013 A 
ATOM      3  C   UNL     1      -8.214 -20.812  16.638  0.00  0.00    +0.019 A 
ATOM     38  C   UNL     1      -7.160 -21.121  17.592  0.00  0.00    +0.120 A 
ATOM     39  N   UNL     1      -7.008 -22.423  18.059  0.00  0.00    -0.263 NA
ATOM     40  C   UNL     1      -7.840 -23.475  17.646  0.00  0.00    +0.111 A 
ENDBRANCH   4   3
ENDBRANCH  10   9
BRANCH  12  13
ATOM     13  N   UNL     1      -5.422 -13.207  12.299  0.00  0.00    -0.281 N 
ATOM     14  C   UNL     1      -4.446 -12.792  11.408  0.00  0.00    +0.248 C 
ATOM     30  O   UNL     1      -4.171 -13.369  10.366  0.00  0.00    -0.270 OA
ATOM     31  H   UNL     1      -5.417 -12.755  13.213  0.00  0.00    +0.155 HD
BRANCH  14  15
ATOM     15  C   UNL     1      -3.651 -11.567  11.727  0.00  0.00    +0.037 A 
ATOM     16  C   UNL     1      -2.227 -11.651  12.057  0.00  0.00    +0.013 A 
ATOM     17  C   UNL     1      -1.487 -10.456  12.377  0.00  0.00    +0.005 A 
ATOM     18  C   UNL     1      -2.172  -9.165  12.368  0.00  0.00    -0.033 A 
ATOM     28  C   UNL     1      -3.585  -9.111  12.031  0.00  0.00    +0.005 A 
ATOM     29  C   UNL     1      -4.313 -10.280  11.718  0.00  0.00    +0.013 A 
BRANCH  18  19
ATOM     19  C   UNL     1      -1.467  -7.842  12.717  0.00  0.00    +0.119 C 
BRANCH  19  20
ATOM     20  N   UNL     1      -1.525  -6.747  11.703  0.00  0.00    -0.302 NA
ATOM     21  C   UNL     1      -0.129  -6.312  11.247  0.00  0.00    +0.066 C 
ATOM     22  C   UNL     1      -0.209  -5.182  10.169  0.00  0.00    -0.064 C 
ATOM     23  N   UNL     1      -0.989  -3.995  10.736  0.00  0.00    +0.379 N 
ATOM     24  C   UNL     1      -1.016  -2.908   9.746  0.00  0.00    -0.096 C 
ATOM     25  H   UNL     1      -0.437  -3.623  11.630  0.00  0.00    -0.082 HD
ATOM     26  C   UNL     1      -2.377  -4.420  11.193  0.00  0.00    -0.064 C 
ATOM     27  C   UNL     1      -2.288  -5.563  12.242  0.00  0.00    +0.066 C 
ENDBRANCH  19  20
ENDBRANCH  18  19
ENDBRANCH  14  15
ENDBRANCH  12  13
TORSDOF 6
ENDMDL
