MODEL 1
REMARK VINA RESULT:      -8.8      0.000      0.000
REMARK  Name = C:\Users\Docking\Desktop\test protocol\1iep_ligandH.pdb
REMARK  8 active torsions:
REMARK  status: ('A' for Active; 'I' for Inactive)
REMARK    1  A    between atoms: _5  and  _11
REMARK    2  A    between atoms: _19  and  _21
REMARK    3  A    between atoms: _22  and  _66
REMARK    4  A    between atoms: _27  and  _30
REMARK    5  A    between atoms: _32  and  _33
REMARK    6  A    between atoms: _38  and  _43
REMARK    7  A    between atoms: _43  and  _46
REMARK    8  A    between atoms: _53  and  _55
REMARK                            x       y       z     vdW  Elec       q    Type
REMARK                         _______ _______ _______ _____ _____    ______ ____
ROOT
ATOM     10  C   UNL     1      16.963  23.944   8.477  0.00  0.00    +0.038 A 
ATOM     11  C   UNL     1      16.287  22.872   9.114  0.00  0.00    +0.047 A 
ATOM     12  C   UNL     1      16.892  21.553   9.214  0.00  0.00    +0.035 A 
ATOM     32  C   UNL     1      18.189  21.361   8.655  0.00  0.00    +0.024 A 
ATOM     33  C   UNL     1      18.890  22.439   8.002  0.00  0.00    +0.007 A 
ATOM     34  C   UNL     1      18.297  23.742   7.899  0.00  0.00    -0.029 A 
ATOM     35  C   UNL     1      19.092  24.858   7.183  0.00  0.00    +0.045 C 
ENDROOT
BRANCH  10   9
ATOM      4  C   UNL     1      14.071  27.116   6.329  0.00  0.00    +0.077 A 
ATOM      5  C   UNL     1      13.810  26.226   5.234  0.00  0.00    +0.048 A 
ATOM      6  C   UNL     1      14.446  24.964   5.258  0.00  0.00    +0.116 A 
ATOM      7  N   UNL     1      15.277  24.628   6.304  0.00  0.00    -0.223 NA
ATOM      8  C   UNL     1      15.508  25.510   7.344  0.00  0.00    +0.220 A 
ATOM      9  N   UNL     1      16.335  25.189   8.410  0.00  0.00    -0.283 N 
ATOM     36  H   UNL     1      16.485  25.870   9.154  0.00  0.00    +0.155 HD
ATOM     37  N   UNL     1      14.915  26.721   7.344  0.00  0.00    -0.214 NA
BRANCH   4   3
ATOM      1  C   UNL     1      13.541  30.988   6.164  0.00  0.00    +0.020 A 
ATOM      2  C   UNL     1      14.165  29.692   6.027  0.00  0.00    +0.013 A 
ATOM      3  C   UNL     1      13.471  28.482   6.449  0.00  0.00    +0.019 A 
ATOM     38  C   UNL     1      12.135  28.619   7.009  0.00  0.00    +0.120 A 
ATOM     39  N   UNL     1      11.559  29.880   7.130  0.00  0.00    -0.263 NA
ATOM     40  C   UNL     1      12.219  31.051   6.729  0.00  0.00    +0.111 A 
ENDBRANCH   4   3
ENDBRANCH  10   9
BRANCH  12  13
ATOM     13  N   UNL     1      16.250  20.425   9.842  0.00  0.00    -0.281 N 
ATOM     14  C   UNL     1      14.954  19.973   9.660  0.00  0.00    +0.248 C 
ATOM     30  O   UNL     1      14.077  20.601   9.085  0.00  0.00    -0.270 OA
ATOM     31  H   UNL     1      16.821  19.896  10.501  0.00  0.00    +0.155 HD
BRANCH  14  15
ATOM     15  C   UNL     1      14.572  18.636  10.207  0.00  0.00    +0.037 A 
ATOM     16  C   UNL     1      15.463  17.901  11.109  0.00  0.00    +0.013 A 
ATOM     17  C   UNL     1      15.078  16.605  11.609  0.00  0.00    +0.005 A 
ATOM     18  C   UNL     1      13.793  16.036  11.209  0.00  0.00    -0.033 A 
ATOM     28  C   UNL     1      12.926  16.789  10.318  0.00  0.00    +0.005 A 
ATOM     29  C   UNL     1      13.300  18.059   9.825  0.00  0.00    +0.013 A 
BRANCH  18  19
ATOM     19  C   UNL     1      13.309  14.651  11.678  0.00  0.00    +0.119 C 
BRANCH  19  20
ATOM     20  N   UNL     1      12.474  14.600  12.915  0.00  0.00    -0.302 NA
ATOM     21  C   UNL     1      13.324  14.401  14.173  0.00  0.00    +0.066 C 
ATOM     22  C   UNL     1      12.436  14.373  15.460  0.00  0.00    -0.064 C 
ATOM     23  N   UNL     1      11.391  13.264  15.331  0.00  0.00    +0.379 N 
ATOM     24  C   UNL     1      10.592  13.197  16.564  0.00  0.00    -0.096 C 
ATOM     25  H   UNL     1      11.936  12.297  15.228  0.00  0.00    -0.082 HD
ATOM     26  C   UNL     1      10.544  13.452  14.081  0.00  0.00    -0.064 C 
ATOM     27  C   UNL     1      11.438  13.508  12.811  0.00  0.00    +0.066 C 
ENDBRANCH  19  20
ENDBRANCH  18  19
ENDBRANCH  14  15
ENDBRANCH  12  13
TORSDOF 6
ENDMDL
MODEL 2
REMARK VINA RESULT:      -8.8      5.762     11.051
REMARK  Name = C:\Users\Docking\Desktop\test protocol\1iep_ligandH.pdb
REMARK  8 active torsions:
REMARK  status: ('A' for Active; 'I' for Inactive)
REMARK    1  A    between atoms: _5  and  _11
REMARK    2  A    between atoms: _19  and  _21
REMARK    3  A    between atoms: _22  and  _66
REMARK    4  A    between atoms: _27  and  _30
REMARK    5  A    between atoms: _32  and  _33
REMARK    6  A    between atoms: _38  and  _43
REMARK    7  A    between atoms: _43  and  _46
REMARK    8  A    between atoms: _53  and  _55
REMARK                            x       y       z     vdW  Elec       q    Type
REMARK                         _______ _______ _______ _____ _____    ______ ____
ROOT
ATOM     10  C   UNL     1      15.524  21.475   9.624  0.00  0.00    +0.038 A 
ATOM     11  C   UNL     1      14.256  22.067   9.855  0.00  0.00    +0.047 A 
ATOM     12  C   UNL     1      13.620  22.900   8.847  0.00  0.00    +0.035 A 
ATOM     32  C   UNL     1      14.302  23.108   7.613  0.00  0.00    +0.024 A 
ATOM     33  C   UNL     1      15.592  22.515   7.362  0.00  0.00    +0.007 A 
ATOM     34  C   UNL     1      16.226  21.694   8.354  0.00  0.00    -0.029 A 
ATOM     35  C   UNL     1      17.613  21.089   8.033  0.00  0.00    +0.045 C 
ENDROOT
BRANCH  10   9
ATOM      4  C   UNL     1      16.021  17.305  11.949  0.00  0.00    +0.077 A 
ATOM      5  C   UNL     1      15.054  16.656  11.112  0.00  0.00    +0.048 A 
ATOM      6  C   UNL     1      14.446  17.432  10.100  0.00  0.00    +0.116 A 
ATOM      7  N   UNL     1      14.789  18.758   9.945  0.00  0.00    -0.223 NA
ATOM      8  C   UNL     1      15.724  19.354  10.770  0.00  0.00    +0.220 A 
ATOM      9  N   UNL     1      16.089  20.684  10.627  0.00  0.00    -0.283 N 
ATOM     36  H   UNL     1      16.777  21.089  11.261  0.00  0.00    +0.155 HD
ATOM     37  N   UNL     1      16.317  18.635  11.746  0.00  0.00    -0.214 NA
BRANCH   4   3
ATOM      1  C   UNL     1      16.834  15.147  15.108  0.00  0.00    +0.020 A 
ATOM      2  C   UNL     1      16.082  15.789  14.055  0.00  0.00    +0.013 A 
ATOM      3  C   UNL     1      16.752  16.618  13.061  0.00  0.00    +0.019 A 
ATOM     38  C   UNL     1      18.195  16.777  13.160  0.00  0.00    +0.120 A 
ATOM     39  N   UNL     1      18.893  16.148  14.186  0.00  0.00    -0.263 NA
ATOM     40  C   UNL     1      18.259  15.349  15.150  0.00  0.00    +0.111 A 
ENDBRANCH   4   3
ENDBRANCH  10   9
BRANCH  12  13
ATOM     13  N   UNL     1      12.337  23.534   9.029  0.00  0.00    -0.281 N 
ATOM     14  C   UNL     1      11.171  22.971   9.519  0.00  0.00    +0.248 C 
ATOM     30  O   UNL     1      10.996  21.771   9.678  0.00  0.00    -0.270 OA
ATOM     31  H   UNL     1      12.283  24.517   8.763  0.00  0.00    +0.155 HD
BRANCH  14  15
ATOM     15  C   UNL     1      10.028  23.867   9.871  0.00  0.00    +0.037 A 
ATOM     16  C   UNL     1      10.070  25.302   9.579  0.00  0.00    +0.013 A 
ATOM     17  C   UNL     1       8.962  26.148   9.944  0.00  0.00    +0.005 A 
ATOM     18  C   UNL     1       7.799  25.559  10.605  0.00  0.00    -0.033 A 
ATOM     28  C   UNL     1       7.781  24.132  10.878  0.00  0.00    +0.005 A 
ATOM     29  C   UNL     1       8.867  23.300  10.523  0.00  0.00    +0.013 A 
BRANCH  18  19
ATOM     19  C   UNL     1       6.580  26.389  11.049  0.00  0.00    +0.119 C 
BRANCH  19  20
ATOM     20  N   UNL     1       6.026  26.116  12.409  0.00  0.00    -0.302 NA
ATOM     21  C   UNL     1       4.533  25.779  12.364  0.00  0.00    +0.066 C 
ATOM     22  C   UNL     1       3.975  25.474  13.792  0.00  0.00    -0.064 C 
ATOM     23  N   UNL     1       4.231  26.675  14.704  0.00  0.00    +0.379 N 
ATOM     24  C   UNL     1       3.656  26.415  16.032  0.00  0.00    -0.096 C 
ATOM     25  H   UNL     1       3.695  27.550  14.269  0.00  0.00    -0.082 HD
ATOM     26  C   UNL     1       5.713  27.019  14.753  0.00  0.00    -0.064 C 
ATOM     27  C   UNL     1       6.265  27.291  13.325  0.00  0.00    +0.066 C 
ENDBRANCH  19  20
ENDBRANCH  18  19
ENDBRANCH  14  15
ENDBRANCH  12  13
TORSDOF 6
ENDMDL
MODEL 3
REMARK VINA RESULT:      -8.7      4.313     11.746
REMARK  Name = C:\Users\Docking\Desktop\test protocol\1iep_ligandH.pdb
REMARK  8 active torsions:
REMARK  status: ('A' for Active; 'I' for Inactive)
REMARK    1  A    between atoms: _5  and  _11
REMARK    2  A    between atoms: _19  and  _21
REMARK    3  A    between atoms: _22  and  _66
REMARK    4  A    between atoms: _27  and  _30
REMARK    5  A    between atoms: _32  and  _33
REMARK    6  A    between atoms: _38  and  _43
REMARK    7  A    between atoms: _43  and  _46
REMARK    8  A    between atoms: _53  and  _55
REMARK                            x       y       z     vdW  Elec       q    Type
REMARK                         _______ _______ _______ _____ _____    ______ ____
ROOT
ATOM     10  C   UNL     1      15.723  21.406   9.486  0.00  0.00    +0.038 A 
ATOM     11  C   UNL     1      14.426  21.967   9.608  0.00  0.00    +0.047 A 
ATOM     12  C   UNL     1      13.861  22.793   8.552  0.00  0.00    +0.035 A 
ATOM     32  C   UNL     1      14.645  23.026   7.385  0.00  0.00    +0.024 A 
ATOM     33  C   UNL     1      15.966  22.465   7.245  0.00  0.00    +0.007 A 
ATOM     34  C   UNL     1      16.529  21.651   8.284  0.00  0.00    -0.029 A 
ATOM     35  C   UNL     1      17.952  21.081   8.082  0.00  0.00    +0.045 C 
ENDROOT
BRANCH  10   9
ATOM      4  C   UNL     1      16.005  17.266  11.899  0.00  0.00    +0.077 A 
ATOM      5  C   UNL     1      15.071  16.623  11.020  0.00  0.00    +0.048 A 
ATOM      6  C   UNL     1      14.536  17.394   9.964  0.00  0.00    +0.116 A 
ATOM      7  N   UNL     1      14.914  18.710   9.808  0.00  0.00    -0.223 NA
ATOM      8  C   UNL     1      15.816  19.301  10.674  0.00  0.00    +0.220 A 
ATOM      9  N   UNL     1      16.216  20.620  10.530  0.00  0.00    -0.283 N 
ATOM     36  H   UNL     1      16.878  21.021  11.194  0.00  0.00    +0.155 HD
ATOM     37  N   UNL     1      16.340  18.586  11.691  0.00  0.00    -0.214 NA
BRANCH   4   3
ATOM      1  C   UNL     1      16.594  15.191  15.161  0.00  0.00    +0.020 A 
ATOM      2  C   UNL     1      15.913  15.833  14.061  0.00  0.00    +0.013 A 
ATOM      3  C   UNL     1      16.660  16.583  13.058  0.00  0.00    +0.019 A 
ATOM     38  C   UNL     1      18.106  16.664  13.200  0.00  0.00    +0.120 A 
ATOM     39  N   UNL     1      18.734  16.036  14.271  0.00  0.00    -0.263 NA
ATOM     40  C   UNL     1      18.026  15.313  15.243  0.00  0.00    +0.111 A 
ENDBRANCH   4   3
ENDBRANCH  10   9
BRANCH  12  13
ATOM     13  N   UNL     1      12.553  23.396   8.624  0.00  0.00    -0.281 N 
ATOM     14  C   UNL     1      11.480  23.011   9.411  0.00  0.00    +0.248 C 
ATOM     30  O   UNL     1      11.414  21.954  10.020  0.00  0.00    -0.270 OA
ATOM     31  H   UNL     1      12.400  24.204   8.020  0.00  0.00    +0.155 HD
BRANCH  14  15
ATOM     15  C   UNL     1      10.305  23.927   9.527  0.00  0.00    +0.037 A 
ATOM     16  C   UNL     1      10.477  25.382   9.579  0.00  0.00    +0.013 A 
ATOM     17  C   UNL     1       9.328  26.242   9.708  0.00  0.00    +0.005 A 
ATOM     18  C   UNL     1       7.995  25.649   9.785  0.00  0.00    -0.033 A 
ATOM     28  C   UNL     1       7.852  24.204   9.726  0.00  0.00    +0.005 A 
ATOM     29  C   UNL     1       8.977  23.357   9.600  0.00  0.00    +0.013 A 
BRANCH  18  19
ATOM     19  C   UNL     1       6.714  26.489   9.945  0.00  0.00    +0.119 C 
BRANCH  19  20
ATOM     20  N   UNL     1       6.170  27.146   8.719  0.00  0.00    -0.302 NA
ATOM     21  C   UNL     1       6.361  26.281   7.470  0.00  0.00    +0.066 C 
ATOM     22  C   UNL     1       5.766  26.974   6.201  0.00  0.00    -0.064 C 
ATOM     23  N   UNL     1       6.421  28.344   6.017  0.00  0.00    +0.379 N 
ATOM     24  C   UNL     1       5.906  28.973   4.792  0.00  0.00    -0.096 C 
ATOM     25  H   UNL     1       7.515  28.179   5.878  0.00  0.00    -0.082 HD
ATOM     26  C   UNL     1       6.238  29.209   7.255  0.00  0.00    -0.064 C 
ATOM     27  C   UNL     1       6.806  28.499   8.515  0.00  0.00    +0.066 C 
ENDBRANCH  19  20
ENDBRANCH  18  19
ENDBRANCH  14  15
ENDBRANCH  12  13
TORSDOF 6
ENDMDL
MODEL 4
REMARK VINA RESULT:      -8.6      4.279      5.390
REMARK  Name = C:\Users\Docking\Desktop\test protocol\1iep_ligandH.pdb
REMARK  8 active torsions:
REMARK  status: ('A' for Active; 'I' for Inactive)
REMARK    1  A    between atoms: _5  and  _11
REMARK    2  A    between atoms: _19  and  _21
REMARK    3  A    between atoms: _22  and  _66
REMARK    4  A    between atoms: _27  and  _30
REMARK    5  A    between atoms: _32  and  _33
REMARK    6  A    between atoms: _38  and  _43
REMARK    7  A    between atoms: _43  and  _46
REMARK    8  A    between atoms: _53  and  _55
REMARK                            x       y       z     vdW  Elec       q    Type
REMARK                         _______ _______ _______ _____ _____    ______ ____
ROOT
ATOM     10  C   UNL     1      16.679  25.576   7.216  0.00  0.00    +0.038 A 
ATOM     11  C   UNL     1      16.763  24.356   7.935  0.00  0.00    +0.047 A 
ATOM     12  C   UNL     1      16.065  23.164   7.478  0.00  0.00    +0.035 A 
ATOM     32  C   UNL     1      15.294  23.249   6.283  0.00  0.00    +0.024 A 
ATOM     33  C   UNL     1      15.197  24.481   5.540  0.00  0.00    +0.007 A 
ATOM     34  C   UNL     1      15.881  25.661   5.987  0.00  0.00    -0.029 A 
ATOM     35  C   UNL     1      15.736  26.956   5.154  0.00  0.00    +0.045 C 
ENDROOT
BRANCH  10   9
ATOM      4  C   UNL     1      17.108  29.335  10.169  0.00  0.00    +0.077 A 
ATOM      5  C   UNL     1      15.837  29.074  10.782  0.00  0.00    +0.048 A 
ATOM      6  C   UNL     1      15.102  27.967  10.303  0.00  0.00    +0.116 A 
ATOM      7  N   UNL     1      15.609  27.186   9.287  0.00  0.00    -0.223 NA
ATOM      8  C   UNL     1      16.837  27.466   8.717  0.00  0.00    +0.220 A 
ATOM      9  N   UNL     1      17.369  26.690   7.700  0.00  0.00    -0.283 N 
ATOM     36  H   UNL     1      18.275  26.934   7.301  0.00  0.00    +0.155 HD
ATOM     37  N   UNL     1      17.558  28.519   9.156  0.00  0.00    -0.214 NA
BRANCH   4   3
ATOM      1  C   UNL     1      19.739  31.524  12.064  0.00  0.00    +0.020 A 
ATOM      2  C   UNL     1      18.892  30.404  11.722  0.00  0.00    +0.013 A 
ATOM      3  C   UNL     1      18.005  30.466  10.568  0.00  0.00    +0.019 A 
ATOM     38  C   UNL     1      17.998  31.685   9.773  0.00  0.00    +0.120 A 
ATOM     39  N   UNL     1      18.822  32.748  10.127  0.00  0.00    -0.263 NA
ATOM     40  C   UNL     1      19.680  32.701  11.237  0.00  0.00    +0.111 A 
ENDBRANCH   4   3
ENDBRANCH  10   9
BRANCH  12  13
ATOM     13  N   UNL     1      16.107  21.900   8.171  0.00  0.00    -0.281 N 
ATOM     14  C   UNL     1      17.202  21.079   8.380  0.00  0.00    +0.248 C 
ATOM     30  O   UNL     1      18.278  21.205   7.814  0.00  0.00    -0.270 OA
ATOM     31  H   UNL     1      15.220  21.571   8.554  0.00  0.00    +0.155 HD
BRANCH  14  15
ATOM     15  C   UNL     1      17.081  19.945   9.346  0.00  0.00    +0.037 A 
ATOM     16  C   UNL     1      16.195  20.029  10.509  0.00  0.00    +0.013 A 
ATOM     17  C   UNL     1      16.109  18.928  11.435  0.00  0.00    +0.005 A 
ATOM     18  C   UNL     1      16.912  17.730  11.199  0.00  0.00    -0.033 A 
ATOM     28  C   UNL     1      17.779  17.671  10.034  0.00  0.00    +0.005 A 
ATOM     29  C   UNL     1      17.866  18.749   9.125  0.00  0.00    +0.013 A 
BRANCH  18  19
ATOM     19  C   UNL     1      16.900  16.515  12.145  0.00  0.00    +0.119 C 
BRANCH  19  20
ATOM     20  N   UNL     1      17.241  16.761  13.578  0.00  0.00    -0.302 NA
ATOM     21  C   UNL     1      18.752  16.887  13.796  0.00  0.00    +0.066 C 
ATOM     22  C   UNL     1      19.089  17.167  15.296  0.00  0.00    -0.064 C 
ATOM     23  N   UNL     1      18.509  16.049  16.164  0.00  0.00    +0.379 N 
ATOM     24  C   UNL     1      18.874  16.278  17.569  0.00  0.00    -0.096 C 
ATOM     25  H   UNL     1      18.982  15.092  15.843  0.00  0.00    -0.082 HD
ATOM     26  C   UNL     1      17.008  15.914  15.952  0.00  0.00    -0.064 C 
ATOM     27  C   UNL     1      16.681  15.666  14.452  0.00  0.00    +0.066 C 
ENDBRANCH  19  20
ENDBRANCH  18  19
ENDBRANCH  14  15
ENDBRANCH  12  13
TORSDOF 6
ENDMDL
MODEL 5
REMARK VINA RESULT:      -8.6      6.516     11.736
REMARK  Name = C:\Users\Docking\Desktop\test protocol\1iep_ligandH.pdb
REMARK  8 active torsions:
REMARK  status: ('A' for Active; 'I' for Inactive)
REMARK    1  A    between atoms: _5  and  _11
REMARK    2  A    between atoms: _19  and  _21
REMARK    3  A    between atoms: _22  and  _66
REMARK    4  A    between atoms: _27  and  _30
REMARK    5  A    between atoms: _32  and  _33
REMARK    6  A    between atoms: _38  and  _43
REMARK    7  A    between atoms: _43  and  _46
REMARK    8  A    between atoms: _53  and  _55
REMARK                            x       y       z     vdW  Elec       q    Type
REMARK                         _______ _______ _______ _____ _____    ______ ____
ROOT
ATOM     10  C   UNL     1      16.248  24.689   7.709  0.00  0.00    +0.038 A 
ATOM     11  C   UNL     1      16.486  25.589   8.779  0.00  0.00    +0.047 A 
ATOM     12  C   UNL     1      17.419  26.696   8.639  0.00  0.00    +0.035 A 
ATOM     32  C   UNL     1      18.091  26.859   7.392  0.00  0.00    +0.024 A 
ATOM     33  C   UNL     1      17.861  25.953   6.294  0.00  0.00    +0.007 A 
ATOM     34  C   UNL     1      16.944  24.858   6.428  0.00  0.00    -0.029 A 
ATOM     35  C   UNL     1      16.741  23.914   5.219  0.00  0.00    +0.045 C 
ENDROOT
BRANCH  10   9
ATOM      4  C   UNL     1      15.062  20.382   9.463  0.00  0.00    +0.077 A 
ATOM      5  C   UNL     1      16.368  20.185  10.025  0.00  0.00    +0.048 A 
ATOM      6  C   UNL     1      17.318  21.214   9.834  0.00  0.00    +0.116 A 
ATOM      7  N   UNL     1      16.976  22.350   9.132  0.00  0.00    -0.223 NA
ATOM      8  C   UNL     1      15.709  22.506   8.602  0.00  0.00    +0.220 A 
ATOM      9  N   UNL     1      15.341  23.644   7.900  0.00  0.00    -0.283 N 
ATOM     36  H   UNL     1      14.399  23.718   7.518  0.00  0.00    +0.155 HD
ATOM     37  N   UNL     1      14.784  21.538   8.769  0.00  0.00    -0.214 NA
BRANCH   4   3
ATOM      1  C   UNL     1      13.069  17.040   9.866  0.00  0.00    +0.020 A 
ATOM      2  C   UNL     1      14.179  17.958   9.755  0.00  0.00    +0.013 A 
ATOM      3  C   UNL     1      13.950  19.387   9.583  0.00  0.00    +0.019 A 
ATOM     38  C   UNL     1      12.574  19.858   9.528  0.00  0.00    +0.120 A 
ATOM     39  N   UNL     1      11.525  18.951   9.637  0.00  0.00    -0.263 NA
ATOM     40  C   UNL     1      11.734  17.573   9.800  0.00  0.00    +0.111 A 
ENDBRANCH   4   3
ENDBRANCH  10   9
BRANCH  12  13
ATOM     13  N   UNL     1      17.708  27.636   9.693  0.00  0.00    -0.281 N 
ATOM     14  C   UNL     1      16.983  28.760  10.053  0.00  0.00    +0.248 C 
ATOM     30  O   UNL     1      16.087  29.250   9.381  0.00  0.00    -0.270 OA
ATOM     31  H   UNL     1      18.548  27.450  10.240  0.00  0.00    +0.155 HD
BRANCH  14  15
ATOM     15  C   UNL     1      17.311  29.450  11.338  0.00  0.00    +0.037 A 
ATOM     16  C   UNL     1      18.470  30.339  11.450  0.00  0.00    +0.013 A 
ATOM     17  C   UNL     1      18.773  30.978  12.706  0.00  0.00    +0.005 A 
ATOM     18  C   UNL     1      17.914  30.730  13.861  0.00  0.00    -0.033 A 
ATOM     28  C   UNL     1      16.768  29.847  13.721  0.00  0.00    +0.005 A 
ATOM     29  C   UNL     1      16.468  29.219  12.492  0.00  0.00    +0.013 A 
BRANCH  18  19
ATOM     19  C   UNL     1      18.174  31.352  15.246  0.00  0.00    +0.119 C 
BRANCH  19  20
ATOM     20  N   UNL     1      17.412  30.793  16.401  0.00  0.00    -0.302 NA
ATOM     21  C   UNL     1      16.132  31.585  16.682  0.00  0.00    +0.066 C 
ATOM     22  C   UNL     1      15.335  30.973  17.880  0.00  0.00    -0.064 C 
ATOM     23  N   UNL     1      16.231  30.934  19.119  0.00  0.00    +0.379 N 
ATOM     24  C   UNL     1      15.466  30.412  20.261  0.00  0.00    -0.096 C 
ATOM     25  H   UNL     1      16.523  31.983  19.357  0.00  0.00    -0.082 HD
ATOM     26  C   UNL     1      17.507  30.150  18.847  0.00  0.00    -0.064 C 
ATOM     27  C   UNL     1      18.277  30.749  17.637  0.00  0.00    +0.066 C 
ENDBRANCH  19  20
ENDBRANCH  18  19
ENDBRANCH  14  15
ENDBRANCH  12  13
TORSDOF 6
ENDMDL
