MODEL 1
REMARK VINA RESULT:      -9.3      0.000      0.000
REMARK  Name = C:\Users\Docking\Desktop\test protocol\1iep_ligandH.pdb
REMARK  8 active torsions:
REMARK  status: ('A' for Active; 'I' for Inactive)
REMARK    1  A    between atoms: _5  and  _11
REMARK    2  A    between atoms: _19  and  _21
REMARK    3  A    between atoms: _22  and  _66
REMARK    4  A    between atoms: _27  and  _30
REMARK    5  A    between atoms: _32  and  _33
REMARK    6  A    between atoms: _38  and  _43
REMARK    7  A    between atoms: _43  and  _46
REMARK    8  A    between atoms: _53  and  _55
REMARK                            x       y       z     vdW  Elec       q    Type
REMARK                         _______ _______ _______ _____ _____    ______ ____
ROOT
ATOM     10  C   UNL     1      16.740  21.228   9.767  0.00  0.00    +0.038 A 
ATOM     11  C   UNL     1      16.095  20.199  10.499  0.00  0.00    +0.047 A 
ATOM     12  C   UNL     1      16.509  18.810  10.369  0.00  0.00    +0.035 A 
ATOM     32  C   UNL     1      17.586  18.506   9.486  0.00  0.00    +0.024 A 
ATOM     33  C   UNL     1      18.252  19.540   8.733  0.00  0.00    +0.007 A 
ATOM     34  C   UNL     1      17.846  20.911   8.855  0.00  0.00    -0.029 A 
ATOM     35  C   UNL     1      18.592  21.977   8.019  0.00  0.00    +0.045 C 
ENDROOT
BRANCH  10   9
ATOM      4  C   UNL     1      14.021  24.973   8.493  0.00  0.00    +0.077 A 
ATOM      5  C   UNL     1      13.444  24.255   7.393  0.00  0.00    +0.048 A 
ATOM      6  C   UNL     1      13.880  22.927   7.185  0.00  0.00    +0.116 A 
ATOM      7  N   UNL     1      14.822  22.369   8.021  0.00  0.00    -0.223 NA
ATOM      8  C   UNL     1      15.359  23.089   9.072  0.00  0.00    +0.220 A 
ATOM      9  N   UNL     1      16.302  22.544   9.930  0.00  0.00    -0.283 N 
ATOM     36  H   UNL     1      16.680  23.111  10.689  0.00  0.00    +0.155 HD
ATOM     37  N   UNL     1      14.961  24.359   9.291  0.00  0.00    -0.214 NA
BRANCH   4   3
ATOM      1  C   UNL     1      12.304  28.097  10.104  0.00  0.00    +0.020 A 
ATOM      2  C   UNL     1      12.613  26.719   9.800  0.00  0.00    +0.013 A 
ATOM      3  C   UNL     1      13.661  26.383   8.844  0.00  0.00    +0.019 A 
ATOM     38  C   UNL     1      14.385  27.474   8.209  0.00  0.00    +0.120 A 
ATOM     39  N   UNL     1      14.065  28.792   8.521  0.00  0.00    -0.263 NA
ATOM     40  C   UNL     1      13.057  29.127   9.437  0.00  0.00    +0.111 A 
ENDBRANCH   4   3
ENDBRANCH  10   9
BRANCH  12  13
ATOM     13  N   UNL     1      15.887  17.722  11.081  0.00  0.00    -0.281 N 
ATOM     14  C   UNL     1      16.001  17.407  12.425  0.00  0.00    +0.248 C 
ATOM     30  O   UNL     1      16.830  17.893  13.180  0.00  0.00    -0.270 OA
ATOM     31  H   UNL     1      15.290  17.108  10.526  0.00  0.00    +0.155 HD
BRANCH  14  15
ATOM     15  C   UNL     1      15.068  16.397  13.012  0.00  0.00    +0.037 A 
ATOM     16  C   UNL     1      15.424  15.645  14.218  0.00  0.00    +0.013 A 
ATOM     17  C   UNL     1      14.514  14.665  14.754  0.00  0.00    +0.005 A 
ATOM     18  C   UNL     1      13.236  14.432  14.083  0.00  0.00    -0.033 A 
ATOM     28  C   UNL     1      12.907  15.196  12.892  0.00  0.00    +0.005 A 
ATOM     29  C   UNL     1      13.797  16.157  12.363  0.00  0.00    +0.013 A 
BRANCH  18  19
ATOM     19  C   UNL     1      12.213  13.390  14.573  0.00  0.00    +0.119 C 
BRANCH  19  20
ATOM     20  N   UNL     1      10.790  13.584  14.162  0.00  0.00    -0.302 NA
ATOM     21  C   UNL     1       9.813  13.206  15.278  0.00  0.00    +0.066 C 
ATOM     22  C   UNL     1       8.330  13.436  14.839  0.00  0.00    -0.064 C 
ATOM     23  N   UNL     1       8.045  12.627  13.573  0.00  0.00    +0.379 N 
ATOM     24  C   UNL     1       6.635  12.796  13.190  0.00  0.00    -0.096 C 
ATOM     25  H   UNL     1       8.203  11.551  13.817  0.00  0.00    -0.082 HD
ATOM     26  C   UNL     1       9.014  12.995  12.458  0.00  0.00    -0.064 C 
ATOM     27  C   UNL     1      10.485  12.791  12.915  0.00  0.00    +0.066 C 
ENDBRANCH  19  20
ENDBRANCH  18  19
ENDBRANCH  14  15
ENDBRANCH  12  13
TORSDOF 6
ENDMDL
MODEL 2
REMARK VINA RESULT:      -8.8      4.061      7.417
REMARK  Name = C:\Users\Docking\Desktop\test protocol\1iep_ligandH.pdb
REMARK  8 active torsions:
REMARK  status: ('A' for Active; 'I' for Inactive)
REMARK    1  A    between atoms: _5  and  _11
REMARK    2  A    between atoms: _19  and  _21
REMARK    3  A    between atoms: _22  and  _66
REMARK    4  A    between atoms: _27  and  _30
REMARK    5  A    between atoms: _32  and  _33
REMARK    6  A    between atoms: _38  and  _43
REMARK    7  A    between atoms: _43  and  _46
REMARK    8  A    between atoms: _53  and  _55
REMARK                            x       y       z     vdW  Elec       q    Type
REMARK                         _______ _______ _______ _____ _____    ______ ____
ROOT
ATOM     10  C   UNL     1      15.792  26.758   6.079  0.00  0.00    +0.038 A 
ATOM     11  C   UNL     1      16.032  25.589   6.845  0.00  0.00    +0.047 A 
ATOM     12  C   UNL     1      15.247  24.381   6.641  0.00  0.00    +0.035 A 
ATOM     32  C   UNL     1      14.226  24.399   5.645  0.00  0.00    +0.024 A 
ATOM     33  C   UNL     1      13.968  25.580   4.859  0.00  0.00    +0.007 A 
ATOM     34  C   UNL     1      14.737  26.774   5.058  0.00  0.00    -0.029 A 
ATOM     35  C   UNL     1      14.413  28.013   4.190  0.00  0.00    +0.045 C 
ENDROOT
BRANCH  10   9
ATOM      4  C   UNL     1      16.816  30.760   8.523  0.00  0.00    +0.077 A 
ATOM      5  C   UNL     1      15.678  30.598   9.381  0.00  0.00    +0.048 A 
ATOM      6  C   UNL     1      14.850  29.476   9.156  0.00  0.00    +0.116 A 
ATOM      7  N   UNL     1      15.148  28.588   8.145  0.00  0.00    -0.223 NA
ATOM      8  C   UNL     1      16.252  28.774   7.334  0.00  0.00    +0.220 A 
ATOM      9  N   UNL     1      16.575  27.890   6.317  0.00  0.00    -0.283 N 
ATOM     36  H   UNL     1      17.395  28.066   5.736  0.00  0.00    +0.155 HD
ATOM     37  N   UNL     1      17.058  29.839   7.528  0.00  0.00    -0.214 NA
BRANCH   4   3
ATOM      1  C   UNL     1      19.428  33.311   9.927  0.00  0.00    +0.020 A 
ATOM      2  C   UNL     1      18.500  32.205   9.870  0.00  0.00    +0.013 A 
ATOM      3  C   UNL     1      17.787  31.894   8.637  0.00  0.00    +0.019 A 
ATOM     38  C   UNL     1      18.038  32.728   7.471  0.00  0.00    +0.120 A 
ATOM     39  N   UNL     1      18.935  33.788   7.557  0.00  0.00    -0.263 NA
ATOM     40  C   UNL     1      19.626  34.098   8.738  0.00  0.00    +0.111 A 
ENDBRANCH   4   3
ENDBRANCH  10   9
BRANCH  12  13
ATOM     13  N   UNL     1      15.439  23.167   7.393  0.00  0.00    -0.281 N 
ATOM     14  C   UNL     1      15.169  22.943   8.733  0.00  0.00    +0.248 C 
ATOM     30  O   UNL     1      14.918  23.823   9.544  0.00  0.00    -0.270 OA
ATOM     31  H   UNL     1      15.821  22.375   6.875  0.00  0.00    +0.155 HD
BRANCH  14  15
ATOM     15  C   UNL     1      15.195  21.542   9.251  0.00  0.00    +0.037 A 
ATOM     16  C   UNL     1      14.008  20.685   9.186  0.00  0.00    +0.013 A 
ATOM     17  C   UNL     1      14.055  19.343   9.709  0.00  0.00    +0.005 A 
ATOM     18  C   UNL     1      15.296  18.848  10.300  0.00  0.00    -0.033 A 
ATOM     28  C   UNL     1      16.460  19.717  10.347  0.00  0.00    +0.005 A 
ATOM     29  C   UNL     1      16.417  21.034   9.837  0.00  0.00    +0.013 A 
BRANCH  18  19
ATOM     19  C   UNL     1      15.431  17.436  10.901  0.00  0.00    +0.119 C 
BRANCH  19  20
ATOM     20  N   UNL     1      16.089  17.321  12.237  0.00  0.00    -0.302 NA
ATOM     21  C   UNL     1      17.417  16.563  12.160  0.00  0.00    +0.066 C 
ATOM     22  C   UNL     1      18.102  16.472  13.563  0.00  0.00    -0.064 C 
ATOM     23  N   UNL     1      17.149  15.797  14.550  0.00  0.00    +0.379 N 
ATOM     24  C   UNL     1      17.812  15.658  15.855  0.00  0.00    -0.096 C 
ATOM     25  H   UNL     1      16.936  14.772  14.168  0.00  0.00    -0.082 HD
ATOM     26  C   UNL     1      15.825  16.543  14.631  0.00  0.00    -0.064 C 
ATOM     27  C   UNL     1      15.166  16.654  13.227  0.00  0.00    +0.066 C 
ENDBRANCH  19  20
ENDBRANCH  18  19
ENDBRANCH  14  15
ENDBRANCH  12  13
TORSDOF 6
ENDMDL
MODEL 3
REMARK VINA RESULT:      -8.6      4.654      8.142
REMARK  Name = C:\Users\Docking\Desktop\test protocol\1iep_ligandH.pdb
REMARK  8 active torsions:
REMARK  status: ('A' for Active; 'I' for Inactive)
REMARK    1  A    between atoms: _5  and  _11
REMARK    2  A    between atoms: _19  and  _21
REMARK    3  A    between atoms: _22  and  _66
REMARK    4  A    between atoms: _27  and  _30
REMARK    5  A    between atoms: _32  and  _33
REMARK    6  A    between atoms: _38  and  _43
REMARK    7  A    between atoms: _43  and  _46
REMARK    8  A    between atoms: _53  and  _55
REMARK                            x       y       z     vdW  Elec       q    Type
REMARK                         _______ _______ _______ _____ _____    ______ ____
ROOT
ATOM     10  C   UNL     1      17.702  28.200   9.031  0.00  0.00    +0.038 A 
ATOM     11  C   UNL     1      17.483  26.818   9.264  0.00  0.00    +0.047 A 
ATOM     12  C   UNL     1      17.078  25.929   8.186  0.00  0.00    +0.035 A 
ATOM     32  C   UNL     1      16.907  26.481   6.883  0.00  0.00    +0.024 A 
ATOM     33  C   UNL     1      17.124  27.884   6.629  0.00  0.00    +0.007 A 
ATOM     34  C   UNL     1      17.522  28.766   7.689  0.00  0.00    -0.029 A 
ATOM     35  C   UNL     1      17.734  30.262   7.361  0.00  0.00    +0.045 C 
ENDROOT
BRANCH  10   9
ATOM      4  C   UNL     1      17.229  29.759  13.546  0.00  0.00    +0.077 A 
ATOM      5  C   UNL     1      16.096  28.912  13.783  0.00  0.00    +0.048 A 
ATOM      6  C   UNL     1      15.662  28.095  12.714  0.00  0.00    +0.116 A 
ATOM      7  N   UNL     1      16.320  28.132  11.504  0.00  0.00    -0.223 NA
ATOM      8  C   UNL     1      17.409  28.961  11.309  0.00  0.00    +0.220 A 
ATOM      9  N   UNL     1      18.091  29.008  10.103  0.00  0.00    -0.283 N 
ATOM     36  H   UNL     1      18.884  29.639   9.996  0.00  0.00    +0.155 HD
ATOM     37  N   UNL     1      17.842  29.752  12.313  0.00  0.00    -0.214 NA
BRANCH   4   3
ATOM      1  C   UNL     1      18.524  31.225  16.934  0.00  0.00    +0.020 A 
ATOM      2  C   UNL     1      17.958  30.301  15.978  0.00  0.00    +0.013 A 
ATOM      3  C   UNL     1      17.809  30.677  14.578  0.00  0.00    +0.019 A 
ATOM     38  C   UNL     1      18.246  32.004  14.174  0.00  0.00    +0.120 A 
ATOM     39  N   UNL     1      18.787  32.873  15.117  0.00  0.00    -0.263 NA
ATOM     40  C   UNL     1      18.934  32.523  16.468  0.00  0.00    +0.111 A 
ENDBRANCH   4   3
ENDBRANCH  10   9
BRANCH  12  13
ATOM     13  N   UNL     1      16.833  24.519   8.364  0.00  0.00    -0.281 N 
ATOM     14  C   UNL     1      17.736  23.476   8.240  0.00  0.00    +0.248 C 
ATOM     30  O   UNL     1      18.849  23.580   7.746  0.00  0.00    -0.270 OA
ATOM     31  H   UNL     1      15.878  24.259   8.610  0.00  0.00    +0.155 HD
BRANCH  14  15
ATOM     15  C   UNL     1      17.341  22.118   8.722  0.00  0.00    +0.037 A 
ATOM     16  C   UNL     1      16.111  21.913   9.492  0.00  0.00    +0.013 A 
ATOM     17  C   UNL     1      15.762  20.595   9.959  0.00  0.00    +0.005 A 
ATOM     18  C   UNL     1      16.643  19.470   9.655  0.00  0.00    -0.033 A 
ATOM     28  C   UNL     1      17.854  19.701   8.884  0.00  0.00    +0.005 A 
ATOM     29  C   UNL     1      18.200  20.991   8.426  0.00  0.00    +0.013 A 
BRANCH  18  19
ATOM     19  C   UNL     1      16.360  18.033  10.131  0.00  0.00    +0.119 C 
BRANCH  19  20
ATOM     20  N   UNL     1      16.628  17.723  11.567  0.00  0.00    -0.302 NA
ATOM     21  C   UNL     1      17.798  16.749  11.736  0.00  0.00    +0.066 C 
ATOM     22  C   UNL     1      18.079  16.454  13.246  0.00  0.00    -0.064 C 
ATOM     23  N   UNL     1      16.812  15.897  13.898  0.00  0.00    +0.379 N 
ATOM     24  C   UNL     1      17.089  15.564  15.303  0.00  0.00    -0.096 C 
ATOM     25  H   UNL     1      16.549  14.950  13.371  0.00  0.00    -0.082 HD
ATOM     26  C   UNL     1      15.643  16.858  13.732  0.00  0.00    -0.064 C 
ATOM     27  C   UNL     1      15.391  17.168  12.230  0.00  0.00    +0.066 C 
ENDBRANCH  19  20
ENDBRANCH  18  19
ENDBRANCH  14  15
ENDBRANCH  12  13
TORSDOF 6
ENDMDL
MODEL 4
REMARK VINA RESULT:      -8.0     17.299     19.544
REMARK  Name = C:\Users\Docking\Desktop\test protocol\1iep_ligandH.pdb
REMARK  8 active torsions:
REMARK  status: ('A' for Active; 'I' for Inactive)
REMARK    1  A    between atoms: _5  and  _11
REMARK    2  A    between atoms: _19  and  _21
REMARK    3  A    between atoms: _22  and  _66
REMARK    4  A    between atoms: _27  and  _30
REMARK    5  A    between atoms: _32  and  _33
REMARK    6  A    between atoms: _38  and  _43
REMARK    7  A    between atoms: _43  and  _46
REMARK    8  A    between atoms: _53  and  _55
REMARK                            x       y       z     vdW  Elec       q    Type
REMARK                         _______ _______ _______ _____ _____    ______ ____
ROOT
ATOM     10  C   UNL     1      23.518  12.286  -2.266  0.00  0.00    +0.038 A 
ATOM     11  C   UNL     1      22.112  12.105  -2.322  0.00  0.00    +0.047 A 
ATOM     12  C   UNL     1      21.352  12.480  -3.504  0.00  0.00    +0.035 A 
ATOM     32  C   UNL     1      22.056  13.034  -4.612  0.00  0.00    +0.024 A 
ATOM     33  C   UNL     1      23.485  13.226  -4.572  0.00  0.00    +0.007 A 
ATOM     34  C   UNL     1      24.240  12.860  -3.408  0.00  0.00    -0.029 A 
ATOM     35  C   UNL     1      25.768  13.094  -3.418  0.00  0.00    +0.045 C 
ENDROOT
BRANCH  10   9
ATOM      4  C   UNL     1      26.393   9.321   0.179  0.00  0.00    +0.077 A 
ATOM      5  C   UNL     1      26.531   8.435  -0.941  0.00  0.00    +0.048 A 
ATOM      6  C   UNL     1      25.839   8.775  -2.125  0.00  0.00    +0.116 A 
ATOM      7  N   UNL     1      25.071   9.918  -2.175  0.00  0.00    -0.223 NA
ATOM      8  C   UNL     1      24.959  10.749  -1.076  0.00  0.00    +0.220 A 
ATOM      9  N   UNL     1      24.198  11.908  -1.106  0.00  0.00    -0.283 N 
ATOM     36  H   UNL     1      24.134  12.491  -0.272  0.00  0.00    +0.155 HD
ATOM     37  N   UNL     1      25.608  10.446   0.068  0.00  0.00    -0.214 NA
BRANCH   4   3
ATOM      1  C   UNL     1      28.298   9.912   3.544  0.00  0.00    +0.020 A 
ATOM      2  C   UNL     1      27.662  10.179   2.275  0.00  0.00    +0.013 A 
ATOM      3  C   UNL     1      27.064   9.099   1.499  0.00  0.00    +0.019 A 
ATOM     38  C   UNL     1      27.126   7.750   2.041  0.00  0.00    +0.120 A 
ATOM     39  N   UNL     1      27.746   7.523   3.266  0.00  0.00    -0.263 NA
ATOM     40  C   UNL     1      28.327   8.554   4.020  0.00  0.00    +0.111 A 
ENDBRANCH   4   3
ENDBRANCH  10   9
BRANCH  12  13
ATOM     13  N   UNL     1      19.922  12.328  -3.615  0.00  0.00    -0.281 N 
ATOM     14  C   UNL     1      19.162  11.203  -3.342  0.00  0.00    +0.248 C 
ATOM     30  O   UNL     1      19.622  10.085  -3.164  0.00  0.00    -0.270 OA
ATOM     31  H   UNL     1      19.409  13.149  -3.934  0.00  0.00    +0.155 HD
BRANCH  14  15
ATOM     15  C   UNL     1      17.675  11.336  -3.272  0.00  0.00    +0.037 A 
ATOM     16  C   UNL     1      16.992  12.518  -3.802  0.00  0.00    +0.013 A 
ATOM     17  C   UNL     1      15.558  12.629  -3.705  0.00  0.00    +0.005 A 
ATOM     18  C   UNL     1      14.797  11.552  -3.077  0.00  0.00    -0.033 A 
ATOM     28  C   UNL     1      15.500  10.387  -2.565  0.00  0.00    +0.005 A 
ATOM     29  C   UNL     1      16.905  10.276  -2.656  0.00  0.00    +0.013 A 
BRANCH  18  19
ATOM     19  C   UNL     1      13.266  11.595  -2.912  0.00  0.00    +0.119 C 
BRANCH  19  20
ATOM     20  N   UNL     1      12.440  11.388  -4.139  0.00  0.00    -0.302 NA
ATOM     21  C   UNL     1      12.998  10.270  -5.025  0.00  0.00    +0.066 C 
ATOM     22  C   UNL     1      12.109  10.051  -6.293  0.00  0.00    -0.064 C 
ATOM     23  N   UNL     1      12.009  11.362  -7.074  0.00  0.00    +0.379 N 
ATOM     24  C   UNL     1      11.221  11.145  -8.297  0.00  0.00    -0.096 C 
ATOM     25  H   UNL     1      13.040  11.652  -7.382  0.00  0.00    -0.082 HD
ATOM     26  C   UNL     1      11.457  12.480  -6.200  0.00  0.00    -0.064 C 
ATOM     27  C   UNL     1      12.331  12.669  -4.928  0.00  0.00    +0.066 C 
ENDBRANCH  19  20
ENDBRANCH  18  19
ENDBRANCH  14  15
ENDBRANCH  12  13
TORSDOF 6
ENDMDL
MODEL 5
REMARK VINA RESULT:      -7.8      2.011      2.479
REMARK  Name = C:\Users\Docking\Desktop\test protocol\1iep_ligandH.pdb
REMARK  8 active torsions:
REMARK  status: ('A' for Active; 'I' for Inactive)
REMARK    1  A    between atoms: _5  and  _11
REMARK    2  A    between atoms: _19  and  _21
REMARK    3  A    between atoms: _22  and  _66
REMARK    4  A    between atoms: _27  and  _30
REMARK    5  A    between atoms: _32  and  _33
REMARK    6  A    between atoms: _38  and  _43
REMARK    7  A    between atoms: _43  and  _46
REMARK    8  A    between atoms: _53  and  _55
REMARK                            x       y       z     vdW  Elec       q    Type
REMARK                         _______ _______ _______ _____ _____    ______ ____
ROOT
ATOM     10  C   UNL     1      15.570  21.602   8.984  0.00  0.00    +0.038 A 
ATOM     11  C   UNL     1      15.025  20.543   9.755  0.00  0.00    +0.047 A 
ATOM     12  C   UNL     1      15.803  19.350  10.048  0.00  0.00    +0.035 A 
ATOM     32  C   UNL     1      17.133  19.269   9.544  0.00  0.00    +0.024 A 
ATOM     33  C   UNL     1      17.702  20.336   8.758  0.00  0.00    +0.007 A 
ATOM     34  C   UNL     1      16.939  21.515   8.463  0.00  0.00    -0.029 A 
ATOM     35  C   UNL     1      17.598  22.624   7.611  0.00  0.00    +0.045 C 
ENDROOT
BRANCH  10   9
ATOM      4  C   UNL     1      11.386  23.951   9.127  0.00  0.00    +0.077 A 
ATOM      5  C   UNL     1      10.713  22.836   9.729  0.00  0.00    +0.048 A 
ATOM      6  C   UNL     1      11.478  21.675   9.980  0.00  0.00    +0.116 A 
ATOM      7  N   UNL     1      12.815  21.642   9.648  0.00  0.00    -0.223 NA
ATOM      8  C   UNL     1      13.433  22.734   9.067  0.00  0.00    +0.220 A 
ATOM      9  N   UNL     1      14.778  22.725   8.732  0.00  0.00    -0.283 N 
ATOM     36  H   UNL     1      15.195  23.549   8.298  0.00  0.00    +0.155 HD
ATOM     37  N   UNL     1      12.724  23.854   8.816  0.00  0.00    -0.214 NA
BRANCH   4   3
ATOM      1  C   UNL     1      10.566  27.767   8.868  0.00  0.00    +0.020 A 
ATOM      2  C   UNL     1      11.253  26.542   9.206  0.00  0.00    +0.013 A 
ATOM      3  C   UNL     1      10.714  25.249   8.803  0.00  0.00    +0.019 A 
ATOM     38  C   UNL     1       9.468  25.230   8.052  0.00  0.00    +0.120 A 
ATOM     39  N   UNL     1       8.827  26.426   7.742  0.00  0.00    -0.263 NA
ATOM     40  C   UNL     1       9.335  27.675   8.126  0.00  0.00    +0.111 A 
ENDBRANCH   4   3
ENDBRANCH  10   9
BRANCH  12  13
ATOM     13  N   UNL     1      15.300  18.239  10.818  0.00  0.00    -0.281 N 
ATOM     14  C   UNL     1      15.858  17.664  11.949  0.00  0.00    +0.248 C 
ATOM     30  O   UNL     1      16.992  17.884  12.347  0.00  0.00    -0.270 OA
ATOM     31  H   UNL     1      14.427  17.826  10.490  0.00  0.00    +0.155 HD
BRANCH  14  15
ATOM     15  C   UNL     1      15.044  16.695  12.743  0.00  0.00    +0.037 A 
ATOM     16  C   UNL     1      13.677  16.346  12.346  0.00  0.00    +0.013 A 
ATOM     17  C   UNL     1      12.907  15.422  13.140  0.00  0.00    +0.005 A 
ATOM     18  C   UNL     1      13.504  14.837  14.338  0.00  0.00    -0.033 A 
ATOM     28  C   UNL     1      14.864  15.196  14.706  0.00  0.00    +0.005 A 
ATOM     29  C   UNL     1      15.621  16.103  13.931  0.00  0.00    +0.013 A 
BRANCH  18  19
ATOM     19  C   UNL     1      12.749  13.858  15.256  0.00  0.00    +0.119 C 
BRANCH  19  20
ATOM     20  N   UNL     1      11.562  13.157  14.680  0.00  0.00    -0.302 NA
ATOM     21  C   UNL     1      11.506  13.283  13.155  0.00  0.00    +0.066 C 
ATOM     22  C   UNL     1      10.271  12.525  12.567  0.00  0.00    -0.064 C 
ATOM     23  N   UNL     1       8.992  13.070  13.203  0.00  0.00    +0.379 N 
ATOM     24  C   UNL     1       7.825  12.401  12.609  0.00  0.00    -0.096 C 
ATOM     25  H   UNL     1       8.924  14.154  12.950  0.00  0.00    -0.082 HD
ATOM     26  C   UNL     1       9.040  12.952  14.719  0.00  0.00    -0.064 C 
ATOM     27  C   UNL     1      10.287  13.683  15.291  0.00  0.00    +0.066 C 
ENDBRANCH  19  20
ENDBRANCH  18  19
ENDBRANCH  14  15
ENDBRANCH  12  13
TORSDOF 6
ENDMDL
