MODEL 1
REMARK VINA RESULT:      -8.8      0.000      0.000
REMARK  Name = C:\Users\Docking\Desktop\test protocol\1iep_ligandH.pdb
REMARK  8 active torsions:
REMARK  status: ('A' for Active; 'I' for Inactive)
REMARK    1  A    between atoms: _5  and  _11
REMARK    2  A    between atoms: _19  and  _21
REMARK    3  A    between atoms: _22  and  _66
REMARK    4  A    between atoms: _27  and  _30
REMARK    5  A    between atoms: _32  and  _33
REMARK    6  A    between atoms: _38  and  _43
REMARK    7  A    between atoms: _43  and  _46
REMARK    8  A    between atoms: _53  and  _55
REMARK                            x       y       z     vdW  Elec       q    Type
REMARK                         _______ _______ _______ _____ _____    ______ ____
ROOT
ATOM     10  C   UNL     1      16.837  69.302   7.954  0.00  0.00    +0.038 A 
ATOM     11  C   UNL     1      16.180  68.202   8.562  0.00  0.00    +0.047 A 
ATOM     12  C   UNL     1      16.887  66.960   8.833  0.00  0.00    +0.035 A 
ATOM     32  C   UNL     1      18.263  66.873   8.474  0.00  0.00    +0.024 A 
ATOM     33  C   UNL     1      18.946  67.981   7.853  0.00  0.00    +0.007 A 
ATOM     34  C   UNL     1      18.254  69.208   7.581  0.00  0.00    -0.029 A 
ATOM     35  C   UNL     1      19.034  70.360   6.908  0.00  0.00    +0.045 C 
ENDROOT
BRANCH  10   9
ATOM      4  C   UNL     1      14.467  72.295   5.046  0.00  0.00    +0.077 A 
ATOM      5  C   UNL     1      14.720  71.475   3.897  0.00  0.00    +0.048 A 
ATOM      6  C   UNL     1      15.471  70.294   4.095  0.00  0.00    +0.116 A 
ATOM      7  N   UNL     1      15.928  69.968   5.354  0.00  0.00    -0.223 NA
ATOM      8  C   UNL     1      15.667  70.783   6.440  0.00  0.00    +0.220 A 
ATOM      9  N   UNL     1      16.110  70.471   7.716  0.00  0.00    -0.283 N 
ATOM     36  H   UNL     1      15.903  71.101   8.490  0.00  0.00    +0.155 HD
ATOM     37  N   UNL     1      14.954  71.916   6.276  0.00  0.00    -0.214 NA
BRANCH   4   3
ATOM      1  C   UNL     1      11.560  74.880   4.633  0.00  0.00    +0.020 A 
ATOM      2  C   UNL     1      12.267  73.621   4.666  0.00  0.00    +0.013 A 
ATOM      3  C   UNL     1      13.686  73.572   4.997  0.00  0.00    +0.019 A 
ATOM     38  C   UNL     1      14.364  74.825   5.294  0.00  0.00    +0.120 A 
ATOM     39  N   UNL     1      13.657  76.022   5.254  0.00  0.00    -0.263 NA
ATOM     40  C   UNL     1      12.292  76.082   4.934  0.00  0.00    +0.111 A 
ENDBRANCH   4   3
ENDBRANCH  10   9
BRANCH  12  13
ATOM     13  N   UNL     1      16.271  65.807   9.442  0.00  0.00    -0.281 N 
ATOM     14  C   UNL     1      14.933  65.448   9.425  0.00  0.00    +0.248 C 
ATOM     30  O   UNL     1      14.025  66.181   9.062  0.00  0.00    -0.270 OA
ATOM     31  H   UNL     1      16.897  65.179   9.947  0.00  0.00    +0.155 HD
BRANCH  14  15
ATOM     15  C   UNL     1      14.546  64.082   9.892  0.00  0.00    +0.037 A 
ATOM     16  C   UNL     1      13.224  63.523   9.595  0.00  0.00    +0.013 A 
ATOM     17  C   UNL     1      12.870  62.210  10.072  0.00  0.00    +0.005 A 
ATOM     18  C   UNL     1      13.841  61.445  10.851  0.00  0.00    -0.033 A 
ATOM     28  C   UNL     1      15.147  62.021  11.127  0.00  0.00    +0.005 A 
ATOM     29  C   UNL     1      15.497  63.309  10.662  0.00  0.00    +0.013 A 
BRANCH  18  19
ATOM     19  C   UNL     1      13.542  60.045  11.418  0.00  0.00    +0.119 C 
BRANCH  19  20
ATOM     20  N   UNL     1      12.736  59.974  12.673  0.00  0.00    -0.302 NA
ATOM     21  C   UNL     1      13.620  59.876  13.919  0.00  0.00    +0.066 C 
ATOM     22  C   UNL     1      12.761  59.825  15.225  0.00  0.00    -0.064 C 
ATOM     23  N   UNL     1      11.797  58.640  15.151  0.00  0.00    +0.379 N 
ATOM     24  C   UNL     1      11.028  58.555  16.402  0.00  0.00    -0.096 C 
ATOM     25  H   UNL     1      12.408  57.712  15.066  0.00  0.00    -0.082 HD
ATOM     26  C   UNL     1      10.915  58.728  13.914  0.00  0.00    -0.064 C 
ATOM     27  C   UNL     1      11.779  58.808  12.624  0.00  0.00    +0.066 C 
ENDBRANCH  19  20
ENDBRANCH  18  19
ENDBRANCH  14  15
ENDBRANCH  12  13
TORSDOF 6
ENDMDL
MODEL 2
REMARK VINA RESULT:      -8.8      6.624     12.181
REMARK  Name = C:\Users\Docking\Desktop\test protocol\1iep_ligandH.pdb
REMARK  8 active torsions:
REMARK  status: ('A' for Active; 'I' for Inactive)
REMARK    1  A    between atoms: _5  and  _11
REMARK    2  A    between atoms: _19  and  _21
REMARK    3  A    between atoms: _22  and  _66
REMARK    4  A    between atoms: _27  and  _30
REMARK    5  A    between atoms: _32  and  _33
REMARK    6  A    between atoms: _38  and  _43
REMARK    7  A    between atoms: _43  and  _46
REMARK    8  A    between atoms: _53  and  _55
REMARK                            x       y       z     vdW  Elec       q    Type
REMARK                         _______ _______ _______ _____ _____    ______ ____
ROOT
ATOM     10  C   UNL     1      18.050  69.733   7.520  0.00  0.00    +0.038 A 
ATOM     11  C   UNL     1      18.111  70.734   8.524  0.00  0.00    +0.047 A 
ATOM     12  C   UNL     1      17.914  72.138   8.199  0.00  0.00    +0.035 A 
ATOM     32  C   UNL     1      17.654  72.488   6.842  0.00  0.00    +0.024 A 
ATOM     33  C   UNL     1      17.589  71.484   5.809  0.00  0.00    +0.007 A 
ATOM     34  C   UNL     1      17.785  70.098   6.123  0.00  0.00    -0.029 A 
ATOM     35  C   UNL     1      17.711  69.065   4.974  0.00  0.00    +0.045 C 
ENDROOT
BRANCH  10   9
ATOM      4  C   UNL     1      16.574  65.639   9.543  0.00  0.00    +0.077 A 
ATOM      5  C   UNL     1      15.315  66.211   9.924  0.00  0.00    +0.048 A 
ATOM      6  C   UNL     1      15.090  67.565   9.587  0.00  0.00    +0.116 A 
ATOM      7  N   UNL     1      16.058  68.282   8.918  0.00  0.00    -0.223 NA
ATOM      8  C   UNL     1      17.262  67.700   8.567  0.00  0.00    +0.220 A 
ATOM      9  N   UNL     1      18.247  68.400   7.888  0.00  0.00    -0.283 N 
ATOM     36  H   UNL     1      19.124  67.937   7.653  0.00  0.00    +0.155 HD
ATOM     37  N   UNL     1      17.502  66.409   8.879  0.00  0.00    -0.214 NA
BRANCH   4   3
ATOM      1  C   UNL     1      18.555  62.269   9.704  0.00  0.00    +0.020 A 
ATOM      2  C   UNL     1      18.231  63.645   9.405  0.00  0.00    +0.013 A 
ATOM      3  C   UNL     1      16.960  64.220   9.826  0.00  0.00    +0.019 A 
ATOM     38  C   UNL     1      16.031  63.369  10.555  0.00  0.00    +0.120 A 
ATOM     39  N   UNL     1      16.369  62.047  10.827  0.00  0.00    -0.263 NA
ATOM     40  C   UNL     1      17.589  61.483  10.425  0.00  0.00    +0.111 A 
ENDBRANCH   4   3
ENDBRANCH  10   9
BRANCH  12  13
ATOM     13  N   UNL     1      17.973  73.199   9.174  0.00  0.00    -0.281 N 
ATOM     14  C   UNL     1      17.019  73.542  10.118  0.00  0.00    +0.248 C 
ATOM     30  O   UNL     1      15.872  73.120  10.126  0.00  0.00    -0.270 OA
ATOM     31  H   UNL     1      18.821  73.766   9.168  0.00  0.00    +0.155 HD
BRANCH  14  15
ATOM     15  C   UNL     1      17.388  74.503  11.202  0.00  0.00    +0.037 A 
ATOM     16  C   UNL     1      18.785  74.866  11.452  0.00  0.00    +0.013 A 
ATOM     17  C   UNL     1      19.115  75.782  12.515  0.00  0.00    +0.005 A 
ATOM     18  C   UNL     1      18.044  76.343  13.335  0.00  0.00    -0.033 A 
ATOM     28  C   UNL     1      16.666  75.969  13.062  0.00  0.00    +0.005 A 
ATOM     29  C   UNL     1      16.339  75.071  12.022  0.00  0.00    +0.013 A 
BRANCH  18  19
ATOM     19  C   UNL     1      18.306  77.312  14.504  0.00  0.00    +0.119 C 
BRANCH  19  20
ATOM     20  N   UNL     1      17.861  76.880  15.862  0.00  0.00    -0.302 NA
ATOM     21  C   UNL     1      18.576  77.653  16.974  0.00  0.00    +0.066 C 
ATOM     22  C   UNL     1      18.082  77.205  18.388  0.00  0.00    -0.064 C 
ATOM     23  N   UNL     1      18.302  75.700  18.548  0.00  0.00    +0.379 N 
ATOM     24  C   UNL     1      17.893  75.285  19.898  0.00  0.00    -0.096 C 
ATOM     25  H   UNL     1      19.396  75.506  18.451  0.00  0.00    -0.082 HD
ATOM     26  C   UNL     1      17.597  74.923  17.445  0.00  0.00    -0.064 C 
ATOM     27  C   UNL     1      18.073  75.397  16.044  0.00  0.00    +0.066 C 
ENDBRANCH  19  20
ENDBRANCH  18  19
ENDBRANCH  14  15
ENDBRANCH  12  13
TORSDOF 6
ENDMDL
MODEL 3
REMARK VINA RESULT:      -8.5     17.047     20.051
REMARK  Name = C:\Users\Docking\Desktop\test protocol\1iep_ligandH.pdb
REMARK  8 active torsions:
REMARK  status: ('A' for Active; 'I' for Inactive)
REMARK    1  A    between atoms: _5  and  _11
REMARK    2  A    between atoms: _19  and  _21
REMARK    3  A    between atoms: _22  and  _66
REMARK    4  A    between atoms: _27  and  _30
REMARK    5  A    between atoms: _32  and  _33
REMARK    6  A    between atoms: _38  and  _43
REMARK    7  A    between atoms: _43  and  _46
REMARK    8  A    between atoms: _53  and  _55
REMARK                            x       y       z     vdW  Elec       q    Type
REMARK                         _______ _______ _______ _____ _____    ______ ____
ROOT
ATOM     10  C   UNL     1      23.652  57.070  -1.762  0.00  0.00    +0.038 A 
ATOM     11  C   UNL     1      22.252  56.921  -1.937  0.00  0.00    +0.047 A 
ATOM     12  C   UNL     1      21.553  57.598  -3.017  0.00  0.00    +0.035 A 
ATOM     32  C   UNL     1      22.311  58.418  -3.904  0.00  0.00    +0.024 A 
ATOM     33  C   UNL     1      23.734  58.582  -3.740  0.00  0.00    +0.007 A 
ATOM     34  C   UNL     1      24.429  57.918  -2.674  0.00  0.00    -0.029 A 
ATOM     35  C   UNL     1      25.954  58.134  -2.543  0.00  0.00    +0.045 C 
ENDROOT
BRANCH  10   9
ATOM      4  C   UNL     1      26.110  53.354   0.024  0.00  0.00    +0.077 A 
ATOM      5  C   UNL     1      26.136  52.685  -1.245  0.00  0.00    +0.048 A 
ATOM      6  C   UNL     1      25.500  53.328  -2.330  0.00  0.00    +0.116 A 
ATOM      7  N   UNL     1      24.886  54.549  -2.149  0.00  0.00    -0.223 NA
ATOM      8  C   UNL     1      24.877  55.165  -0.911  0.00  0.00    +0.220 A 
ATOM      9  N   UNL     1      24.273  56.396  -0.708  0.00  0.00    -0.283 N 
ATOM     36  H   UNL     1      24.282  56.815   0.222  0.00  0.00    +0.155 HD
ATOM     37  N   UNL     1      25.477  54.571   0.141  0.00  0.00    -0.214 NA
BRANCH   4   3
ATOM      1  C   UNL     1      27.989  53.062   3.442  0.00  0.00    +0.020 A 
ATOM      2  C   UNL     1      27.394  53.644   2.261  0.00  0.00    +0.013 A 
ATOM      3  C   UNL     1      26.741  52.804   1.265  0.00  0.00    +0.019 A 
ATOM     38  C   UNL     1      26.705  51.368   1.497  0.00  0.00    +0.120 A 
ATOM     39  N   UNL     1      27.287  50.836   2.644  0.00  0.00    -0.263 NA
ATOM     40  C   UNL     1      27.920  51.634   3.608  0.00  0.00    +0.111 A 
ENDBRANCH   4   3
ENDBRANCH  10   9
BRANCH  12  13
ATOM     13  N   UNL     1      20.132  57.491  -3.239  0.00  0.00    -0.281 N 
ATOM     14  C   UNL     1      19.386  56.342  -3.445  0.00  0.00    +0.248 C 
ATOM     30  O   UNL     1      19.863  55.242  -3.683  0.00  0.00    -0.270 OA
ATOM     31  H   UNL     1      19.613  58.369  -3.246  0.00  0.00    +0.155 HD
BRANCH  14  15
ATOM     15  C   UNL     1      17.895  56.430  -3.393  0.00  0.00    +0.037 A 
ATOM     16  C   UNL     1      17.093  55.370  -2.778  0.00  0.00    +0.013 A 
ATOM     17  C   UNL     1      15.655  55.471  -2.757  0.00  0.00    +0.005 A 
ATOM     18  C   UNL     1      15.010  56.640  -3.352  0.00  0.00    -0.033 A 
ATOM     28  C   UNL     1      15.831  57.679  -3.951  0.00  0.00    +0.005 A 
ATOM     29  C   UNL     1      17.241  57.582  -3.975  0.00  0.00    +0.013 A 
BRANCH  18  19
ATOM     19  C   UNL     1      13.482  56.821  -3.393  0.00  0.00    +0.119 C 
BRANCH  19  20
ATOM     20  N   UNL     1      12.807  56.639  -4.713  0.00  0.00    -0.302 NA
ATOM     21  C   UNL     1      13.622  55.752  -5.658  0.00  0.00    +0.066 C 
ATOM     22  C   UNL     1      12.891  55.554  -7.025  0.00  0.00    -0.064 C 
ATOM     23  N   UNL     1      12.624  56.919  -7.660  0.00  0.00    +0.379 N 
ATOM     24  C   UNL     1      11.989  56.734  -8.973  0.00  0.00    -0.096 C 
ATOM     25  H   UNL     1      13.610  57.412  -7.828  0.00  0.00    -0.082 HD
ATOM     26  C   UNL     1      11.817  57.810  -6.727  0.00  0.00    -0.064 C 
ATOM     27  C   UNL     1      12.538  57.976  -5.360  0.00  0.00    +0.066 C 
ENDBRANCH  19  20
ENDBRANCH  18  19
ENDBRANCH  14  15
ENDBRANCH  12  13
TORSDOF 6
ENDMDL
MODEL 4
REMARK VINA RESULT:      -8.5      6.795     11.374
REMARK  Name = C:\Users\Docking\Desktop\test protocol\1iep_ligandH.pdb
REMARK  8 active torsions:
REMARK  status: ('A' for Active; 'I' for Inactive)
REMARK    1  A    between atoms: _5  and  _11
REMARK    2  A    between atoms: _19  and  _21
REMARK    3  A    between atoms: _22  and  _66
REMARK    4  A    between atoms: _27  and  _30
REMARK    5  A    between atoms: _32  and  _33
REMARK    6  A    between atoms: _38  and  _43
REMARK    7  A    between atoms: _43  and  _46
REMARK    8  A    between atoms: _53  and  _55
REMARK                            x       y       z     vdW  Elec       q    Type
REMARK                         _______ _______ _______ _____ _____    ______ ____
ROOT
ATOM     10  C   UNL     1      16.452  70.283   7.785  0.00  0.00    +0.038 A 
ATOM     11  C   UNL     1      16.027  70.975   8.948  0.00  0.00    +0.047 A 
ATOM     12  C   UNL     1      15.277  72.217   8.853  0.00  0.00    +0.035 A 
ATOM     32  C   UNL     1      14.974  72.726   7.556  0.00  0.00    +0.024 A 
ATOM     33  C   UNL     1      15.399  72.037   6.364  0.00  0.00    +0.007 A 
ATOM     34  C   UNL     1      16.141  70.811   6.451  0.00  0.00    -0.029 A 
ATOM     35  C   UNL     1      16.576  70.118   5.139  0.00  0.00    +0.045 C 
ENDROOT
BRANCH  10   9
ATOM      4  C   UNL     1      16.872  65.761   9.338  0.00  0.00    +0.077 A 
ATOM      5  C   UNL     1      15.563  65.778   9.925  0.00  0.00    +0.048 A 
ATOM      6  C   UNL     1      14.817  66.972   9.811  0.00  0.00    +0.116 A 
ATOM      7  N   UNL     1      15.349  68.062   9.157  0.00  0.00    -0.223 NA
ATOM      8  C   UNL     1      16.616  68.013   8.604  0.00  0.00    +0.220 A 
ATOM      9  N   UNL     1      17.169  69.094   7.935  0.00  0.00    -0.283 N 
ATOM     36  H   UNL     1      18.109  69.020   7.547  0.00  0.00    +0.155 HD
ATOM     37  N   UNL     1      17.350  66.884   8.701  0.00  0.00    -0.214 NA
BRANCH   4   3
ATOM      1  C   UNL     1      18.332  62.196  10.019  0.00  0.00    +0.020 A 
ATOM      2  C   UNL     1      17.417  63.315  10.014  0.00  0.00    +0.013 A 
ATOM      3  C   UNL     1      17.782  64.572   9.373  0.00  0.00    +0.019 A 
ATOM     38  C   UNL     1      19.088  64.665   8.740  0.00  0.00    +0.120 A 
ATOM     39  N   UNL     1      19.949  63.572   8.762  0.00  0.00    -0.263 NA
ATOM     40  C   UNL     1      19.610  62.358   9.377  0.00  0.00    +0.111 A 
ENDBRANCH   4   3
ENDBRANCH  10   9
BRANCH  12  13
ATOM     13  N   UNL     1      14.827  72.968   9.999  0.00  0.00    -0.281 N 
ATOM     14  C   UNL     1      13.651  72.807  10.714  0.00  0.00    +0.248 C 
ATOM     30  O   UNL     1      12.704  72.130  10.343  0.00  0.00    -0.270 OA
ATOM     31  H   UNL     1      15.451  73.707  10.322  0.00  0.00    +0.155 HD
BRANCH  14  15
ATOM     15  C   UNL     1      13.500  73.513  12.022  0.00  0.00    +0.037 A 
ATOM     16  C   UNL     1      12.189  73.968  12.493  0.00  0.00    +0.013 A 
ATOM     17  C   UNL     1      12.073  74.661  13.752  0.00  0.00    +0.005 A 
ATOM     18  C   UNL     1      13.273  74.902  14.549  0.00  0.00    -0.033 A 
ATOM     28  C   UNL     1      14.560  74.436  14.061  0.00  0.00    +0.005 A 
ATOM     29  C   UNL     1      14.678  73.757  12.827  0.00  0.00    +0.013 A 
BRANCH  18  19
ATOM     19  C   UNL     1      13.247  75.653  15.894  0.00  0.00    +0.119 C 
BRANCH  19  20
ATOM     20  N   UNL     1      14.394  75.431  16.824  0.00  0.00    -0.302 NA
ATOM     21  C   UNL     1      14.286  74.093  17.561  0.00  0.00    +0.066 C 
ATOM     22  C   UNL     1      15.506  73.868  18.513  0.00  0.00    -0.064 C 
ATOM     23  N   UNL     1      15.597  75.028  19.505  0.00  0.00    +0.379 N 
ATOM     24  C   UNL     1      16.708  74.790  20.438  0.00  0.00    -0.096 C 
ATOM     25  H   UNL     1      14.654  75.039  20.099  0.00  0.00    -0.082 HD
ATOM     26  C   UNL     1      15.702  76.362  18.780  0.00  0.00    -0.064 C 
ATOM     27  C   UNL     1      14.500  76.563  17.816  0.00  0.00    +0.066 C 
ENDBRANCH  19  20
ENDBRANCH  18  19
ENDBRANCH  14  15
ENDBRANCH  12  13
TORSDOF 6
ENDMDL
MODEL 5
REMARK VINA RESULT:      -8.1     16.832     18.585
REMARK  Name = C:\Users\Docking\Desktop\test protocol\1iep_ligandH.pdb
REMARK  8 active torsions:
REMARK  status: ('A' for Active; 'I' for Inactive)
REMARK    1  A    between atoms: _5  and  _11
REMARK    2  A    between atoms: _19  and  _21
REMARK    3  A    between atoms: _22  and  _66
REMARK    4  A    between atoms: _27  and  _30
REMARK    5  A    between atoms: _32  and  _33
REMARK    6  A    between atoms: _38  and  _43
REMARK    7  A    between atoms: _43  and  _46
REMARK    8  A    between atoms: _53  and  _55
REMARK                            x       y       z     vdW  Elec       q    Type
REMARK                         _______ _______ _______ _____ _____    ______ ____
ROOT
ATOM     10  C   UNL     1      21.364  58.263  -3.718  0.00  0.00    +0.038 A 
ATOM     11  C   UNL     1      22.177  57.388  -2.954  0.00  0.00    +0.047 A 
ATOM     12  C   UNL     1      23.615  57.319  -3.165  0.00  0.00    +0.035 A 
ATOM     32  C   UNL     1      24.192  58.159  -4.162  0.00  0.00    +0.024 A 
ATOM     33  C   UNL     1      23.380  59.053  -4.949  0.00  0.00    +0.007 A 
ATOM     34  C   UNL     1      21.961  59.124  -4.747  0.00  0.00    -0.029 A 
ATOM     35  C   UNL     1      21.139  60.096  -5.624  0.00  0.00    +0.045 C 
ENDROOT
BRANCH  10   9
ATOM      4  C   UNL     1      16.951  56.428  -4.164  0.00  0.00    +0.077 A 
ATOM      5  C   UNL     1      17.420  55.342  -4.975  0.00  0.00    +0.048 A 
ATOM      6  C   UNL     1      18.803  55.296  -5.261  0.00  0.00    +0.116 A 
ATOM      7  N   UNL     1      19.645  56.269  -4.766  0.00  0.00    -0.223 NA
ATOM      8  C   UNL     1      19.160  57.304  -3.988  0.00  0.00    +0.220 A 
ATOM      9  N   UNL     1      19.989  58.288  -3.473  0.00  0.00    -0.283 N 
ATOM     36  H   UNL     1      19.591  59.039  -2.910  0.00  0.00    +0.155 HD
ATOM     37  N   UNL     1      17.843  57.371  -3.702  0.00  0.00    -0.214 NA
BRANCH   4   3
ATOM      1  C   UNL     1      13.701  57.045  -2.077  0.00  0.00    +0.020 A 
ATOM      2  C   UNL     1      15.098  56.875  -2.402  0.00  0.00    +0.013 A 
ATOM      3  C   UNL     1      15.518  56.612  -3.773  0.00  0.00    +0.019 A 
ATOM     38  C   UNL     1      14.490  56.529  -4.800  0.00  0.00    +0.120 A 
ATOM     39  N   UNL     1      13.152  56.696  -4.457  0.00  0.00    -0.263 NA
ATOM     40  C   UNL     1      12.736  56.947  -3.141  0.00  0.00    +0.111 A 
ENDBRANCH   4   3
ENDBRANCH  10   9
BRANCH  12  13
ATOM     13  N   UNL     1      24.490  56.444  -2.425  0.00  0.00    -0.281 N 
ATOM     14  C   UNL     1      24.731  56.436  -1.061  0.00  0.00    +0.248 C 
ATOM     30  O   UNL     1      24.390  57.324  -0.293  0.00  0.00    -0.270 OA
ATOM     31  H   UNL     1      24.992  55.746  -2.973  0.00  0.00    +0.155 HD
BRANCH  14  15
ATOM     15  C   UNL     1      25.469  55.281  -0.465  0.00  0.00    +0.037 A 
ATOM     16  C   UNL     1      25.552  55.099   0.986  0.00  0.00    +0.013 A 
ATOM     17  C   UNL     1      26.285  53.985   1.535  0.00  0.00    +0.005 A 
ATOM     18  C   UNL     1      26.940  53.044   0.630  0.00  0.00    -0.033 A 
ATOM     28  C   UNL     1      26.838  53.245  -0.806  0.00  0.00    +0.005 A 
ATOM     29  C   UNL     1      26.121  54.336  -1.347  0.00  0.00    +0.013 A 
BRANCH  18  19
ATOM     19  C   UNL     1      27.761  51.839   1.128  0.00  0.00    +0.119 C 
BRANCH  19  20
ATOM     20  N   UNL     1      27.201  51.054   2.267  0.00  0.00    -0.302 NA
ATOM     21  C   UNL     1      28.300  50.485   3.168  0.00  0.00    +0.066 C 
ATOM     22  C   UNL     1      27.696  49.685   4.368  0.00  0.00    -0.064 C 
ATOM     23  N   UNL     1      26.802  48.565   3.832  0.00  0.00    +0.379 N 
ATOM     24  C   UNL     1      26.278  47.775   4.955  0.00  0.00    -0.096 C 
ATOM     25  H   UNL     1      27.439  47.892   3.212  0.00  0.00    -0.082 HD
ATOM     26  C   UNL     1      25.707  49.122   2.932  0.00  0.00    -0.064 C 
ATOM     27  C   UNL     1      26.318  49.940   1.760  0.00  0.00    +0.066 C 
ENDBRANCH  19  20
ENDBRANCH  18  19
ENDBRANCH  14  15
ENDBRANCH  12  13
TORSDOF 6
ENDMDL
