MODEL 1
REMARK VINA RESULT:      -9.0      0.000      0.000
REMARK  Name = C:\Users\Docking\Desktop\test protocol\1iep_ligandH.pdb
REMARK  8 active torsions:
REMARK  status: ('A' for Active; 'I' for Inactive)
REMARK    1  A    between atoms: _5  and  _11
REMARK    2  A    between atoms: _19  and  _21
REMARK    3  A    between atoms: _22  and  _66
REMARK    4  A    between atoms: _27  and  _30
REMARK    5  A    between atoms: _32  and  _33
REMARK    6  A    between atoms: _38  and  _43
REMARK    7  A    between atoms: _43  and  _46
REMARK    8  A    between atoms: _53  and  _55
REMARK                            x       y       z     vdW  Elec       q    Type
REMARK                         _______ _______ _______ _____ _____    ______ ____
ROOT
ATOM     10  C   UNL     1      18.396  24.448   7.410  0.00  0.00    +0.038 A 
ATOM     11  C   UNL     1      18.123  25.377   8.446  0.00  0.00    +0.047 A 
ATOM     12  C   UNL     1      18.045  26.804   8.175  0.00  0.00    +0.035 A 
ATOM     32  C   UNL     1      18.248  27.250   6.836  0.00  0.00    +0.024 A 
ATOM     33  C   UNL     1      18.527  26.319   5.771  0.00  0.00    +0.007 A 
ATOM     34  C   UNL     1      18.607  24.910   6.033  0.00  0.00    -0.029 A 
ATOM     35  C   UNL     1      18.916  23.958   4.854  0.00  0.00    +0.045 C 
ENDROOT
BRANCH  10   9
ATOM      4  C   UNL     1      16.579  20.476   9.402  0.00  0.00    +0.077 A 
ATOM      5  C   UNL     1      15.418  21.174   9.875  0.00  0.00    +0.048 A 
ATOM      6  C   UNL     1      15.330  22.555   9.591  0.00  0.00    +0.116 A 
ATOM      7  N   UNL     1      16.334  23.182   8.885  0.00  0.00    -0.223 NA
ATOM      8  C   UNL     1      17.441  22.480   8.445  0.00  0.00    +0.220 A 
ATOM      9  N   UNL     1      18.459  23.089   7.727  0.00  0.00    -0.283 N 
ATOM     36  H   UNL     1      19.263  22.538   7.426  0.00  0.00    +0.155 HD
ATOM     37  N   UNL     1      17.549  21.161   8.704  0.00  0.00    -0.214 NA
BRANCH   4   3
ATOM      1  C   UNL     1      16.032  16.682  10.181  0.00  0.00    +0.020 A 
ATOM      2  C   UNL     1      15.751  18.086   9.982  0.00  0.00    +0.013 A 
ATOM      3  C   UNL     1      16.815  19.014   9.620  0.00  0.00    +0.019 A 
ATOM     38  C   UNL     1      18.162  18.486   9.464  0.00  0.00    +0.120 A 
ATOM     39  N   UNL     1      18.402  17.130   9.663  0.00  0.00    -0.263 NA
ATOM     40  C   UNL     1      17.387  16.228  10.014  0.00  0.00    +0.111 A 
ENDBRANCH   4   3
ENDBRANCH  10   9
BRANCH  12  13
ATOM     13  N   UNL     1      17.780  27.796   9.188  0.00  0.00    -0.281 N 
ATOM     14  C   UNL     1      16.577  28.069   9.818  0.00  0.00    +0.248 C 
ATOM     30  O   UNL     1      15.492  27.643   9.450  0.00  0.00    -0.270 OA
ATOM     31  H   UNL     1      18.576  28.366   9.475  0.00  0.00    +0.155 HD
BRANCH  14  15
ATOM     15  C   UNL     1      16.577  28.955  11.021  0.00  0.00    +0.037 A 
ATOM     16  C   UNL     1      17.826  29.473  11.583  0.00  0.00    +0.013 A 
ATOM     17  C   UNL     1      17.799  30.312  12.755  0.00  0.00    +0.005 A 
ATOM     18  C   UNL     1      16.516  30.640  13.371  0.00  0.00    -0.033 A 
ATOM     28  C   UNL     1      15.291  30.117  12.790  0.00  0.00    +0.005 A 
ATOM     29  C   UNL     1      15.314  29.294  11.642  0.00  0.00    +0.013 A 
BRANCH  18  19
ATOM     19  C   UNL     1      16.394  31.511  14.636  0.00  0.00    +0.119 C 
BRANCH  19  20
ATOM     20  N   UNL     1      17.019  30.991  15.888  0.00  0.00    -0.302 NA
ATOM     21  C   UNL     1      16.631  29.535  16.162  0.00  0.00    +0.066 C 
ATOM     22  C   UNL     1      17.312  28.999  17.463  0.00  0.00    -0.064 C 
ATOM     23  N   UNL     1      16.926  29.894  18.643  0.00  0.00    +0.379 N 
ATOM     24  C   UNL     1      17.518  29.360  19.878  0.00  0.00    -0.096 C 
ATOM     25  H   UNL     1      15.818  29.850  18.752  0.00  0.00    -0.082 HD
ATOM     26  C   UNL     1      17.306  31.344  18.377  0.00  0.00    -0.064 C 
ATOM     27  C   UNL     1      16.648  31.857  17.066  0.00  0.00    +0.066 C 
ENDBRANCH  19  20
ENDBRANCH  18  19
ENDBRANCH  14  15
ENDBRANCH  12  13
TORSDOF 6
ENDMDL
MODEL 2
REMARK VINA RESULT:      -8.4      2.444      3.057
REMARK  Name = C:\Users\Docking\Desktop\test protocol\1iep_ligandH.pdb
REMARK  8 active torsions:
REMARK  status: ('A' for Active; 'I' for Inactive)
REMARK    1  A    between atoms: _5  and  _11
REMARK    2  A    between atoms: _19  and  _21
REMARK    3  A    between atoms: _22  and  _66
REMARK    4  A    between atoms: _27  and  _30
REMARK    5  A    between atoms: _32  and  _33
REMARK    6  A    between atoms: _38  and  _43
REMARK    7  A    between atoms: _43  and  _46
REMARK    8  A    between atoms: _53  and  _55
REMARK                            x       y       z     vdW  Elec       q    Type
REMARK                         _______ _______ _______ _____ _____    ______ ____
ROOT
ATOM     10  C   UNL     1      14.397  24.380   8.495  0.00  0.00    +0.038 A 
ATOM     11  C   UNL     1      14.371  25.254   9.611  0.00  0.00    +0.047 A 
ATOM     12  C   UNL     1      14.174  26.686   9.441  0.00  0.00    +0.035 A 
ATOM     32  C   UNL     1      14.005  27.192   8.120  0.00  0.00    +0.024 A 
ATOM     33  C   UNL     1      14.030  26.318   6.974  0.00  0.00    +0.007 A 
ATOM     34  C   UNL     1      14.225  24.905   7.135  0.00  0.00    -0.029 A 
ATOM     35  C   UNL     1      14.250  24.016   5.870  0.00  0.00    +0.045 C 
ENDROOT
BRANCH  10   9
ATOM      4  C   UNL     1      17.212  20.579   9.311  0.00  0.00    +0.077 A 
ATOM      5  C   UNL     1      18.403  21.377   9.267  0.00  0.00    +0.048 A 
ATOM      6  C   UNL     1      18.248  22.761   9.025  0.00  0.00    +0.116 A 
ATOM      7  N   UNL     1      16.991  23.295   8.842  0.00  0.00    -0.223 NA
ATOM      8  C   UNL     1      15.863  22.497   8.889  0.00  0.00    +0.220 A 
ATOM      9  N   UNL     1      14.589  23.014   8.716  0.00  0.00    -0.283 N 
ATOM     36  H   UNL     1      13.782  22.391   8.750  0.00  0.00    +0.155 HD
ATOM     37  N   UNL     1      15.984  21.172   9.118  0.00  0.00    -0.214 NA
BRANCH   4   3
ATOM      1  C   UNL     1      16.076  16.946  10.212  0.00  0.00    +0.020 A 
ATOM      2  C   UNL     1      16.023  18.371   9.985  0.00  0.00    +0.013 A 
ATOM      3  C   UNL     1      17.211  19.103   9.561  0.00  0.00    +0.019 A 
ATOM     38  C   UNL     1      18.445  18.355   9.374  0.00  0.00    +0.120 A 
ATOM     39  N   UNL     1      18.467  16.983   9.602  0.00  0.00    -0.263 NA
ATOM     40  C   UNL     1      17.331  16.269  10.011  0.00  0.00    +0.111 A 
ENDBRANCH   4   3
ENDBRANCH  10   9
BRANCH  12  13
ATOM     13  N   UNL     1      14.147  27.623  10.536  0.00  0.00    -0.281 N 
ATOM     14  C   UNL     1      13.039  28.123  11.202  0.00  0.00    +0.248 C 
ATOM     30  O   UNL     1      11.887  28.001  10.814  0.00  0.00    -0.270 OA
ATOM     31  H   UNL     1      15.054  27.960  10.860  0.00  0.00    +0.155 HD
BRANCH  14  15
ATOM     15  C   UNL     1      13.243  28.879  12.475  0.00  0.00    +0.037 A 
ATOM     16  C   UNL     1      12.153  29.643  13.088  0.00  0.00    +0.013 A 
ATOM     17  C   UNL     1      12.380  30.377  14.307  0.00  0.00    +0.005 A 
ATOM     18  C   UNL     1      13.705  30.350  14.923  0.00  0.00    -0.033 A 
ATOM     28  C   UNL     1      14.767  29.580  14.296  0.00  0.00    +0.005 A 
ATOM     29  C   UNL     1      14.548  28.860  13.101  0.00  0.00    +0.013 A 
BRANCH  18  19
ATOM     19  C   UNL     1      14.044  31.121  16.212  0.00  0.00    +0.119 C 
BRANCH  19  20
ATOM     20  N   UNL     1      15.146  30.581  17.062  0.00  0.00    -0.302 NA
ATOM     21  C   UNL     1      14.640  30.114  18.430  0.00  0.00    +0.066 C 
ATOM     22  C   UNL     1      15.802  29.531  19.298  0.00  0.00    -0.064 C 
ATOM     23  N   UNL     1      16.897  30.588  19.457  0.00  0.00    +0.379 N 
ATOM     24  C   UNL     1      17.964  30.062  20.321  0.00  0.00    -0.096 C 
ATOM     25  H   UNL     1      16.445  31.466  19.974  0.00  0.00    -0.082 HD
ATOM     26  C   UNL     1      17.403  31.059  18.102  0.00  0.00    -0.064 C 
ATOM     27  C   UNL     1      16.236  31.610  17.236  0.00  0.00    +0.066 C 
ENDBRANCH  19  20
ENDBRANCH  18  19
ENDBRANCH  14  15
ENDBRANCH  12  13
TORSDOF 6
ENDMDL
MODEL 3
REMARK VINA RESULT:      -8.2     19.264     22.228
REMARK  Name = C:\Users\Docking\Desktop\test protocol\1iep_ligandH.pdb
REMARK  8 active torsions:
REMARK  status: ('A' for Active; 'I' for Inactive)
REMARK    1  A    between atoms: _5  and  _11
REMARK    2  A    between atoms: _19  and  _21
REMARK    3  A    between atoms: _22  and  _66
REMARK    4  A    between atoms: _27  and  _30
REMARK    5  A    between atoms: _32  and  _33
REMARK    6  A    between atoms: _38  and  _43
REMARK    7  A    between atoms: _43  and  _46
REMARK    8  A    between atoms: _53  and  _55
REMARK                            x       y       z     vdW  Elec       q    Type
REMARK                         _______ _______ _______ _____ _____    ______ ____
ROOT
ATOM     10  C   UNL     1      24.086  12.037  -2.880  0.00  0.00    +0.038 A 
ATOM     11  C   UNL     1      22.706  12.259  -2.639  0.00  0.00    +0.047 A 
ATOM     12  C   UNL     1      21.698  11.329  -3.124  0.00  0.00    +0.035 A 
ATOM     32  C   UNL     1      22.132  10.181  -3.849  0.00  0.00    +0.024 A 
ATOM     33  C   UNL     1      23.530   9.940  -4.104  0.00  0.00    +0.007 A 
ATOM     34  C   UNL     1      24.529  10.856  -3.630  0.00  0.00    -0.029 A 
ATOM     35  C   UNL     1      26.013  10.550  -3.938  0.00  0.00    +0.045 C 
ENDROOT
BRANCH  10   9
ATOM      4  C   UNL     1      26.800  15.967  -3.359  0.00  0.00    +0.077 A 
ATOM      5  C   UNL     1      26.358  16.179  -4.708  0.00  0.00    +0.048 A 
ATOM      6  C   UNL     1      25.438  15.250  -5.243  0.00  0.00    +0.116 A 
ATOM      7  N   UNL     1      24.999  14.192  -4.478  0.00  0.00    -0.223 NA
ATOM      8  C   UNL     1      25.446  14.015  -3.181  0.00  0.00    +0.220 A 
ATOM      9  N   UNL     1      25.011  12.962  -2.391  0.00  0.00    -0.283 N 
ATOM     36  H   UNL     1      25.370  12.862  -1.442  0.00  0.00    +0.155 HD
ATOM     37  N   UNL     1      26.326  14.887  -2.647  0.00  0.00    -0.214 NA
BRANCH   4   3
ATOM      1  C   UNL     1      28.973  17.668  -0.587  0.00  0.00    +0.020 A 
ATOM      2  C   UNL     1      28.027  16.778  -1.221  0.00  0.00    +0.013 A 
ATOM      3  C   UNL     1      27.769  16.863  -2.652  0.00  0.00    +0.019 A 
ATOM     38  C   UNL     1      28.490  17.867  -3.421  0.00  0.00    +0.120 A 
ATOM     39  N   UNL     1      29.394  18.711  -2.783  0.00  0.00    -0.263 NA
ATOM     40  C   UNL     1      29.649  18.639  -1.405  0.00  0.00    +0.111 A 
ENDBRANCH   4   3
ENDBRANCH  10   9
BRANCH  12  13
ATOM     13  N   UNL     1      20.282  11.507  -2.917  0.00  0.00    -0.281 N 
ATOM     14  C   UNL     1      19.349  12.017  -3.804  0.00  0.00    +0.248 C 
ATOM     30  O   UNL     1      19.628  12.600  -4.841  0.00  0.00    -0.270 OA
ATOM     31  H   UNL     1      19.925  11.222  -2.005  0.00  0.00    +0.155 HD
BRANCH  14  15
ATOM     15  C   UNL     1      17.896  11.872  -3.487  0.00  0.00    +0.037 A 
ATOM     16  C   UNL     1      17.377  10.666  -2.836  0.00  0.00    +0.013 A 
ATOM     17  C   UNL     1      15.968  10.544  -2.557  0.00  0.00    +0.005 A 
ATOM     18  C   UNL     1      15.068  11.633  -2.927  0.00  0.00    -0.033 A 
ATOM     28  C   UNL     1      15.610  12.820  -3.567  0.00  0.00    +0.005 A 
ATOM     29  C   UNL     1      16.990  12.943  -3.843  0.00  0.00    +0.013 A 
BRANCH  18  19
ATOM     19  C   UNL     1      13.548  11.580  -2.686  0.00  0.00    +0.119 C 
BRANCH  19  20
ATOM     20  N   UNL     1      12.689  11.151  -3.830  0.00  0.00    -0.302 NA
ATOM     21  C   UNL     1      13.395  10.132  -4.729  0.00  0.00    +0.066 C 
ATOM     22  C   UNL     1      12.474   9.678  -5.907  0.00  0.00    -0.064 C 
ATOM     23  N   UNL     1      12.041  10.903  -6.714  0.00  0.00    +0.379 N 
ATOM     24  C   UNL     1      11.222  10.474  -7.857  0.00  0.00    -0.096 C 
ATOM     25  H   UNL     1      12.962  11.383  -7.119  0.00  0.00    -0.082 HD
ATOM     26  C   UNL     1      11.341  11.923  -5.828  0.00  0.00    -0.064 C 
ATOM     27  C   UNL     1      12.254  12.345  -4.643  0.00  0.00    +0.066 C 
ENDBRANCH  19  20
ENDBRANCH  18  19
ENDBRANCH  14  15
ENDBRANCH  12  13
TORSDOF 6
ENDMDL
MODEL 4
REMARK VINA RESULT:      -8.0      3.543     11.250
REMARK  Name = C:\Users\Docking\Desktop\test protocol\1iep_ligandH.pdb
REMARK  8 active torsions:
REMARK  status: ('A' for Active; 'I' for Inactive)
REMARK    1  A    between atoms: _5  and  _11
REMARK    2  A    between atoms: _19  and  _21
REMARK    3  A    between atoms: _22  and  _66
REMARK    4  A    between atoms: _27  and  _30
REMARK    5  A    between atoms: _32  and  _33
REMARK    6  A    between atoms: _38  and  _43
REMARK    7  A    between atoms: _43  and  _46
REMARK    8  A    between atoms: _53  and  _55
REMARK                            x       y       z     vdW  Elec       q    Type
REMARK                         _______ _______ _______ _____ _____    ______ ____
ROOT
ATOM     10  C   UNL     1      16.978  26.490   7.538  0.00  0.00    +0.038 A 
ATOM     11  C   UNL     1      16.872  25.322   8.335  0.00  0.00    +0.047 A 
ATOM     12  C   UNL     1      16.325  24.088   7.794  0.00  0.00    +0.035 A 
ATOM     32  C   UNL     1      15.899  24.077   6.434  0.00  0.00    +0.024 A 
ATOM     33  C   UNL     1      15.998  25.256   5.609  0.00  0.00    +0.007 A 
ATOM     34  C   UNL     1      16.534  26.477   6.139  0.00  0.00    -0.029 A 
ATOM     35  C   UNL     1      16.611  27.711   5.210  0.00  0.00    +0.045 C 
ENDROOT
BRANCH  10   9
ATOM      4  C   UNL     1      16.570  30.492  10.156  0.00  0.00    +0.077 A 
ATOM      5  C   UNL     1      15.170  30.271  10.383  0.00  0.00    +0.048 A 
ATOM      6  C   UNL     1      14.592  29.120   9.802  0.00  0.00    +0.116 A 
ATOM      7  N   UNL     1      15.366  28.260   9.053  0.00  0.00    -0.223 NA
ATOM      8  C   UNL     1      16.712  28.503   8.852  0.00  0.00    +0.220 A 
ATOM      9  N   UNL     1      17.511  27.648   8.109  0.00  0.00    -0.283 N 
ATOM     36  H   UNL     1      18.498  27.866   7.978  0.00  0.00    +0.155 HD
ATOM     37  N   UNL     1      17.288  29.596   9.395  0.00  0.00    -0.214 NA
BRANCH   4   3
ATOM      1  C   UNL     1      17.699  34.137  11.013  0.00  0.00    +0.020 A 
ATOM      2  C   UNL     1      16.935  33.044  10.458  0.00  0.00    +0.013 A 
ATOM      3  C   UNL     1      17.325  31.661  10.706  0.00  0.00    +0.019 A 
ATOM     38  C   UNL     1      18.501  31.418  11.527  0.00  0.00    +0.120 A 
ATOM     39  N   UNL     1      19.218  32.491  12.047  0.00  0.00    -0.263 NA
ATOM     40  C   UNL     1      18.854  33.826  11.814  0.00  0.00    +0.111 A 
ENDBRANCH   4   3
ENDBRANCH  10   9
BRANCH  12  13
ATOM     13  N   UNL     1      16.186  22.873   8.558  0.00  0.00    -0.281 N 
ATOM     14  C   UNL     1      15.019  22.292   9.028  0.00  0.00    +0.248 C 
ATOM     30  O   UNL     1      13.930  22.845   9.045  0.00  0.00    -0.270 OA
ATOM     31  H   UNL     1      17.052  22.382   8.780  0.00  0.00    +0.155 HD
BRANCH  14  15
ATOM     15  C   UNL     1      15.074  20.901   9.572  0.00  0.00    +0.037 A 
ATOM     16  C   UNL     1      16.231  20.428  10.337  0.00  0.00    +0.013 A 
ATOM     17  C   UNL     1      16.265  19.076  10.835  0.00  0.00    +0.005 A 
ATOM     18  C   UNL     1      15.137  18.186  10.570  0.00  0.00    -0.033 A 
ATOM     28  C   UNL     1      14.000  18.683   9.813  0.00  0.00    +0.005 A 
ATOM     29  C   UNL     1      13.963  20.007   9.322  0.00  0.00    +0.013 A 
BRANCH  18  19
ATOM     19  C   UNL     1      15.097  16.722  11.045  0.00  0.00    +0.119 C 
BRANCH  19  20
ATOM     20  N   UNL     1      14.217  16.404  12.208  0.00  0.00    -0.302 NA
ATOM     21  C   UNL     1      15.024  16.053  13.461  0.00  0.00    +0.066 C 
ATOM     22  C   UNL     1      14.087  15.745  14.674  0.00  0.00    -0.064 C 
ATOM     23  N   UNL     1      13.138  14.604  14.305  0.00  0.00    +0.379 N 
ATOM     24  C   UNL     1      12.295  14.273  15.463  0.00  0.00    -0.096 C 
ATOM     25  H   UNL     1      13.760  13.709  14.072  0.00  0.00    -0.082 HD
ATOM     26  C   UNL     1      12.333  14.943  13.058  0.00  0.00    -0.064 C 
ATOM     27  C   UNL     1      13.274  15.276  11.867  0.00  0.00    +0.066 C 
ENDBRANCH  19  20
ENDBRANCH  18  19
ENDBRANCH  14  15
ENDBRANCH  12  13
TORSDOF 6
ENDMDL
MODEL 5
REMARK VINA RESULT:      -7.9     20.128     22.848
REMARK  Name = C:\Users\Docking\Desktop\test protocol\1iep_ligandH.pdb
REMARK  8 active torsions:
REMARK  status: ('A' for Active; 'I' for Inactive)
REMARK    1  A    between atoms: _5  and  _11
REMARK    2  A    between atoms: _19  and  _21
REMARK    3  A    between atoms: _22  and  _66
REMARK    4  A    between atoms: _27  and  _30
REMARK    5  A    between atoms: _32  and  _33
REMARK    6  A    between atoms: _38  and  _43
REMARK    7  A    between atoms: _43  and  _46
REMARK    8  A    between atoms: _53  and  _55
REMARK                            x       y       z     vdW  Elec       q    Type
REMARK                         _______ _______ _______ _____ _____    ______ ____
ROOT
ATOM     10  C   UNL     1      22.729  11.979  -2.732  0.00  0.00    +0.038 A 
ATOM     11  C   UNL     1      23.326  10.950  -1.961  0.00  0.00    +0.047 A 
ATOM     12  C   UNL     1      24.739  10.632  -2.095  0.00  0.00    +0.035 A 
ATOM     32  C   UNL     1      25.516  11.385  -3.023  0.00  0.00    +0.024 A 
ATOM     33  C   UNL     1      24.925  12.435  -3.816  0.00  0.00    +0.007 A 
ATOM     34  C   UNL     1      23.531  12.751  -3.689  0.00  0.00    -0.029 A 
ATOM     35  C   UNL     1      22.949  13.882  -4.569  0.00  0.00    +0.045 C 
ENDROOT
BRANCH  10   9
ATOM      4  C   UNL     1      18.097  10.932  -3.431  0.00  0.00    +0.077 A 
ATOM      5  C   UNL     1      18.416   9.779  -4.222  0.00  0.00    +0.048 A 
ATOM      6  C   UNL     1      19.784   9.494  -4.432  0.00  0.00    +0.116 A 
ATOM      7  N   UNL     1      20.752  10.308  -3.885  0.00  0.00    -0.223 NA
ATOM      8  C   UNL     1      20.410  11.414  -3.128  0.00  0.00    +0.220 A 
ATOM      9  N   UNL     1      21.367  12.242  -2.563  0.00  0.00    -0.283 N 
ATOM     36  H   UNL     1      21.074  13.052  -2.017  0.00  0.00    +0.155 HD
ATOM     37  N   UNL     1      19.111  11.708  -2.915  0.00  0.00    -0.214 NA
BRANCH   4   3
ATOM      1  C   UNL     1      14.804  13.028  -3.175  0.00  0.00    +0.020 A 
ATOM      2  C   UNL     1      16.163  12.662  -3.502  0.00  0.00    +0.013 A 
ATOM      3  C   UNL     1      16.698  11.362  -3.117  0.00  0.00    +0.019 A 
ATOM     38  C   UNL     1      15.823  10.447  -2.398  0.00  0.00    +0.120 A 
ATOM     39  N   UNL     1      14.520  10.828  -2.096  0.00  0.00    -0.263 NA
ATOM     40  C   UNL     1      13.995  12.077  -2.460  0.00  0.00    +0.111 A 
ENDBRANCH   4   3
ENDBRANCH  10   9
BRANCH  12  13
ATOM     13  N   UNL     1      25.398   9.592  -1.345  0.00  0.00    -0.281 N 
ATOM     14  C   UNL     1      25.544   9.495   0.029  0.00  0.00    +0.248 C 
ATOM     30  O   UNL     1      25.313  10.402   0.814  0.00  0.00    -0.270 OA
ATOM     31  H   UNL     1      25.807   8.836  -1.894  0.00  0.00    +0.155 HD
BRANCH  14  15
ATOM     15  C   UNL     1      26.030   8.208   0.615  0.00  0.00    +0.037 A 
ATOM     16  C   UNL     1      26.011   6.965  -0.161  0.00  0.00    +0.013 A 
ATOM     17  C   UNL     1      26.470   5.735   0.434  0.00  0.00    +0.005 A 
ATOM     18  C   UNL     1      26.953   5.742   1.812  0.00  0.00    -0.033 A 
ATOM     28  C   UNL     1      26.966   6.991   2.557  0.00  0.00    +0.005 A 
ATOM     29  C   UNL     1      26.516   8.198   1.978  0.00  0.00    +0.013 A 
BRANCH  18  19
ATOM     19  C   UNL     1      27.442   4.473   2.534  0.00  0.00    +0.119 C 
BRANCH  19  20
ATOM     20  N   UNL     1      26.862   4.185   3.880  0.00  0.00    -0.302 NA
ATOM     21  C   UNL     1      27.884   3.538   4.819  0.00  0.00    +0.066 C 
ATOM     22  C   UNL     1      27.267   3.265   6.230  0.00  0.00    -0.064 C 
ATOM     23  N   UNL     1      26.031   2.376   6.079  0.00  0.00    +0.379 N 
ATOM     24  C   UNL     1      25.482   2.070   7.408  0.00  0.00    -0.096 C 
ATOM     25  H   UNL     1      26.359   1.416   5.619  0.00  0.00    -0.082 HD
ATOM     26  C   UNL     1      25.011   3.011   5.144  0.00  0.00    -0.064 C 
ATOM     27  C   UNL     1      25.642   3.305   3.755  0.00  0.00    +0.066 C 
ENDBRANCH  19  20
ENDBRANCH  18  19
ENDBRANCH  14  15
ENDBRANCH  12  13
TORSDOF 6
ENDMDL
