MODEL 1
REMARK VINA RESULT:      -9.9      0.000      0.000
REMARK  Name = C:\Users\Docking\Desktop\test protocol\1iep_ligandH.pdb
REMARK  8 active torsions:
REMARK  status: ('A' for Active; 'I' for Inactive)
REMARK    1  A    between atoms: _5  and  _11
REMARK    2  A    between atoms: _19  and  _21
REMARK    3  A    between atoms: _22  and  _66
REMARK    4  A    between atoms: _27  and  _30
REMARK    5  A    between atoms: _32  and  _33
REMARK    6  A    between atoms: _38  and  _43
REMARK    7  A    between atoms: _43  and  _46
REMARK    8  A    between atoms: _53  and  _55
REMARK                            x       y       z     vdW  Elec       q    Type
REMARK                         _______ _______ _______ _____ _____    ______ ____
ROOT
ATOM     10  C   UNL     1      25.784  63.803  28.542  0.00  0.00    +0.038 A 
ATOM     11  C   UNL     1      25.078  62.581  28.405  0.00  0.00    +0.047 A 
ATOM     12  C   UNL     1      24.956  61.653  29.518  0.00  0.00    +0.035 A 
ATOM     32  C   UNL     1      25.564  62.003  30.759  0.00  0.00    +0.024 A 
ATOM     33  C   UNL     1      26.286  63.241  30.916  0.00  0.00    +0.007 A 
ATOM     34  C   UNL     1      26.412  64.159  29.821  0.00  0.00    -0.029 A 
ATOM     35  C   UNL     1      27.203  65.469  30.045  0.00  0.00    +0.045 C 
ENDROOT
BRANCH  10   9
ATOM      4  C   UNL     1      24.470  67.735  26.123  0.00  0.00    +0.077 A 
ATOM      5  C   UNL     1      23.513  68.104  27.125  0.00  0.00    +0.048 A 
ATOM      6  C   UNL     1      23.385  67.252  28.245  0.00  0.00    +0.116 A 
ATOM      7  N   UNL     1      24.161  66.118  28.344  0.00  0.00    -0.223 NA
ATOM      8  C   UNL     1      25.073  65.789  27.358  0.00  0.00    +0.220 A 
ATOM      9  N   UNL     1      25.869  64.657  27.441  0.00  0.00    -0.283 N 
ATOM     36  H   UNL     1      26.525  64.446  26.689  0.00  0.00    +0.155 HD
ATOM     37  N   UNL     1      25.214  66.586  26.278  0.00  0.00    -0.214 NA
BRANCH   4   3
ATOM      1  C   UNL     1      25.126  68.747  22.401  0.00  0.00    +0.020 A 
ATOM      2  C   UNL     1      24.883  67.929  23.567  0.00  0.00    +0.013 A 
ATOM      3  C   UNL     1      24.724  68.535  24.883  0.00  0.00    +0.019 A 
ATOM     38  C   UNL     1      24.816  69.984  24.985  0.00  0.00    +0.120 A 
ATOM     39  N   UNL     1      25.052  70.746  23.846  0.00  0.00    -0.263 NA
ATOM     40  C   UNL     1      25.209  70.173  22.575  0.00  0.00    +0.111 A 
ENDBRANCH   4   3
ENDBRANCH  10   9
BRANCH  12  13
ATOM     13  N   UNL     1      24.259  60.393  29.435  0.00  0.00    -0.281 N 
ATOM     14  C   UNL     1      23.023  60.140  28.862  0.00  0.00    +0.248 C 
ATOM     30  O   UNL     1      22.230  61.005  28.520  0.00  0.00    -0.270 OA
ATOM     31  H   UNL     1      24.734  59.591  29.849  0.00  0.00    +0.155 HD
BRANCH  14  15
ATOM     15  C   UNL     1      22.602  58.722  28.651  0.00  0.00    +0.037 A 
ATOM     16  C   UNL     1      21.196  58.371  28.438  0.00  0.00    +0.013 A 
ATOM     17  C   UNL     1      20.814  56.993  28.255  0.00  0.00    +0.005 A 
ATOM     18  C   UNL     1      21.843  55.955  28.282  0.00  0.00    -0.033 A 
ATOM     28  C   UNL     1      23.231  56.332  28.490  0.00  0.00    +0.005 A 
ATOM     29  C   UNL     1      23.608  57.682  28.672  0.00  0.00    +0.013 A 
BRANCH  18  19
ATOM     19  C   UNL     1      21.524  54.457  28.116  0.00  0.00    +0.119 C 
BRANCH  19  20
ATOM     20  N   UNL     1      20.999  53.733  29.312  0.00  0.00    -0.302 NA
ATOM     21  C   UNL     1      21.953  52.630  29.780  0.00  0.00    +0.066 C 
ATOM     22  C   UNL     1      21.399  51.898  31.045  0.00  0.00    -0.064 C 
ATOM     23  N   UNL     1      20.016  51.323  30.734  0.00  0.00    +0.379 N 
ATOM     24  C   UNL     1      19.517  50.584  31.903  0.00  0.00    -0.096 C 
ATOM     25  H   UNL     1      20.134  50.594  29.898  0.00  0.00    -0.082 HD
ATOM     26  C   UNL     1      19.063  52.413  30.265  0.00  0.00    -0.064 C 
ATOM     27  C   UNL     1      19.636  53.153  29.025  0.00  0.00    +0.066 C 
ENDBRANCH  19  20
ENDBRANCH  18  19
ENDBRANCH  14  15
ENDBRANCH  12  13
TORSDOF 6
ENDMDL
MODEL 2
REMARK VINA RESULT:      -9.7      1.129      1.225
REMARK  Name = C:\Users\Docking\Desktop\test protocol\1iep_ligandH.pdb
REMARK  8 active torsions:
REMARK  status: ('A' for Active; 'I' for Inactive)
REMARK    1  A    between atoms: _5  and  _11
REMARK    2  A    between atoms: _19  and  _21
REMARK    3  A    between atoms: _22  and  _66
REMARK    4  A    between atoms: _27  and  _30
REMARK    5  A    between atoms: _32  and  _33
REMARK    6  A    between atoms: _38  and  _43
REMARK    7  A    between atoms: _43  and  _46
REMARK    8  A    between atoms: _53  and  _55
REMARK                            x       y       z     vdW  Elec       q    Type
REMARK                         _______ _______ _______ _____ _____    ______ ____
ROOT
ATOM     10  C   UNL     1      25.529  64.636  27.917  0.00  0.00    +0.038 A 
ATOM     11  C   UNL     1      24.848  63.427  27.627  0.00  0.00    +0.047 A 
ATOM     12  C   UNL     1      24.559  62.457  28.672  0.00  0.00    +0.035 A 
ATOM     32  C   UNL     1      24.977  62.752  30.002  0.00  0.00    +0.024 A 
ATOM     33  C   UNL     1      25.672  63.976  30.314  0.00  0.00    +0.007 A 
ATOM     34  C   UNL     1      25.962  64.936  29.287  0.00  0.00    -0.029 A 
ATOM     35  C   UNL     1      26.716  66.228  29.679  0.00  0.00    +0.045 C 
ENDROOT
BRANCH  10   9
ATOM      4  C   UNL     1      24.675  68.725  25.552  0.00  0.00    +0.077 A 
ATOM      5  C   UNL     1      23.621  69.095  26.453  0.00  0.00    +0.048 A 
ATOM      6  C   UNL     1      23.325  68.202  27.507  0.00  0.00    +0.116 A 
ATOM      7  N   UNL     1      24.037  67.029  27.641  0.00  0.00    -0.223 NA
ATOM      8  C   UNL     1      25.046  66.702  26.755  0.00  0.00    +0.220 A 
ATOM      9  N   UNL     1      25.780  65.532  26.875  0.00  0.00    -0.283 N 
ATOM     36  H   UNL     1      26.512  65.324  26.196  0.00  0.00    +0.155 HD
ATOM     37  N   UNL     1      25.347  67.537  25.738  0.00  0.00    -0.214 NA
BRANCH   4   3
ATOM      1  C   UNL     1      25.912  69.856  22.018  0.00  0.00    +0.020 A 
ATOM      2  C   UNL     1      25.504  69.000  23.108  0.00  0.00    +0.013 A 
ATOM      3  C   UNL     1      25.107  69.565  24.391  0.00  0.00    +0.019 A 
ATOM     38  C   UNL     1      25.134  71.013  24.540  0.00  0.00    +0.120 A 
ATOM     39  N   UNL     1      25.533  71.812  23.473  0.00  0.00    -0.263 NA
ATOM     40  C   UNL     1      25.919  71.279  22.234  0.00  0.00    +0.111 A 
ENDBRANCH   4   3
ENDBRANCH  10   9
BRANCH  12  13
ATOM     13  N   UNL     1      23.877  61.209  28.436  0.00  0.00    -0.281 N 
ATOM     14  C   UNL     1      24.112  59.983  29.037  0.00  0.00    +0.248 C 
ATOM     30  O   UNL     1      25.092  59.724  29.720  0.00  0.00    -0.270 OA
ATOM     31  H   UNL     1      23.131  61.231  27.741  0.00  0.00    +0.155 HD
BRANCH  14  15
ATOM     15  C   UNL     1      23.121  58.881  28.841  0.00  0.00    +0.037 A 
ATOM     16  C   UNL     1      21.717  59.043  29.227  0.00  0.00    +0.013 A 
ATOM     17  C   UNL     1      20.787  57.957  29.043  0.00  0.00    +0.005 A 
ATOM     18  C   UNL     1      21.258  56.700  28.467  0.00  0.00    -0.033 A 
ATOM     28  C   UNL     1      22.655  56.569  28.087  0.00  0.00    +0.005 A 
ATOM     29  C   UNL     1      23.570  57.630  28.268  0.00  0.00    +0.013 A 
BRANCH  18  19
ATOM     19  C   UNL     1      20.340  55.482  28.253  0.00  0.00    +0.119 C 
BRANCH  19  20
ATOM     20  N   UNL     1      20.229  54.504  29.376  0.00  0.00    -0.302 NA
ATOM     21  C   UNL     1      21.597  53.976  29.815  0.00  0.00    +0.066 C 
ATOM     22  C   UNL     1      21.465  52.971  31.006  0.00  0.00    -0.064 C 
ATOM     23  N   UNL     1      20.545  51.819  30.597  0.00  0.00    +0.379 N 
ATOM     24  C   UNL     1      20.464  50.843  31.694  0.00  0.00    -0.096 C 
ATOM     25  H   UNL     1      21.012  51.308  29.723  0.00  0.00    -0.082 HD
ATOM     26  C   UNL     1      19.183  52.336  30.156  0.00  0.00    -0.064 C 
ATOM     27  C   UNL     1      19.328  53.356  28.993  0.00  0.00    +0.066 C 
ENDBRANCH  19  20
ENDBRANCH  18  19
ENDBRANCH  14  15
ENDBRANCH  12  13
TORSDOF 6
ENDMDL
MODEL 3
REMARK VINA RESULT:      -9.7     18.208     23.322
REMARK  Name = C:\Users\Docking\Desktop\test protocol\1iep_ligandH.pdb
REMARK  8 active torsions:
REMARK  status: ('A' for Active; 'I' for Inactive)
REMARK    1  A    between atoms: _5  and  _11
REMARK    2  A    between atoms: _19  and  _21
REMARK    3  A    between atoms: _22  and  _66
REMARK    4  A    between atoms: _27  and  _30
REMARK    5  A    between atoms: _32  and  _33
REMARK    6  A    between atoms: _38  and  _43
REMARK    7  A    between atoms: _43  and  _46
REMARK    8  A    between atoms: _53  and  _55
REMARK                            x       y       z     vdW  Elec       q    Type
REMARK                         _______ _______ _______ _____ _____    ______ ____
ROOT
ATOM     10  C   UNL     1      16.363  69.993   8.220  0.00  0.00    +0.038 A 
ATOM     11  C   UNL     1      16.536  70.908   9.290  0.00  0.00    +0.047 A 
ATOM     12  C   UNL     1      17.405  72.066   9.156  0.00  0.00    +0.035 A 
ATOM     32  C   UNL     1      18.081  72.265   7.917  0.00  0.00    +0.024 A 
ATOM     33  C   UNL     1      17.917  71.344   6.819  0.00  0.00    +0.007 A 
ATOM     34  C   UNL     1      17.063  70.198   6.946  0.00  0.00    -0.029 A 
ATOM     35  C   UNL     1      16.930  69.242   5.739  0.00  0.00    +0.045 C 
ENDROOT
BRANCH  10   9
ATOM      4  C   UNL     1      15.560  65.424   9.450  0.00  0.00    +0.077 A 
ATOM      5  C   UNL     1      16.948  65.192   9.726  0.00  0.00    +0.048 A 
ATOM      6  C   UNL     1      17.838  66.273   9.531  0.00  0.00    +0.116 A 
ATOM      7  N   UNL     1      17.362  67.490   9.094  0.00  0.00    -0.223 NA
ATOM      8  C   UNL     1      16.017  67.680   8.836  0.00  0.00    +0.220 A 
ATOM      9  N   UNL     1      15.516  68.898   8.403  0.00  0.00    -0.283 N 
ATOM     36  H   UNL     1      14.518  68.995   8.217  0.00  0.00    +0.155 HD
ATOM     37  N   UNL     1      15.148  66.663   9.013  0.00  0.00    -0.214 NA
BRANCH   4   3
ATOM      1  C   UNL     1      13.731  62.016  10.036  0.00  0.00    +0.020 A 
ATOM      2  C   UNL     1      14.795  62.983   9.890  0.00  0.00    +0.013 A 
ATOM      3  C   UNL     1      14.497  64.382   9.611  0.00  0.00    +0.019 A 
ATOM     38  C   UNL     1      13.101  64.774   9.486  0.00  0.00    +0.120 A 
ATOM     39  N   UNL     1      12.098  63.820   9.631  0.00  0.00    -0.263 NA
ATOM     40  C   UNL     1      12.372  62.471   9.898  0.00  0.00    +0.111 A 
ENDBRANCH   4   3
ENDBRANCH  10   9
BRANCH  12  13
ATOM     13  N   UNL     1      17.627  73.025  10.211  0.00  0.00    -0.281 N 
ATOM     14  C   UNL     1      16.697  73.854  10.817  0.00  0.00    +0.248 C 
ATOM     30  O   UNL     1      15.567  74.050  10.395  0.00  0.00    -0.270 OA
ATOM     31  H   UNL     1      18.585  73.101  10.552  0.00  0.00    +0.155 HD
BRANCH  14  15
ATOM     15  C   UNL     1      17.083  74.581  12.065  0.00  0.00    +0.037 A 
ATOM     16  C   UNL     1      18.050  75.681  12.035  0.00  0.00    +0.013 A 
ATOM     17  C   UNL     1      18.417  76.354  13.256  0.00  0.00    +0.005 A 
ATOM     18  C   UNL     1      17.815  75.929  14.517  0.00  0.00    -0.033 A 
ATOM     28  C   UNL     1      16.854  74.838  14.517  0.00  0.00    +0.005 A 
ATOM     29  C   UNL     1      16.493  74.175  13.323  0.00  0.00    +0.013 A 
BRANCH  18  19
ATOM     19  C   UNL     1      18.164  76.576  15.870  0.00  0.00    +0.119 C 
BRANCH  19  20
ATOM     20  N   UNL     1      17.589  75.948  17.097  0.00  0.00    -0.302 NA
ATOM     21  C   UNL     1      16.450  76.782  17.690  0.00  0.00    +0.066 C 
ATOM     22  C   UNL     1      15.845  76.099  18.959  0.00  0.00    -0.064 C 
ATOM     23  N   UNL     1      16.951  75.881  19.993  0.00  0.00    +0.379 N 
ATOM     24  C   UNL     1      16.375  75.291  21.211  0.00  0.00    -0.096 C 
ATOM     25  H   UNL     1      17.363  76.881  20.263  0.00  0.00    -0.082 HD
ATOM     26  C   UNL     1      18.089  75.054  19.412  0.00  0.00    -0.064 C 
ATOM     27  C   UNL     1      18.663  75.727  18.134  0.00  0.00    +0.066 C 
ENDBRANCH  19  20
ENDBRANCH  18  19
ENDBRANCH  14  15
ENDBRANCH  12  13
TORSDOF 6
ENDMDL
MODEL 4
REMARK VINA RESULT:      -9.5     19.585     24.732
REMARK  Name = C:\Users\Docking\Desktop\test protocol\1iep_ligandH.pdb
REMARK  8 active torsions:
REMARK  status: ('A' for Active; 'I' for Inactive)
REMARK    1  A    between atoms: _5  and  _11
REMARK    2  A    between atoms: _19  and  _21
REMARK    3  A    between atoms: _22  and  _66
REMARK    4  A    between atoms: _27  and  _30
REMARK    5  A    between atoms: _32  and  _33
REMARK    6  A    between atoms: _38  and  _43
REMARK    7  A    between atoms: _43  and  _46
REMARK    8  A    between atoms: _53  and  _55
REMARK                            x       y       z     vdW  Elec       q    Type
REMARK                         _______ _______ _______ _____ _____    ______ ____
ROOT
ATOM     10  C   UNL     1      15.596  66.877   9.573  0.00  0.00    +0.038 A 
ATOM     11  C   UNL     1      14.276  67.382   9.689  0.00  0.00    +0.047 A 
ATOM     12  C   UNL     1      13.705  68.238   8.661  0.00  0.00    +0.035 A 
ATOM     32  C   UNL     1      14.506  68.557   7.526  0.00  0.00    +0.024 A 
ATOM     33  C   UNL     1      15.851  68.052   7.392  0.00  0.00    +0.007 A 
ATOM     34  C   UNL     1      16.420  67.210   8.405  0.00  0.00    -0.029 A 
ATOM     35  C   UNL     1      17.868  66.703   8.213  0.00  0.00    +0.045 C 
ENDROOT
BRANCH  10   9
ATOM      4  C   UNL     1      15.933  62.651  11.824  0.00  0.00    +0.077 A 
ATOM      5  C   UNL     1      15.019  62.025  10.912  0.00  0.00    +0.048 A 
ATOM      6  C   UNL     1      14.479  62.828   9.882  0.00  0.00    +0.116 A 
ATOM      7  N   UNL     1      14.834  64.155   9.781  0.00  0.00    -0.223 NA
ATOM      8  C   UNL     1      15.717  64.728  10.678  0.00  0.00    +0.220 A 
ATOM      9  N   UNL     1      16.094  66.059  10.591  0.00  0.00    -0.283 N 
ATOM     36  H   UNL     1      16.742  66.446  11.276  0.00  0.00    +0.155 HD
ATOM     37  N   UNL     1      16.245  63.983  11.671  0.00  0.00    -0.214 NA
BRANCH   4   3
ATOM      1  C   UNL     1      16.529  60.715  15.170  0.00  0.00    +0.020 A 
ATOM      2  C   UNL     1      15.847  61.399  14.097  0.00  0.00    +0.013 A 
ATOM      3  C   UNL     1      16.590  61.934  12.962  0.00  0.00    +0.019 A 
ATOM     38  C   UNL     1      18.034  61.756  12.945  0.00  0.00    +0.120 A 
ATOM     39  N   UNL     1      18.665  61.094  13.994  0.00  0.00    -0.263 NA
ATOM     40  C   UNL     1      17.960  60.577  15.091  0.00  0.00    +0.111 A 
ENDBRANCH   4   3
ENDBRANCH  10   9
BRANCH  12  13
ATOM     13  N   UNL     1      12.374  68.787   8.728  0.00  0.00    -0.281 N 
ATOM     14  C   UNL     1      11.282  68.292   9.421  0.00  0.00    +0.248 C 
ATOM     30  O   UNL     1      11.228  67.177   9.920  0.00  0.00    -0.270 OA
ATOM     31  H   UNL     1      12.217  69.646   8.200  0.00  0.00    +0.155 HD
BRANCH  14  15
ATOM     15  C   UNL     1      10.069  69.153   9.570  0.00  0.00    +0.037 A 
ATOM     16  C   UNL     1       8.809  68.608  10.080  0.00  0.00    +0.013 A 
ATOM     17  C   UNL     1       7.649  69.457  10.197  0.00  0.00    +0.005 A 
ATOM     18  C   UNL     1       7.746  70.860   9.804  0.00  0.00    -0.033 A 
ATOM     28  C   UNL     1       9.011  71.376   9.306  0.00  0.00    +0.005 A 
ATOM     29  C   UNL     1      10.149  70.547   9.189  0.00  0.00    +0.013 A 
BRANCH  18  19
ATOM     19  C   UNL     1       6.554  71.833   9.876  0.00  0.00    +0.119 C 
BRANCH  19  20
ATOM     20  N   UNL     1       5.500  71.701   8.827  0.00  0.00    -0.302 NA
ATOM     21  C   UNL     1       4.318  70.851   9.304  0.00  0.00    +0.066 C 
ATOM     22  C   UNL     1       3.214  70.742   8.202  0.00  0.00    -0.064 C 
ATOM     23  N   UNL     1       3.825  70.154   6.929  0.00  0.00    +0.379 N 
ATOM     24  C   UNL     1       2.777  69.996   5.910  0.00  0.00    -0.096 C 
ATOM     25  H   UNL     1       4.211  69.139   7.177  0.00  0.00    -0.082 HD
ATOM     26  C   UNL     1       5.002  70.991   6.449  0.00  0.00    -0.064 C 
ATOM     27  C   UNL     1       6.080  71.118   7.562  0.00  0.00    +0.066 C 
ENDBRANCH  19  20
ENDBRANCH  18  19
ENDBRANCH  14  15
ENDBRANCH  12  13
TORSDOF 6
ENDMDL
MODEL 5
REMARK VINA RESULT:      -9.5      4.064      8.346
REMARK  Name = C:\Users\Docking\Desktop\test protocol\1iep_ligandH.pdb
REMARK  8 active torsions:
REMARK  status: ('A' for Active; 'I' for Inactive)
REMARK    1  A    between atoms: _5  and  _11
REMARK    2  A    between atoms: _19  and  _21
REMARK    3  A    between atoms: _22  and  _66
REMARK    4  A    between atoms: _27  and  _30
REMARK    5  A    between atoms: _32  and  _33
REMARK    6  A    between atoms: _38  and  _43
REMARK    7  A    between atoms: _43  and  _46
REMARK    8  A    between atoms: _53  and  _55
REMARK                            x       y       z     vdW  Elec       q    Type
REMARK                         _______ _______ _______ _____ _____    ______ ____
ROOT
ATOM     10  C   UNL     1      24.703  70.925  24.497  0.00  0.00    +0.038 A 
ATOM     11  C   UNL     1      24.802  69.873  25.442  0.00  0.00    +0.047 A 
ATOM     12  C   UNL     1      25.141  68.519  25.030  0.00  0.00    +0.035 A 
ATOM     32  C   UNL     1      25.374  68.274  23.645  0.00  0.00    +0.024 A 
ATOM     33  C   UNL     1      25.276  69.332  22.670  0.00  0.00    +0.007 A 
ATOM     34  C   UNL     1      24.941  70.668  23.071  0.00  0.00    -0.029 A 
ATOM     35  C   UNL     1      24.844  71.761  21.982  0.00  0.00    +0.045 C 
ENDROOT
BRANCH  10   9
ATOM      4  C   UNL     1      25.886  75.412  25.722  0.00  0.00    +0.077 A 
ATOM      5  C   UNL     1      27.278  75.179  25.466  0.00  0.00    +0.048 A 
ATOM      6  C   UNL     1      27.649  73.888  25.028  0.00  0.00    +0.116 A 
ATOM      7  N   UNL     1      26.691  72.912  24.860  0.00  0.00    -0.223 NA
ATOM      8  C   UNL     1      25.357  73.170  25.118  0.00  0.00    +0.220 A 
ATOM      9  N   UNL     1      24.376  72.205  24.949  0.00  0.00    -0.283 N 
ATOM     36  H   UNL     1      23.404  72.433  25.156  0.00  0.00    +0.155 HD
ATOM     37  N   UNL     1      24.977  74.394  25.539  0.00  0.00    -0.214 NA
BRANCH   4   3
ATOM      1  C   UNL     1      25.604  79.093  27.018  0.00  0.00    +0.020 A 
ATOM      2  C   UNL     1      26.185  77.846  26.575  0.00  0.00    +0.013 A 
ATOM      3  C   UNL     1      25.337  76.725  26.188  0.00  0.00    +0.019 A 
ATOM     38  C   UNL     1      23.894  76.901  26.259  0.00  0.00    +0.120 A 
ATOM     39  N   UNL     1      23.363  78.113  26.690  0.00  0.00    -0.263 NA
ATOM     40  C   UNL     1      24.169  79.197  27.067  0.00  0.00    +0.111 A 
ENDBRANCH   4   3
ENDBRANCH  10   9
BRANCH  12  13
ATOM     13  N   UNL     1      25.248  67.409  25.943  0.00  0.00    -0.281 N 
ATOM     14  C   UNL     1      24.238  66.814  26.682  0.00  0.00    +0.248 C 
ATOM     30  O   UNL     1      23.121  67.286  26.833  0.00  0.00    -0.270 OA
ATOM     31  H   UNL     1      26.181  67.014  26.059  0.00  0.00    +0.155 HD
BRANCH  14  15
ATOM     15  C   UNL     1      24.514  65.513  27.365  0.00  0.00    +0.037 A 
ATOM     16  C   UNL     1      24.515  65.408  28.827  0.00  0.00    +0.013 A 
ATOM     17  C   UNL     1      24.801  64.145  29.460  0.00  0.00    +0.005 A 
ATOM     18  C   UNL     1      25.087  62.976  28.631  0.00  0.00    -0.033 A 
ATOM     28  C   UNL     1      25.075  63.108  27.184  0.00  0.00    +0.005 A 
ATOM     29  C   UNL     1      24.796  64.345  26.559  0.00  0.00    +0.013 A 
BRANCH  18  19
ATOM     19  C   UNL     1      25.424  61.594  29.222  0.00  0.00    +0.119 C 
BRANCH  19  20
ATOM     20  N   UNL     1      24.434  60.498  29.003  0.00  0.00    -0.302 NA
ATOM     21  C   UNL     1      23.000  61.028  28.915  0.00  0.00    +0.066 C 
ATOM     22  C   UNL     1      21.979  59.870  28.664  0.00  0.00    -0.064 C 
ATOM     23  N   UNL     1      22.105  58.833  29.780  0.00  0.00    +0.379 N 
ATOM     24  C   UNL     1      21.107  57.772  29.579  0.00  0.00    -0.096 C 
ATOM     25  H   UNL     1      21.868  59.342  30.743  0.00  0.00    -0.082 HD
ATOM     26  C   UNL     1      23.528  58.302  29.877  0.00  0.00    -0.064 C 
ATOM     27  C   UNL     1      24.538  59.464  30.097  0.00  0.00    +0.066 C 
ENDBRANCH  19  20
ENDBRANCH  18  19
ENDBRANCH  14  15
ENDBRANCH  12  13
TORSDOF 6
ENDMDL
