MODEL 1
REMARK VINA RESULT:      -8.5      0.000      0.000
REMARK  Name = C:\Users\Docking\Desktop\test protocol\1iep_ligandH.pdb
REMARK  8 active torsions:
REMARK  status: ('A' for Active; 'I' for Inactive)
REMARK    1  A    between atoms: _5  and  _11
REMARK    2  A    between atoms: _19  and  _21
REMARK    3  A    between atoms: _22  and  _66
REMARK    4  A    between atoms: _27  and  _30
REMARK    5  A    between atoms: _32  and  _33
REMARK    6  A    between atoms: _38  and  _43
REMARK    7  A    between atoms: _43  and  _46
REMARK    8  A    between atoms: _53  and  _55
REMARK                            x       y       z     vdW  Elec       q    Type
REMARK                         _______ _______ _______ _____ _____    ______ ____
ROOT
ATOM     10  C   UNL     1     -15.416  21.366   3.029  0.00  0.00    +0.038 A 
ATOM     11  C   UNL     1     -14.689  20.476   2.198  0.00  0.00    +0.047 A 
ATOM     12  C   UNL     1     -13.691  19.575   2.752  0.00  0.00    +0.035 A 
ATOM     32  C   UNL     1     -13.459  19.606   4.158  0.00  0.00    +0.024 A 
ATOM     33  C   UNL     1     -14.189  20.505   5.017  0.00  0.00    +0.007 A 
ATOM     34  C   UNL     1     -15.173  21.398   4.476  0.00  0.00    -0.029 A 
ATOM     35  C   UNL     1     -15.920  22.345   5.444  0.00  0.00    +0.045 C 
ENDROOT
BRANCH  10   9
ATOM      4  C   UNL     1     -16.846  25.658   1.425  0.00  0.00    +0.077 A 
ATOM      5  C   UNL     1     -15.612  26.279   1.810  0.00  0.00    +0.048 A 
ATOM      6  C   UNL     1     -14.638  25.461   2.424  0.00  0.00    +0.116 A 
ATOM      7  N   UNL     1     -14.890  24.122   2.633  0.00  0.00    -0.223 NA
ATOM      8  C   UNL     1     -16.092  23.555   2.251  0.00  0.00    +0.220 A 
ATOM      9  N   UNL     1     -16.364  22.209   2.443  0.00  0.00    -0.283 N 
ATOM     36  H   UNL     1     -17.265  21.831   2.154  0.00  0.00    +0.155 HD
ATOM     37  N   UNL     1     -17.039  24.316   1.663  0.00  0.00    -0.214 NA
BRANCH   4   3
ATOM      1  C   UNL     1     -20.399  26.656   0.126  0.00  0.00    +0.020 A 
ATOM      2  C   UNL     1     -19.349  25.911   0.782  0.00  0.00    +0.013 A 
ATOM      3  C   UNL     1     -17.972  26.390   0.762  0.00  0.00    +0.019 A 
ATOM     38  C   UNL     1     -17.690  27.635   0.065  0.00  0.00    +0.120 A 
ATOM     39  N   UNL     1     -18.721  28.330  -0.559  0.00  0.00    -0.263 NA
ATOM     40  C   UNL     1     -20.049  27.879  -0.547  0.00  0.00    +0.111 A 
ENDBRANCH   4   3
ENDBRANCH  10   9
BRANCH  12  13
ATOM     13  N   UNL     1     -12.916  18.655   1.957  0.00  0.00    -0.281 N 
ATOM     14  C   UNL     1     -12.981  17.271   1.950  0.00  0.00    +0.248 C 
ATOM     30  O   UNL     1     -13.569  16.603   2.787  0.00  0.00    -0.270 OA
ATOM     31  H   UNL     1     -12.237  19.075   1.321  0.00  0.00    +0.155 HD
BRANCH  14  15
ATOM     15  C   UNL     1     -12.279  16.521   0.865  0.00  0.00    +0.037 A 
ATOM     16  C   UNL     1     -10.901  16.844   0.486  0.00  0.00    +0.013 A 
ATOM     17  C   UNL     1     -10.253  16.116  -0.576  0.00  0.00    +0.005 A 
ATOM     18  C   UNL     1     -10.983  15.055  -1.266  0.00  0.00    -0.033 A 
ATOM     28  C   UNL     1     -12.347  14.751  -0.866  0.00  0.00    +0.005 A 
ATOM     29  C   UNL     1     -12.986  15.464   0.174  0.00  0.00    +0.013 A 
BRANCH  18  19
ATOM     19  C   UNL     1     -10.378  14.240  -2.424  0.00  0.00    +0.119 C 
BRANCH  19  20
ATOM     20  N   UNL     1      -9.548  14.981  -3.420  0.00  0.00    -0.302 NA
ATOM     21  C   UNL     1     -10.375  15.992  -4.219  0.00  0.00    +0.066 C 
ATOM     22  C   UNL     1      -9.487  16.774  -5.241  0.00  0.00    -0.064 C 
ATOM     23  N   UNL     1      -8.796  15.780  -6.176  0.00  0.00    +0.379 N 
ATOM     24  C   UNL     1      -8.006  16.515  -7.175  0.00  0.00    -0.096 C 
ATOM     25  H   UNL     1      -9.591  15.219  -6.720  0.00  0.00    -0.082 HD
ATOM     26  C   UNL     1      -7.973  14.769  -5.390  0.00  0.00    -0.064 C 
ATOM     27  C   UNL     1      -8.860  14.019  -4.357  0.00  0.00    +0.066 C 
ENDBRANCH  19  20
ENDBRANCH  18  19
ENDBRANCH  14  15
ENDBRANCH  12  13
TORSDOF 6
ENDMDL
MODEL 2
REMARK VINA RESULT:      -8.5      1.728      2.472
REMARK  Name = C:\Users\Docking\Desktop\test protocol\1iep_ligandH.pdb
REMARK  8 active torsions:
REMARK  status: ('A' for Active; 'I' for Inactive)
REMARK    1  A    between atoms: _5  and  _11
REMARK    2  A    between atoms: _19  and  _21
REMARK    3  A    between atoms: _22  and  _66
REMARK    4  A    between atoms: _27  and  _30
REMARK    5  A    between atoms: _32  and  _33
REMARK    6  A    between atoms: _38  and  _43
REMARK    7  A    between atoms: _43  and  _46
REMARK    8  A    between atoms: _53  and  _55
REMARK                            x       y       z     vdW  Elec       q    Type
REMARK                         _______ _______ _______ _____ _____    ______ ____
ROOT
ATOM     10  C   UNL     1     -15.570  21.063   2.788  0.00  0.00    +0.038 A 
ATOM     11  C   UNL     1     -14.844  20.237   1.893  0.00  0.00    +0.047 A 
ATOM     12  C   UNL     1     -14.029  19.135   2.379  0.00  0.00    +0.035 A 
ATOM     32  C   UNL     1     -13.977  18.901   3.784  0.00  0.00    +0.024 A 
ATOM     33  C   UNL     1     -14.708  19.732   4.709  0.00  0.00    +0.007 A 
ATOM     34  C   UNL     1     -15.512  20.822   4.235  0.00  0.00    -0.029 A 
ATOM     35  C   UNL     1     -16.268  21.685   5.272  0.00  0.00    +0.045 C 
ENDROOT
BRANCH  10   9
ATOM      4  C   UNL     1     -16.291  25.706   1.809  0.00  0.00    +0.077 A 
ATOM      5  C   UNL     1     -15.046  26.088   2.411  0.00  0.00    +0.048 A 
ATOM      6  C   UNL     1     -14.253  25.059   2.968  0.00  0.00    +0.116 A 
ATOM      7  N   UNL     1     -14.683  23.751   2.920  0.00  0.00    -0.223 NA
ATOM      8  C   UNL     1     -15.889  23.418   2.333  0.00  0.00    +0.220 A 
ATOM      9  N   UNL     1     -16.337  22.107   2.267  0.00  0.00    -0.283 N 
ATOM     36  H   UNL     1     -17.237  21.903   1.832  0.00  0.00    +0.155 HD
ATOM     37  N   UNL     1     -16.666  24.381   1.795  0.00  0.00    -0.214 NA
BRANCH   4   3
ATOM      1  C   UNL     1     -18.667  28.756   1.213  0.00  0.00    +0.020 A 
ATOM      2  C   UNL     1     -17.755  27.849   1.871  0.00  0.00    +0.013 A 
ATOM      3  C   UNL     1     -17.238  26.677   1.175  0.00  0.00    +0.019 A 
ATOM     38  C   UNL     1     -17.667  26.451  -0.197  0.00  0.00    +0.120 A 
ATOM     39  N   UNL     1     -18.548  27.341  -0.804  0.00  0.00    -0.263 NA
ATOM     40  C   UNL     1     -19.052  28.471  -0.144  0.00  0.00    +0.111 A 
ENDBRANCH   4   3
ENDBRANCH  10   9
BRANCH  12  13
ATOM     13  N   UNL     1     -13.264  18.267   1.518  0.00  0.00    -0.281 N 
ATOM     14  C   UNL     1     -13.030  16.910   1.668  0.00  0.00    +0.248 C 
ATOM     30  O   UNL     1     -13.268  16.275   2.685  0.00  0.00    -0.270 OA
ATOM     31  H   UNL     1     -12.844  18.707   0.699  0.00  0.00    +0.155 HD
BRANCH  14  15
ATOM     15  C   UNL     1     -12.433  16.150   0.528  0.00  0.00    +0.037 A 
ATOM     16  C   UNL     1     -11.151  16.546  -0.061  0.00  0.00    +0.013 A 
ATOM     17  C   UNL     1     -10.605  15.806  -1.171  0.00  0.00    +0.005 A 
ATOM     18  C   UNL     1     -11.342  14.661  -1.700  0.00  0.00    -0.033 A 
ATOM     28  C   UNL     1     -12.610  14.287  -1.094  0.00  0.00    +0.005 A 
ATOM     29  C   UNL     1     -13.148  15.010  -0.006  0.00  0.00    +0.013 A 
BRANCH  18  19
ATOM     19  C   UNL     1     -10.846  13.827  -2.896  0.00  0.00    +0.119 C 
BRANCH  19  20
ATOM     20  N   UNL     1      -9.546  13.109  -2.736  0.00  0.00    -0.302 NA
ATOM     21  C   UNL     1      -9.137  12.371  -4.014  0.00  0.00    +0.066 C 
ATOM     22  C   UNL     1      -7.764  11.645  -3.837  0.00  0.00    -0.064 C 
ATOM     23  N   UNL     1      -7.851  10.676  -2.657  0.00  0.00    +0.379 N 
ATOM     24  C   UNL     1      -6.580   9.949  -2.524  0.00  0.00    -0.096 C 
ATOM     25  H   UNL     1      -8.645   9.929  -2.891  0.00  0.00    -0.082 HD
ATOM     26  C   UNL     1      -8.260  11.401  -1.383  0.00  0.00    -0.064 C 
ATOM     27  C   UNL     1      -9.611  12.144  -1.579  0.00  0.00    +0.066 C 
ENDBRANCH  19  20
ENDBRANCH  18  19
ENDBRANCH  14  15
ENDBRANCH  12  13
TORSDOF 6
ENDMDL
MODEL 3
REMARK VINA RESULT:      -8.4      2.199      3.118
REMARK  Name = C:\Users\Docking\Desktop\test protocol\1iep_ligandH.pdb
REMARK  8 active torsions:
REMARK  status: ('A' for Active; 'I' for Inactive)
REMARK    1  A    between atoms: _5  and  _11
REMARK    2  A    between atoms: _19  and  _21
REMARK    3  A    between atoms: _22  and  _66
REMARK    4  A    between atoms: _27  and  _30
REMARK    5  A    between atoms: _32  and  _33
REMARK    6  A    between atoms: _38  and  _43
REMARK    7  A    between atoms: _43  and  _46
REMARK    8  A    between atoms: _53  and  _55
REMARK                            x       y       z     vdW  Elec       q    Type
REMARK                         _______ _______ _______ _____ _____    ______ ____
ROOT
ATOM     10  C   UNL     1     -15.649  21.089   2.771  0.00  0.00    +0.038 A 
ATOM     11  C   UNL     1     -14.830  20.343   1.885  0.00  0.00    +0.047 A 
ATOM     12  C   UNL     1     -14.016  19.236   2.364  0.00  0.00    +0.035 A 
ATOM     32  C   UNL     1     -14.064  18.914   3.751  0.00  0.00    +0.024 A 
ATOM     33  C   UNL     1     -14.890  19.661   4.666  0.00  0.00    +0.007 A 
ATOM     34  C   UNL     1     -15.693  20.756   4.200  0.00  0.00    -0.029 A 
ATOM     35  C   UNL     1     -16.555  21.527   5.227  0.00  0.00    +0.045 C 
ENDROOT
BRANCH  10   9
ATOM      4  C   UNL     1     -16.330  25.741   1.806  0.00  0.00    +0.077 A 
ATOM      5  C   UNL     1     -15.077  26.108   2.399  0.00  0.00    +0.048 A 
ATOM      6  C   UNL     1     -14.290  25.071   2.948  0.00  0.00    +0.116 A 
ATOM      7  N   UNL     1     -14.733  23.767   2.901  0.00  0.00    -0.223 NA
ATOM      8  C   UNL     1     -15.948  23.447   2.323  0.00  0.00    +0.220 A 
ATOM      9  N   UNL     1     -16.410  22.141   2.257  0.00  0.00    -0.283 N 
ATOM     36  H   UNL     1     -17.315  21.948   1.829  0.00  0.00    +0.155 HD
ATOM     37  N   UNL     1     -16.719  24.420   1.793  0.00  0.00    -0.214 NA
BRANCH   4   3
ATOM      1  C   UNL     1     -18.682  28.814   1.236  0.00  0.00    +0.020 A 
ATOM      2  C   UNL     1     -17.774  27.897   1.885  0.00  0.00    +0.013 A 
ATOM      3  C   UNL     1     -17.272  26.723   1.182  0.00  0.00    +0.019 A 
ATOM     38  C   UNL     1     -17.712  26.505  -0.188  0.00  0.00    +0.120 A 
ATOM     39  N   UNL     1     -18.587  27.405  -0.787  0.00  0.00    -0.263 NA
ATOM     40  C   UNL     1     -19.078  28.537  -0.120  0.00  0.00    +0.111 A 
ENDBRANCH   4   3
ENDBRANCH  10   9
BRANCH  12  13
ATOM     13  N   UNL     1     -13.159  18.449   1.513  0.00  0.00    -0.281 N 
ATOM     14  C   UNL     1     -11.776  18.372   1.534  0.00  0.00    +0.248 C 
ATOM     30  O   UNL     1     -11.051  19.136   2.153  0.00  0.00    -0.270 OA
ATOM     31  H   UNL     1     -13.629  17.880   0.809  0.00  0.00    +0.155 HD
BRANCH  14  15
ATOM     15  C   UNL     1     -11.100  17.299   0.743  0.00  0.00    +0.037 A 
ATOM     16  C   UNL     1     -11.619  15.929   0.722  0.00  0.00    +0.013 A 
ATOM     17  C   UNL     1     -10.938  14.909  -0.036  0.00  0.00    +0.005 A 
ATOM     18  C   UNL     1      -9.731  15.257  -0.782  0.00  0.00    -0.033 A 
ATOM     28  C   UNL     1      -9.242  16.626  -0.748  0.00  0.00    +0.005 A 
ATOM     29  C   UNL     1      -9.906  17.627  -0.005  0.00  0.00    +0.013 A 
BRANCH  18  19
ATOM     19  C   UNL     1      -8.928  14.229  -1.601  0.00  0.00    +0.119 C 
BRANCH  19  20
ATOM     20  N   UNL     1      -9.355  12.801  -1.512  0.00  0.00    -0.302 NA
ATOM     21  C   UNL     1      -8.276  11.917  -0.882  0.00  0.00    +0.066 C 
ATOM     22  C   UNL     1      -8.749  10.430  -0.777  0.00  0.00    -0.064 C 
ATOM     23  N   UNL     1      -9.124   9.917  -2.168  0.00  0.00    +0.379 N 
ATOM     24  C   UNL     1      -9.513   8.502  -2.081  0.00  0.00    -0.096 C 
ATOM     25  H   UNL     1      -8.213   9.979  -2.808  0.00  0.00    -0.082 HD
ATOM     26  C   UNL     1     -10.195  10.793  -2.804  0.00  0.00    -0.064 C 
ATOM     27  C   UNL     1      -9.727  12.273  -2.876  0.00  0.00    +0.066 C 
ENDBRANCH  19  20
ENDBRANCH  18  19
ENDBRANCH  14  15
ENDBRANCH  12  13
TORSDOF 6
ENDMDL
MODEL 4
REMARK VINA RESULT:      -8.3      1.529      1.937
REMARK  Name = C:\Users\Docking\Desktop\test protocol\1iep_ligandH.pdb
REMARK  8 active torsions:
REMARK  status: ('A' for Active; 'I' for Inactive)
REMARK    1  A    between atoms: _5  and  _11
REMARK    2  A    between atoms: _19  and  _21
REMARK    3  A    between atoms: _22  and  _66
REMARK    4  A    between atoms: _27  and  _30
REMARK    5  A    between atoms: _32  and  _33
REMARK    6  A    between atoms: _38  and  _43
REMARK    7  A    between atoms: _43  and  _46
REMARK    8  A    between atoms: _53  and  _55
REMARK                            x       y       z     vdW  Elec       q    Type
REMARK                         _______ _______ _______ _____ _____    ______ ____
ROOT
ATOM     10  C   UNL     1     -15.668  21.218   2.785  0.00  0.00    +0.038 A 
ATOM     11  C   UNL     1     -14.750  20.595   1.901  0.00  0.00    +0.047 A 
ATOM     12  C   UNL     1     -13.898  19.504   2.347  0.00  0.00    +0.035 A 
ATOM     32  C   UNL     1     -14.008  19.070   3.700  0.00  0.00    +0.024 A 
ATOM     33  C   UNL     1     -14.935  19.692   4.612  0.00  0.00    +0.007 A 
ATOM     34  C   UNL     1     -15.777  20.770   4.179  0.00  0.00    -0.029 A 
ATOM     35  C   UNL     1     -16.747  21.404   5.202  0.00  0.00    +0.045 C 
ENDROOT
BRANCH  10   9
ATOM      4  C   UNL     1     -16.427  25.855   1.807  0.00  0.00    +0.077 A 
ATOM      5  C   UNL     1     -15.144  26.235   2.324  0.00  0.00    +0.048 A 
ATOM      6  C   UNL     1     -14.322  25.208   2.839  0.00  0.00    +0.116 A 
ATOM      7  N   UNL     1     -14.760  23.901   2.832  0.00  0.00    -0.223 NA
ATOM      8  C   UNL     1     -16.004  23.569   2.328  0.00  0.00    +0.220 A 
ATOM      9  N   UNL     1     -16.462  22.261   2.304  0.00  0.00    -0.283 N 
ATOM     36  H   UNL     1     -17.389  22.058   1.930  0.00  0.00    +0.155 HD
ATOM     37  N   UNL     1     -16.809  24.532   1.832  0.00  0.00    -0.214 NA
BRANCH   4   3
ATOM      1  C   UNL     1     -18.872  28.876   1.360  0.00  0.00    +0.020 A 
ATOM      2  C   UNL     1     -17.926  27.968   1.968  0.00  0.00    +0.013 A 
ATOM      3  C   UNL     1     -17.408  26.825   1.226  0.00  0.00    +0.019 A 
ATOM     38  C   UNL     1     -17.871  26.628  -0.139  0.00  0.00    +0.120 A 
ATOM     39  N   UNL     1     -18.783  27.518  -0.698  0.00  0.00    -0.263 NA
ATOM     40  C   UNL     1     -19.290  28.620   0.007  0.00  0.00    +0.111 A 
ENDBRANCH   4   3
ENDBRANCH  10   9
BRANCH  12  13
ATOM     13  N   UNL     1     -12.941  18.839   1.497  0.00  0.00    -0.281 N 
ATOM     14  C   UNL     1     -11.559  18.883   1.573  0.00  0.00    +0.248 C 
ATOM     30  O   UNL     1     -10.929  19.677   2.256  0.00  0.00    -0.270 OA
ATOM     31  H   UNL     1     -13.331  18.266   0.748  0.00  0.00    +0.155 HD
BRANCH  14  15
ATOM     15  C   UNL     1     -10.760  17.915   0.761  0.00  0.00    +0.037 A 
ATOM     16  C   UNL     1     -10.922  16.469   0.927  0.00  0.00    +0.013 A 
ATOM     17  C   UNL     1     -10.126  15.557   0.144  0.00  0.00    +0.005 A 
ATOM     18  C   UNL     1      -9.161  16.091  -0.815  0.00  0.00    -0.033 A 
ATOM     28  C   UNL     1      -9.024  17.530  -0.963  0.00  0.00    +0.005 A 
ATOM     29  C   UNL     1      -9.802  18.427  -0.196  0.00  0.00    +0.013 A 
BRANCH  18  19
ATOM     19  C   UNL     1      -8.255  15.192  -1.677  0.00  0.00    +0.119 C 
BRANCH  19  20
ATOM     20  N   UNL     1      -8.305  15.390  -3.157  0.00  0.00    -0.302 NA
ATOM     21  C   UNL     1      -8.084  14.081  -3.920  0.00  0.00    +0.066 C 
ATOM     22  C   UNL     1      -8.162  14.303  -5.465  0.00  0.00    -0.064 C 
ATOM     23  N   UNL     1      -7.129  15.352  -5.880  0.00  0.00    +0.379 N 
ATOM     24  C   UNL     1      -7.160  15.521  -7.340  0.00  0.00    -0.096 C 
ATOM     25  H   UNL     1      -6.122  14.962  -5.605  0.00  0.00    -0.082 HD
ATOM     26  C   UNL     1      -7.340  16.657  -5.124  0.00  0.00    -0.064 C 
ATOM     27  C   UNL     1      -7.290  16.420  -3.589  0.00  0.00    +0.066 C 
ENDBRANCH  19  20
ENDBRANCH  18  19
ENDBRANCH  14  15
ENDBRANCH  12  13
TORSDOF 6
ENDMDL
MODEL 5
REMARK VINA RESULT:      -8.2     12.023     16.576
REMARK  Name = C:\Users\Docking\Desktop\test protocol\1iep_ligandH.pdb
REMARK  8 active torsions:
REMARK  status: ('A' for Active; 'I' for Inactive)
REMARK    1  A    between atoms: _5  and  _11
REMARK    2  A    between atoms: _19  and  _21
REMARK    3  A    between atoms: _22  and  _66
REMARK    4  A    between atoms: _27  and  _30
REMARK    5  A    between atoms: _32  and  _33
REMARK    6  A    between atoms: _38  and  _43
REMARK    7  A    between atoms: _43  and  _46
REMARK    8  A    between atoms: _53  and  _55
REMARK                            x       y       z     vdW  Elec       q    Type
REMARK                         _______ _______ _______ _____ _____    ______ ____
ROOT
ATOM     10  C   UNL     1     -23.094  29.919  -5.200  0.00  0.00    +0.038 A 
ATOM     11  C   UNL     1     -22.408  30.175  -3.985  0.00  0.00    +0.047 A 
ATOM     12  C   UNL     1     -22.531  29.276  -2.848  0.00  0.00    +0.035 A 
ATOM     32  C   UNL     1     -23.358  28.123  -2.985  0.00  0.00    +0.024 A 
ATOM     33  C   UNL     1     -24.063  27.848  -4.212  0.00  0.00    +0.007 A 
ATOM     34  C   UNL     1     -23.948  28.733  -5.336  0.00  0.00    -0.029 A 
ATOM     35  C   UNL     1     -24.732  28.392  -6.625  0.00  0.00    +0.045 C 
ENDROOT
BRANCH  10   9
ATOM      4  C   UNL     1     -24.310  33.904  -7.582  0.00  0.00    +0.077 A 
ATOM      5  C   UNL     1     -25.358  34.212  -6.652  0.00  0.00    +0.048 A 
ATOM      6  C   UNL     1     -25.556  33.315  -5.578  0.00  0.00    +0.116 A 
ATOM      7  N   UNL     1     -24.759  32.197  -5.454  0.00  0.00    -0.223 NA
ATOM      8  C   UNL     1     -23.759  31.929  -6.370  0.00  0.00    +0.220 A 
ATOM      9  N   UNL     1     -22.940  30.816  -6.260  0.00  0.00    -0.283 N 
ATOM     36  H   UNL     1     -22.218  30.649  -6.960  0.00  0.00    +0.155 HD
ATOM     37  N   UNL     1     -23.550  32.770  -7.405  0.00  0.00    -0.214 NA
BRANCH   4   3
ATOM      1  C   UNL     1     -23.939  36.958  -9.998  0.00  0.00    +0.020 A 
ATOM      2  C   UNL     1     -24.284  36.180  -8.831  0.00  0.00    +0.013 A 
ATOM      3  C   UNL     1     -23.976  34.757  -8.767  0.00  0.00    +0.019 A 
ATOM     38  C   UNL     1     -23.314  34.147  -9.910  0.00  0.00    +0.120 A 
ATOM     39  N   UNL     1     -22.995  34.921 -11.021  0.00  0.00    -0.263 NA
ATOM     40  C   UNL     1     -23.288  36.291 -11.095  0.00  0.00    +0.111 A 
ENDBRANCH   4   3
ENDBRANCH  10   9
BRANCH  12  13
ATOM     13  N   UNL     1     -21.865  29.488  -1.587  0.00  0.00    -0.281 N 
ATOM     14  C   UNL     1     -21.142  28.572  -0.841  0.00  0.00    +0.248 C 
ATOM     30  O   UNL     1     -21.137  27.367  -1.042  0.00  0.00    -0.270 OA
ATOM     31  H   UNL     1     -21.936  30.428  -1.197  0.00  0.00    +0.155 HD
BRANCH  14  15
ATOM     15  C   UNL     1     -20.316  29.065   0.303  0.00  0.00    +0.037 A 
ATOM     16  C   UNL     1     -20.297  30.482   0.672  0.00  0.00    +0.013 A 
ATOM     17  C   UNL     1     -19.478  30.933   1.769  0.00  0.00    +0.005 A 
ATOM     18  C   UNL     1     -18.671  29.964   2.507  0.00  0.00    -0.033 A 
ATOM     28  C   UNL     1     -18.713  28.562   2.123  0.00  0.00    +0.005 A 
ATOM     29  C   UNL     1     -19.514  28.117   1.047  0.00  0.00    +0.013 A 
BRANCH  18  19
ATOM     19  C   UNL     1     -17.752  30.359   3.678  0.00  0.00    +0.119 C 
BRANCH  19  20
ATOM     20  N   UNL     1     -18.385  31.046   4.843  0.00  0.00    -0.302 NA
ATOM     21  C   UNL     1     -17.369  31.365   5.943  0.00  0.00    +0.066 C 
ATOM     22  C   UNL     1     -18.044  32.104   7.144  0.00  0.00    -0.064 C 
ATOM     23  N   UNL     1     -19.184  31.244   7.692  0.00  0.00    +0.379 N 
ATOM     24  C   UNL     1     -19.784  31.909   8.858  0.00  0.00    -0.096 C 
ATOM     25  H   UNL     1     -18.743  30.281   8.042  0.00  0.00    -0.082 HD
ATOM     26  C   UNL     1     -20.198  30.919   6.604  0.00  0.00    -0.064 C 
ATOM     27  C   UNL     1     -19.511  30.212   5.403  0.00  0.00    +0.066 C 
ENDBRANCH  19  20
ENDBRANCH  18  19
ENDBRANCH  14  15
ENDBRANCH  12  13
TORSDOF 6
ENDMDL
