MODEL 1
REMARK VINA RESULT:     -10.9      0.000      0.000
REMARK  Name = C:\Users\Docking\Desktop\test protocol\1iep_ligandH.pdb
REMARK  8 active torsions:
REMARK  status: ('A' for Active; 'I' for Inactive)
REMARK    1  A    between atoms: _5  and  _11
REMARK    2  A    between atoms: _19  and  _21
REMARK    3  A    between atoms: _22  and  _66
REMARK    4  A    between atoms: _27  and  _30
REMARK    5  A    between atoms: _32  and  _33
REMARK    6  A    between atoms: _38  and  _43
REMARK    7  A    between atoms: _43  and  _46
REMARK    8  A    between atoms: _53  and  _55
REMARK                            x       y       z     vdW  Elec       q    Type
REMARK                         _______ _______ _______ _____ _____    ______ ____
ROOT
ATOM     10  C   UNL     1      41.150   8.758  12.718  0.00  0.00    +0.038 A 
ATOM     11  C   UNL     1      42.524   9.042  12.515  0.00  0.00    +0.047 A 
ATOM     12  C   UNL     1      43.543   8.502  13.402  0.00  0.00    +0.035 A 
ATOM     32  C   UNL     1      43.127   7.673  14.484  0.00  0.00    +0.024 A 
ATOM     33  C   UNL     1      41.733   7.375  14.706  0.00  0.00    +0.007 A 
ATOM     34  C   UNL     1      40.724   7.907  13.836  0.00  0.00    -0.029 A 
ATOM     35  C   UNL     1      39.245   7.560  14.125  0.00  0.00    +0.045 C 
ENDROOT
BRANCH  10   9
ATOM      4  C   UNL     1      39.090   9.071   8.394  0.00  0.00    +0.077 A 
ATOM      5  C   UNL     1      39.970   8.084   7.838  0.00  0.00    +0.048 A 
ATOM      6  C   UNL     1      40.943   7.526   8.696  0.00  0.00    +0.116 A 
ATOM      7  N   UNL     1      41.022   7.931  10.011  0.00  0.00    -0.223 NA
ATOM      8  C   UNL     1      40.158   8.886  10.515  0.00  0.00    +0.220 A 
ATOM      9  N   UNL     1      40.214   9.303  11.836  0.00  0.00    -0.283 N 
ATOM     36  H   UNL     1      39.564  10.016  12.168  0.00  0.00    +0.155 HD
ATOM     37  N   UNL     1      39.221   9.436   9.716  0.00  0.00    -0.214 NA
BRANCH   4   3
ATOM      1  C   UNL     1      36.392  11.647   7.218  0.00  0.00    +0.020 A 
ATOM      2  C   UNL     1      37.435  11.033   8.006  0.00  0.00    +0.013 A 
ATOM      3  C   UNL     1      38.007   9.751   7.615  0.00  0.00    +0.019 A 
ATOM     38  C   UNL     1      37.497   9.111   6.412  0.00  0.00    +0.120 A 
ATOM     39  N   UNL     1      36.490   9.726   5.673  0.00  0.00    -0.263 NA
ATOM     40  C   UNL     1      35.931  10.959   6.041  0.00  0.00    +0.111 A 
ENDBRANCH   4   3
ENDBRANCH  10   9
BRANCH  12  13
ATOM     13  N   UNL     1      44.953   8.762  13.250  0.00  0.00    -0.281 N 
ATOM     14  C   UNL     1      45.829   8.204  12.333  0.00  0.00    +0.248 C 
ATOM     30  O   UNL     1      45.574   7.232  11.638  0.00  0.00    -0.270 OA
ATOM     31  H   UNL     1      45.355   9.441  13.898  0.00  0.00    +0.155 HD
BRANCH  14  15
ATOM     15  C   UNL     1      47.188   8.805  12.175  0.00  0.00    +0.037 A 
ATOM     16  C   UNL     1      47.434   9.888  11.219  0.00  0.00    +0.013 A 
ATOM     17  C   UNL     1      48.759  10.437  11.075  0.00  0.00    +0.005 A 
ATOM     18  C   UNL     1      49.848   9.905  11.890  0.00  0.00    -0.033 A 
ATOM     28  C   UNL     1      49.575   8.834  12.834  0.00  0.00    +0.005 A 
ATOM     29  C   UNL     1      48.278   8.292  12.977  0.00  0.00    +0.013 A 
BRANCH  18  19
ATOM     19  C   UNL     1      51.298  10.416  11.786  0.00  0.00    +0.119 C 
BRANCH  19  20
ATOM     20  N   UNL     1      51.500  11.792  11.241  0.00  0.00    -0.302 NA
ATOM     21  C   UNL     1      52.679  11.856  10.267  0.00  0.00    +0.066 C 
ATOM     22  C   UNL     1      52.863  13.297   9.689  0.00  0.00    -0.064 C 
ATOM     23  N   UNL     1      53.058  14.284  10.841  0.00  0.00    +0.379 N 
ATOM     24  C   UNL     1      53.288  15.631  10.299  0.00  0.00    -0.096 C 
ATOM     25  H   UNL     1      53.976  13.980  11.395  0.00  0.00    -0.082 HD
ATOM     26  C   UNL     1      51.891  14.225  11.816  0.00  0.00    -0.064 C 
ATOM     27  C   UNL     1      51.699  12.782  12.362  0.00  0.00    +0.066 C 
ENDBRANCH  19  20
ENDBRANCH  18  19
ENDBRANCH  14  15
ENDBRANCH  12  13
TORSDOF 6
ENDMDL
MODEL 2
REMARK VINA RESULT:     -10.2      3.331     12.655
REMARK  Name = C:\Users\Docking\Desktop\test protocol\1iep_ligandH.pdb
REMARK  8 active torsions:
REMARK  status: ('A' for Active; 'I' for Inactive)
REMARK    1  A    between atoms: _5  and  _11
REMARK    2  A    between atoms: _19  and  _21
REMARK    3  A    between atoms: _22  and  _66
REMARK    4  A    between atoms: _27  and  _30
REMARK    5  A    between atoms: _32  and  _33
REMARK    6  A    between atoms: _38  and  _43
REMARK    7  A    between atoms: _43  and  _46
REMARK    8  A    between atoms: _53  and  _55
REMARK                            x       y       z     vdW  Elec       q    Type
REMARK                         _______ _______ _______ _____ _____    ______ ____
ROOT
ATOM     10  C   UNL     1      41.960   9.355  11.816  0.00  0.00    +0.038 A 
ATOM     11  C   UNL     1      41.366   9.455  10.531  0.00  0.00    +0.047 A 
ATOM     12  C   UNL     1      39.984   9.062  10.308  0.00  0.00    +0.035 A 
ATOM     32  C   UNL     1      39.233   8.573  11.417  0.00  0.00    +0.024 A 
ATOM     33  C   UNL     1      39.821   8.464  12.729  0.00  0.00    +0.007 A 
ATOM     34  C   UNL     1      41.185   8.848  12.955  0.00  0.00    -0.029 A 
ATOM     35  C   UNL     1      41.765   8.703  14.381  0.00  0.00    +0.045 C 
ENDROOT
BRANCH  10   9
ATOM      4  C   UNL     1      46.678   8.527  11.524  0.00  0.00    +0.077 A 
ATOM      5  C   UNL     1      46.474   7.191  11.042  0.00  0.00    +0.048 A 
ATOM      6  C   UNL     1      45.139   6.753  10.891  0.00  0.00    +0.116 A 
ATOM      7  N   UNL     1      44.095   7.597  11.200  0.00  0.00    -0.223 NA
ATOM      8  C   UNL     1      44.327   8.879  11.664  0.00  0.00    +0.220 A 
ATOM      9  N   UNL     1      43.291   9.747  11.973  0.00  0.00    -0.283 N 
ATOM     36  H   UNL     1      43.504  10.682  12.319  0.00  0.00    +0.155 HD
ATOM     37  N   UNL     1      45.592   9.320  11.819  0.00  0.00    -0.214 NA
BRANCH   4   3
ATOM      1  C   UNL     1      50.242   9.309  12.934  0.00  0.00    +0.020 A 
ATOM      2  C   UNL     1      48.948   8.688  12.774  0.00  0.00    +0.013 A 
ATOM      3  C   UNL     1      48.030   9.135  11.734  0.00  0.00    +0.019 A 
ATOM     38  C   UNL     1      48.457  10.222  10.865  0.00  0.00    +0.120 A 
ATOM     39  N   UNL     1      49.709  10.802  11.043  0.00  0.00    -0.263 NA
ATOM     40  C   UNL     1      50.599  10.381  12.042  0.00  0.00    +0.111 A 
ENDBRANCH   4   3
ENDBRANCH  10   9
BRANCH  12  13
ATOM     13  N   UNL     1      39.330   9.134   9.025  0.00  0.00    -0.281 N 
ATOM     14  C   UNL     1      39.602   8.391   7.888  0.00  0.00    +0.248 C 
ATOM     30  O   UNL     1      40.596   7.696   7.738  0.00  0.00    -0.270 OA
ATOM     31  H   UNL     1      38.576   9.816   8.945  0.00  0.00    +0.155 HD
BRANCH  14  15
ATOM     15  C   UNL     1      38.637   8.437   6.748  0.00  0.00    +0.037 A 
ATOM     16  C   UNL     1      38.856   7.645   5.534  0.00  0.00    +0.013 A 
ATOM     17  C   UNL     1      37.919   7.721   4.442  0.00  0.00    +0.005 A 
ATOM     18  C   UNL     1      36.752   8.592   4.559  0.00  0.00    -0.033 A 
ATOM     28  C   UNL     1      36.556   9.363   5.776  0.00  0.00    +0.005 A 
ATOM     29  C   UNL     1      37.473   9.292   6.848  0.00  0.00    +0.013 A 
BRANCH  18  19
ATOM     19  C   UNL     1      35.711   8.752   3.435  0.00  0.00    +0.119 C 
BRANCH  19  20
ATOM     20  N   UNL     1      35.971   8.028   2.155  0.00  0.00    -0.302 NA
ATOM     21  C   UNL     1      35.705   8.910   0.932  0.00  0.00    +0.066 C 
ATOM     22  C   UNL     1      36.003   8.144  -0.398  0.00  0.00    -0.064 C 
ATOM     23  N   UNL     1      35.154   6.873  -0.452  0.00  0.00    +0.379 N 
ATOM     24  C   UNL     1      35.389   6.180  -1.728  0.00  0.00    -0.096 C 
ATOM     25  H   UNL     1      34.083   7.180  -0.427  0.00  0.00    -0.082 HD
ATOM     26  C   UNL     1      35.410   5.991   0.762  0.00  0.00    -0.064 C 
ATOM     27  C   UNL     1      35.139   6.771   2.079  0.00  0.00    +0.066 C 
ENDBRANCH  19  20
ENDBRANCH  18  19
ENDBRANCH  14  15
ENDBRANCH  12  13
TORSDOF 6
ENDMDL
MODEL 3
REMARK VINA RESULT:     -10.2      9.144     11.354
REMARK  Name = C:\Users\Docking\Desktop\test protocol\1iep_ligandH.pdb
REMARK  8 active torsions:
REMARK  status: ('A' for Active; 'I' for Inactive)
REMARK    1  A    between atoms: _5  and  _11
REMARK    2  A    between atoms: _19  and  _21
REMARK    3  A    between atoms: _22  and  _66
REMARK    4  A    between atoms: _27  and  _30
REMARK    5  A    between atoms: _32  and  _33
REMARK    6  A    between atoms: _38  and  _43
REMARK    7  A    between atoms: _43  and  _46
REMARK    8  A    between atoms: _53  and  _55
REMARK                            x       y       z     vdW  Elec       q    Type
REMARK                         _______ _______ _______ _____ _____    ______ ____
ROOT
ATOM     10  C   UNL     1      48.217   7.933   0.667  0.00  0.00    +0.038 A 
ATOM     11  C   UNL     1      47.928   7.749   2.044  0.00  0.00    +0.047 A 
ATOM     12  C   UNL     1      48.027   6.438   2.664  0.00  0.00    +0.035 A 
ATOM     32  C   UNL     1      48.425   5.335   1.854  0.00  0.00    +0.024 A 
ATOM     33  C   UNL     1      48.721   5.503   0.453  0.00  0.00    +0.007 A 
ATOM     34  C   UNL     1      48.623   6.794  -0.165  0.00  0.00    -0.029 A 
ATOM     35  C   UNL     1      48.947   6.915  -1.673  0.00  0.00    +0.045 C 
ENDROOT
BRANCH  10   9
ATOM      4  C   UNL     1      45.625  11.660  -0.893  0.00  0.00    +0.077 A 
ATOM      5  C   UNL     1      44.387  10.986  -0.625  0.00  0.00    +0.048 A 
ATOM      6  C   UNL     1      44.461   9.679  -0.094  0.00  0.00    +0.116 A 
ATOM      7  N   UNL     1      45.687   9.099   0.150  0.00  0.00    -0.223 NA
ATOM      8  C   UNL     1      46.862   9.776  -0.121  0.00  0.00    +0.220 A 
ATOM      9  N   UNL     1      48.106   9.215   0.123  0.00  0.00    -0.283 N 
ATOM     36  H   UNL     1      48.950   9.743  -0.097  0.00  0.00    +0.155 HD
ATOM     37  N   UNL     1      46.819  11.024  -0.631  0.00  0.00    -0.214 NA
BRANCH   4   3
ATOM      1  C   UNL     1      45.709  15.557  -1.215  0.00  0.00    +0.020 A 
ATOM      2  C   UNL     1      45.619  14.242  -0.624  0.00  0.00    +0.013 A 
ATOM      3  C   UNL     1      45.712  13.046  -1.452  0.00  0.00    +0.019 A 
ATOM     38  C   UNL     1      45.900  13.217  -2.885  0.00  0.00    +0.120 A 
ATOM     39  N   UNL     1      45.982  14.497  -3.425  0.00  0.00    -0.263 NA
ATOM     40  C   UNL     1      45.891  15.655  -2.639  0.00  0.00    +0.111 A 
ENDBRANCH   4   3
ENDBRANCH  10   9
BRANCH  12  13
ATOM     13  N   UNL     1      47.738   6.189   4.055  0.00  0.00    -0.281 N 
ATOM     14  C   UNL     1      48.616   5.785   5.048  0.00  0.00    +0.248 C 
ATOM     30  O   UNL     1      49.746   5.368   4.843  0.00  0.00    -0.270 OA
ATOM     31  H   UNL     1      46.769   6.327   4.342  0.00  0.00    +0.155 HD
BRANCH  14  15
ATOM     15  C   UNL     1      48.168   5.838   6.473  0.00  0.00    +0.037 A 
ATOM     16  C   UNL     1      48.862   5.080   7.517  0.00  0.00    +0.013 A 
ATOM     17  C   UNL     1      48.399   5.136   8.881  0.00  0.00    +0.005 A 
ATOM     18  C   UNL     1      47.235   5.956   9.209  0.00  0.00    -0.033 A 
ATOM     28  C   UNL     1      46.568   6.702   8.155  0.00  0.00    +0.005 A 
ATOM     29  C   UNL     1      47.019   6.649   6.816  0.00  0.00    +0.013 A 
BRANCH  18  19
ATOM     19  C   UNL     1      46.659   6.058  10.633  0.00  0.00    +0.119 C 
BRANCH  19  20
ATOM     20  N   UNL     1      45.605   7.088  10.872  0.00  0.00    -0.302 NA
ATOM     21  C   UNL     1      45.901   7.935  12.113  0.00  0.00    +0.066 C 
ATOM     22  C   UNL     1      44.800   9.023  12.336  0.00  0.00    -0.064 C 
ATOM     23  N   UNL     1      43.434   8.345  12.455  0.00  0.00    +0.379 N 
ATOM     24  C   UNL     1      42.404   9.360  12.722  0.00  0.00    -0.096 C 
ATOM     25  H   UNL     1      43.472   7.662  13.336  0.00  0.00    -0.082 HD
ATOM     26  C   UNL     1      43.133   7.499  11.227  0.00  0.00    -0.064 C 
ATOM     27  C   UNL     1      44.248   6.440  10.998  0.00  0.00    +0.066 C 
ENDBRANCH  19  20
ENDBRANCH  18  19
ENDBRANCH  14  15
ENDBRANCH  12  13
TORSDOF 6
ENDMDL
MODEL 4
REMARK VINA RESULT:     -10.1      7.814     11.954
REMARK  Name = C:\Users\Docking\Desktop\test protocol\1iep_ligandH.pdb
REMARK  8 active torsions:
REMARK  status: ('A' for Active; 'I' for Inactive)
REMARK    1  A    between atoms: _5  and  _11
REMARK    2  A    between atoms: _19  and  _21
REMARK    3  A    between atoms: _22  and  _66
REMARK    4  A    between atoms: _27  and  _30
REMARK    5  A    between atoms: _32  and  _33
REMARK    6  A    between atoms: _38  and  _43
REMARK    7  A    between atoms: _43  and  _46
REMARK    8  A    between atoms: _53  and  _55
REMARK                            x       y       z     vdW  Elec       q    Type
REMARK                         _______ _______ _______ _____ _____    ______ ____
ROOT
ATOM     10  C   UNL     1      47.592   5.769   7.686  0.00  0.00    +0.038 A 
ATOM     11  C   UNL     1      47.072   6.203   6.441  0.00  0.00    +0.047 A 
ATOM     12  C   UNL     1      47.808   5.996   5.204  0.00  0.00    +0.035 A 
ATOM     32  C   UNL     1      49.072   5.339   5.272  0.00  0.00    +0.024 A 
ATOM     33  C   UNL     1      49.616   4.892   6.530  0.00  0.00    +0.007 A 
ATOM     34  C   UNL     1      48.896   5.097   7.753  0.00  0.00    -0.029 A 
ATOM     35  C   UNL     1      49.531   4.602   9.074  0.00  0.00    +0.045 C 
ENDROOT
BRANCH  10   9
ATOM      4  C   UNL     1      46.376   8.431  11.491  0.00  0.00    +0.077 A 
ATOM      5  C   UNL     1      47.334   9.447  11.161  0.00  0.00    +0.048 A 
ATOM      6  C   UNL     1      48.125   9.242  10.008  0.00  0.00    +0.116 A 
ATOM      7  N   UNL     1      47.961   8.104   9.249  0.00  0.00    -0.223 NA
ATOM      8  C   UNL     1      47.029   7.143   9.596  0.00  0.00    +0.220 A 
ATOM      9  N   UNL     1      46.843   5.994   8.843  0.00  0.00    -0.283 N 
ATOM     36  H   UNL     1      46.150   5.306   9.137  0.00  0.00    +0.155 HD
ATOM     37  N   UNL     1      46.263   7.314  10.693  0.00  0.00    -0.214 NA
BRANCH   4   3
ATOM      1  C   UNL     1      44.958   8.205  15.129  0.00  0.00    +0.020 A 
ATOM      2  C   UNL     1      45.877   8.115  14.018  0.00  0.00    +0.013 A 
ATOM      3  C   UNL     1      45.464   8.504  12.676  0.00  0.00    +0.019 A 
ATOM     38  C   UNL     1      44.103   8.985  12.490  0.00  0.00    +0.120 A 
ATOM     39  N   UNL     1      43.240   9.060  13.578  0.00  0.00    -0.263 NA
ATOM     40  C   UNL     1      43.626   8.686  14.875  0.00  0.00    +0.111 A 
ENDBRANCH   4   3
ENDBRANCH  10   9
BRANCH  12  13
ATOM     13  N   UNL     1      47.334   6.422   3.911  0.00  0.00    -0.281 N 
ATOM     14  C   UNL     1      47.916   7.337   3.049  0.00  0.00    +0.248 C 
ATOM     30  O   UNL     1      48.827   8.092   3.355  0.00  0.00    -0.270 OA
ATOM     31  H   UNL     1      46.463   5.998   3.592  0.00  0.00    +0.155 HD
BRANCH  14  15
ATOM     15  C   UNL     1      47.402   7.440   1.649  0.00  0.00    +0.037 A 
ATOM     16  C   UNL     1      48.139   8.178   0.621  0.00  0.00    +0.013 A 
ATOM     17  C   UNL     1      47.613   8.276  -0.717  0.00  0.00    +0.005 A 
ATOM     18  C   UNL     1      46.341   7.631  -1.035  0.00  0.00    -0.033 A 
ATOM     28  C   UNL     1      45.633   6.901   0.003  0.00  0.00    +0.005 A 
ATOM     29  C   UNL     1      46.145   6.804   1.316  0.00  0.00    +0.013 A 
BRANCH  18  19
ATOM     19  C   UNL     1      45.693   7.701  -2.431  0.00  0.00    +0.119 C 
BRANCH  19  20
ATOM     20  N   UNL     1      44.374   8.392  -2.538  0.00  0.00    -0.302 NA
ATOM     21  C   UNL     1      43.994   8.682  -3.993  0.00  0.00    +0.066 C 
ATOM     22  C   UNL     1      42.601   9.385  -4.088  0.00  0.00    -0.064 C 
ATOM     23  N   UNL     1      42.626  10.675  -3.267  0.00  0.00    +0.379 N 
ATOM     24  C   UNL     1      41.336  11.368  -3.402  0.00  0.00    -0.096 C 
ATOM     25  H   UNL     1      43.412  11.336  -3.701  0.00  0.00    -0.082 HD
ATOM     26  C   UNL     1      43.005  10.396  -1.820  0.00  0.00    -0.064 C 
ATOM     27  C   UNL     1      44.378   9.671  -1.738  0.00  0.00    +0.066 C 
ENDBRANCH  19  20
ENDBRANCH  18  19
ENDBRANCH  14  15
ENDBRANCH  12  13
TORSDOF 6
ENDMDL
MODEL 5
REMARK VINA RESULT:      -9.8      9.156     10.849
REMARK  Name = C:\Users\Docking\Desktop\test protocol\1iep_ligandH.pdb
REMARK  8 active torsions:
REMARK  status: ('A' for Active; 'I' for Inactive)
REMARK    1  A    between atoms: _5  and  _11
REMARK    2  A    between atoms: _19  and  _21
REMARK    3  A    between atoms: _22  and  _66
REMARK    4  A    between atoms: _27  and  _30
REMARK    5  A    between atoms: _32  and  _33
REMARK    6  A    between atoms: _38  and  _43
REMARK    7  A    between atoms: _43  and  _46
REMARK    8  A    between atoms: _53  and  _55
REMARK                            x       y       z     vdW  Elec       q    Type
REMARK                         _______ _______ _______ _____ _____    ______ ____
ROOT
ATOM     10  C   UNL     1      48.207   7.887   0.622  0.00  0.00    +0.038 A 
ATOM     11  C   UNL     1      47.945   7.765   2.011  0.00  0.00    +0.047 A 
ATOM     12  C   UNL     1      48.017   6.475   2.679  0.00  0.00    +0.035 A 
ATOM     32  C   UNL     1      48.360   5.330   1.903  0.00  0.00    +0.024 A 
ATOM     33  C   UNL     1      48.628   5.436   0.490  0.00  0.00    +0.007 A 
ATOM     34  C   UNL     1      48.556   6.705  -0.175  0.00  0.00    -0.029 A 
ATOM     35  C   UNL     1      48.847   6.759  -1.693  0.00  0.00    +0.045 C 
ENDROOT
BRANCH  10   9
ATOM      4  C   UNL     1      45.696  11.587  -1.123  0.00  0.00    +0.077 A 
ATOM      5  C   UNL     1      44.444  10.938  -0.861  0.00  0.00    +0.048 A 
ATOM      6  C   UNL     1      44.490   9.649  -0.283  0.00  0.00    +0.116 A 
ATOM      7  N   UNL     1      45.703   9.064   0.007  0.00  0.00    -0.223 NA
ATOM      8  C   UNL     1      46.892   9.717  -0.260  0.00  0.00    +0.220 A 
ATOM      9  N   UNL     1      48.124   9.150   0.031  0.00  0.00    -0.283 N 
ATOM     36  H   UNL     1      48.979   9.661  -0.188  0.00  0.00    +0.155 HD
ATOM     37  N   UNL     1      46.876  10.947  -0.813  0.00  0.00    -0.214 NA
BRANCH   4   3
ATOM      1  C   UNL     1      46.950  15.187  -2.002  0.00  0.00    +0.020 A 
ATOM      2  C   UNL     1      46.883  13.880  -1.389  0.00  0.00    +0.013 A 
ATOM      3  C   UNL     1      45.812  12.952  -1.728  0.00  0.00    +0.019 A 
ATOM     38  C   UNL     1      44.818  13.379  -2.701  0.00  0.00    +0.120 A 
ATOM     39  N   UNL     1      44.907  14.643  -3.274  0.00  0.00    -0.263 NA
ATOM     40  C   UNL     1      45.932  15.546  -2.954  0.00  0.00    +0.111 A 
ENDBRANCH   4   3
ENDBRANCH  10   9
BRANCH  12  13
ATOM     13  N   UNL     1      47.754   6.288   4.084  0.00  0.00    -0.281 N 
ATOM     14  C   UNL     1      48.613   5.795   5.053  0.00  0.00    +0.248 C 
ATOM     30  O   UNL     1      49.673   5.236   4.817  0.00  0.00    -0.270 OA
ATOM     31  H   UNL     1      46.822   6.552   4.404  0.00  0.00    +0.155 HD
BRANCH  14  15
ATOM     15  C   UNL     1      48.231   5.929   6.492  0.00  0.00    +0.037 A 
ATOM     16  C   UNL     1      48.888   5.130   7.530  0.00  0.00    +0.013 A 
ATOM     17  C   UNL     1      48.489   5.266   8.908  0.00  0.00    +0.005 A 
ATOM     18  C   UNL     1      47.428   6.207   9.257  0.00  0.00    -0.033 A 
ATOM     28  C   UNL     1      46.796   6.991   8.208  0.00  0.00    +0.005 A 
ATOM     29  C   UNL     1      47.184   6.859   6.856  0.00  0.00    +0.013 A 
BRANCH  18  19
ATOM     19  C   UNL     1      46.923   6.403  10.699  0.00  0.00    +0.119 C 
BRANCH  19  20
ATOM     20  N   UNL     1      47.547   7.499  11.499  0.00  0.00    -0.302 NA
ATOM     21  C   UNL     1      46.967   8.871  11.144  0.00  0.00    +0.066 C 
ATOM     22  C   UNL     1      47.614  10.003  12.006  0.00  0.00    -0.064 C 
ATOM     23  N   UNL     1      49.131   9.988  11.807  0.00  0.00    +0.379 N 
ATOM     24  C   UNL     1      49.737  11.088  12.570  0.00  0.00    -0.096 C 
ATOM     25  H   UNL     1      49.331  10.175  10.726  0.00  0.00    -0.082 HD
ATOM     26  C   UNL     1      49.715   8.626  12.155  0.00  0.00    -0.064 C 
ATOM     27  C   UNL     1      49.044   7.505  11.314  0.00  0.00    +0.066 C 
ENDBRANCH  19  20
ENDBRANCH  18  19
ENDBRANCH  14  15
ENDBRANCH  12  13
TORSDOF 6
ENDMDL
