MODEL 1
REMARK VINA RESULT:     -10.7      0.000      0.000
REMARK  Name = C:\Users\Docking\Desktop\test protocol\1iep_ligandH.pdb
REMARK  8 active torsions:
REMARK  status: ('A' for Active; 'I' for Inactive)
REMARK    1  A    between atoms: _5  and  _11
REMARK    2  A    between atoms: _19  and  _21
REMARK    3  A    between atoms: _22  and  _66
REMARK    4  A    between atoms: _27  and  _30
REMARK    5  A    between atoms: _32  and  _33
REMARK    6  A    between atoms: _38  and  _43
REMARK    7  A    between atoms: _43  and  _46
REMARK    8  A    between atoms: _53  and  _55
REMARK                            x       y       z     vdW  Elec       q    Type
REMARK                         _______ _______ _______ _____ _____    ______ ____
ROOT
ATOM     10  C   UNL     1      12.653 -18.001 -14.297  0.00  0.00    +0.038 A 
ATOM     11  C   UNL     1      11.528 -17.739 -15.120  0.00  0.00    +0.047 A 
ATOM     12  C   UNL     1      10.285 -18.475 -14.952  0.00  0.00    +0.035 A 
ATOM     32  C   UNL     1      10.222 -19.470 -13.933  0.00  0.00    +0.024 A 
ATOM     33  C   UNL     1      11.356 -19.751 -13.088  0.00  0.00    +0.007 A 
ATOM     34  C   UNL     1      12.586 -19.029 -13.252  0.00  0.00    -0.029 A 
ATOM     35  C   UNL     1      13.772 -19.376 -12.322  0.00  0.00    +0.045 C 
ENDROOT
BRANCH  10   9
ATOM      4  C   UNL     1      15.237 -13.973 -13.928  0.00  0.00    +0.077 A 
ATOM      5  C   UNL     1      14.158 -13.269 -13.298  0.00  0.00    +0.048 A 
ATOM      6  C   UNL     1      12.953 -13.977 -13.093  0.00  0.00    +0.116 A 
ATOM      7  N   UNL     1      12.846 -15.291 -13.492  0.00  0.00    -0.223 NA
ATOM      8  C   UNL     1      13.905 -15.941 -14.100  0.00  0.00    +0.220 A 
ATOM      9  N   UNL     1      13.822 -17.265 -14.502  0.00  0.00    -0.283 N 
ATOM     36  H   UNL     1      14.623 -17.706 -14.954  0.00  0.00    +0.155 HD
ATOM     37  N   UNL     1      15.066 -15.286 -14.308  0.00  0.00    -0.214 NA
BRANCH   4   3
ATOM      1  C   UNL     1      18.082 -11.744 -15.424  0.00  0.00    +0.020 A 
ATOM      2  C   UNL     1      16.770 -12.300 -15.189  0.00  0.00    +0.013 A 
ATOM      3  C   UNL     1      16.574 -13.362 -14.211  0.00  0.00    +0.019 A 
ATOM     38  C   UNL     1      17.737 -13.842 -13.479  0.00  0.00    +0.120 A 
ATOM     39  N   UNL     1      18.989 -13.288 -13.727  0.00  0.00    -0.263 NA
ATOM     40  C   UNL     1      19.190 -12.267 -14.668  0.00  0.00    +0.111 A 
ENDBRANCH   4   3
ENDBRANCH  10   9
BRANCH  12  13
ATOM     13  N   UNL     1       9.113 -18.258 -15.763  0.00  0.00    -0.281 N 
ATOM     14  C   UNL     1       8.071 -19.138 -16.006  0.00  0.00    +0.248 C 
ATOM     30  O   UNL     1       8.094 -20.329 -15.734  0.00  0.00    -0.270 OA
ATOM     31  H   UNL     1       9.042 -17.345 -16.212  0.00  0.00    +0.155 HD
BRANCH  14  15
ATOM     15  C   UNL     1       6.829 -18.624 -16.660  0.00  0.00    +0.037 A 
ATOM     16  C   UNL     1       5.543 -18.627 -15.957  0.00  0.00    +0.013 A 
ATOM     17  C   UNL     1       4.357 -18.141 -16.617  0.00  0.00    +0.005 A 
ATOM     18  C   UNL     1       4.453 -17.646 -17.988  0.00  0.00    -0.033 A 
ATOM     28  C   UNL     1       5.742 -17.649 -18.660  0.00  0.00    +0.005 A 
ATOM     29  C   UNL     1       6.906 -18.126 -18.017  0.00  0.00    +0.013 A 
BRANCH  18  19
ATOM     19  C   UNL     1       3.236 -17.128 -18.777  0.00  0.00    +0.119 C 
BRANCH  19  20
ATOM     20  N   UNL     1       1.883 -17.528 -18.288  0.00  0.00    -0.302 NA
ATOM     21  C   UNL     1       1.413 -18.846 -18.911  0.00  0.00    +0.066 C 
ATOM     22  C   UNL     1       0.006 -19.261 -18.371  0.00  0.00    -0.064 C 
ATOM     23  N   UNL     1      -0.997 -18.140 -18.652  0.00  0.00    +0.379 N 
ATOM     24  C   UNL     1      -2.333 -18.552 -18.197  0.00  0.00    -0.096 C 
ATOM     25  H   UNL     1      -1.044 -17.999 -19.757  0.00  0.00    -0.082 HD
ATOM     26  C   UNL     1      -0.536 -16.826 -18.038  0.00  0.00    -0.064 C 
ATOM     27  C   UNL     1       0.876 -16.438 -18.559  0.00  0.00    +0.066 C 
ENDBRANCH  19  20
ENDBRANCH  18  19
ENDBRANCH  14  15
ENDBRANCH  12  13
TORSDOF 6
ENDMDL
MODEL 2
REMARK VINA RESULT:     -10.7      2.665     13.623
REMARK  Name = C:\Users\Docking\Desktop\test protocol\1iep_ligandH.pdb
REMARK  8 active torsions:
REMARK  status: ('A' for Active; 'I' for Inactive)
REMARK    1  A    between atoms: _5  and  _11
REMARK    2  A    between atoms: _19  and  _21
REMARK    3  A    between atoms: _22  and  _66
REMARK    4  A    between atoms: _27  and  _30
REMARK    5  A    between atoms: _32  and  _33
REMARK    6  A    between atoms: _38  and  _43
REMARK    7  A    between atoms: _43  and  _46
REMARK    8  A    between atoms: _53  and  _55
REMARK                            x       y       z     vdW  Elec       q    Type
REMARK                         _______ _______ _______ _____ _____    ______ ____
ROOT
ATOM     10  C   UNL     1       5.060 -17.152 -18.564  0.00  0.00    +0.038 A 
ATOM     11  C   UNL     1       5.776 -17.395 -17.364  0.00  0.00    +0.047 A 
ATOM     12  C   UNL     1       7.177 -17.786 -17.389  0.00  0.00    +0.035 A 
ATOM     32  C   UNL     1       7.819 -17.917 -18.655  0.00  0.00    +0.024 A 
ATOM     33  C   UNL     1       7.106 -17.675 -19.885  0.00  0.00    +0.007 A 
ATOM     34  C   UNL     1       5.723 -17.292 -19.866  0.00  0.00    -0.029 A 
ATOM     35  C   UNL     1       5.007 -17.052 -21.215  0.00  0.00    +0.045 C 
ENDROOT
BRANCH  10   9
ATOM      4  C   UNL     1       0.379 -18.202 -18.397  0.00  0.00    +0.077 A 
ATOM      5  C   UNL     1       0.630 -19.609 -18.512  0.00  0.00    +0.048 A 
ATOM      6  C   UNL     1       1.978 -20.022 -18.619  0.00  0.00    +0.116 A 
ATOM      7  N   UNL     1       2.990 -19.087 -18.610  0.00  0.00    -0.223 NA
ATOM      8  C   UNL     1       2.713 -17.737 -18.500  0.00  0.00    +0.220 A 
ATOM      9  N   UNL     1       3.716 -16.780 -18.481  0.00  0.00    -0.283 N 
ATOM     36  H   UNL     1       3.471 -15.793 -18.405  0.00  0.00    +0.155 HD
ATOM     37  N   UNL     1       1.435 -17.317 -18.398  0.00  0.00    -0.214 NA
BRANCH   4   3
ATOM      1  C   UNL     1      -2.604 -15.864 -17.431  0.00  0.00    +0.020 A 
ATOM      2  C   UNL     1      -1.263 -16.393 -17.519  0.00  0.00    +0.013 A 
ATOM      3  C   UNL     1      -0.991 -17.610 -18.273  0.00  0.00    +0.019 A 
ATOM     38  C   UNL     1      -2.107 -18.273 -18.931  0.00  0.00    +0.120 A 
ATOM     39  N   UNL     1      -3.388 -17.741 -18.827  0.00  0.00    -0.263 NA
ATOM     40  C   UNL     1      -3.662 -16.571 -18.103  0.00  0.00    +0.111 A 
ENDBRANCH   4   3
ENDBRANCH  10   9
BRANCH  12  13
ATOM     13  N   UNL     1       7.953 -18.053 -16.204  0.00  0.00    -0.281 N 
ATOM     14  C   UNL     1       8.490 -19.262 -15.792  0.00  0.00    +0.248 C 
ATOM     30  O   UNL     1       8.201 -20.347 -16.275  0.00  0.00    -0.270 OA
ATOM     31  H   UNL     1       8.127 -17.254 -15.594  0.00  0.00    +0.155 HD
BRANCH  14  15
ATOM     15  C   UNL     1       9.479 -19.268 -14.672  0.00  0.00    +0.037 A 
ATOM     16  C   UNL     1       9.343 -20.192 -13.543  0.00  0.00    +0.013 A 
ATOM     17  C   UNL     1      10.302 -20.166 -12.467  0.00  0.00    +0.005 A 
ATOM     18  C   UNL     1      11.408 -19.212 -12.516  0.00  0.00    -0.033 A 
ATOM     28  C   UNL     1      11.522 -18.311 -13.651  0.00  0.00    +0.005 A 
ATOM     29  C   UNL     1      10.583 -18.333 -14.706  0.00  0.00    +0.013 A 
BRANCH  18  19
ATOM     19  C   UNL     1      12.465 -19.100 -11.402  0.00  0.00    +0.119 C 
BRANCH  19  20
ATOM     20  N   UNL     1      13.555 -18.096 -11.593  0.00  0.00    -0.302 NA
ATOM     21  C   UNL     1      14.909 -18.620 -11.108  0.00  0.00    +0.066 C 
ATOM     22  C   UNL     1      16.042 -17.567 -11.335  0.00  0.00    -0.064 C 
ATOM     23  N   UNL     1      15.676 -16.266 -10.618  0.00  0.00    +0.379 N 
ATOM     24  C   UNL     1      16.765 -15.292 -10.782  0.00  0.00    -0.096 C 
ATOM     25  H   UNL     1      15.586 -16.494  -9.531  0.00  0.00    -0.082 HD
ATOM     26  C   UNL     1      14.329 -15.740 -11.093  0.00  0.00    -0.064 C 
ATOM     27  C   UNL     1      13.216 -16.805 -10.889  0.00  0.00    +0.066 C 
ENDBRANCH  19  20
ENDBRANCH  18  19
ENDBRANCH  14  15
ENDBRANCH  12  13
TORSDOF 6
ENDMDL
MODEL 3
REMARK VINA RESULT:     -10.6      2.113      2.963
REMARK  Name = C:\Users\Docking\Desktop\test protocol\1iep_ligandH.pdb
REMARK  8 active torsions:
REMARK  status: ('A' for Active; 'I' for Inactive)
REMARK    1  A    between atoms: _5  and  _11
REMARK    2  A    between atoms: _19  and  _21
REMARK    3  A    between atoms: _22  and  _66
REMARK    4  A    between atoms: _27  and  _30
REMARK    5  A    between atoms: _32  and  _33
REMARK    6  A    between atoms: _38  and  _43
REMARK    7  A    between atoms: _43  and  _46
REMARK    8  A    between atoms: _53  and  _55
REMARK                            x       y       z     vdW  Elec       q    Type
REMARK                         _______ _______ _______ _____ _____    ______ ____
ROOT
ATOM     10  C   UNL     1      10.953 -19.402 -14.661  0.00  0.00    +0.038 A 
ATOM     11  C   UNL     1       9.873 -18.636 -15.168  0.00  0.00    +0.047 A 
ATOM     12  C   UNL     1       8.572 -19.240 -15.414  0.00  0.00    +0.035 A 
ATOM     32  C   UNL     1       8.407 -20.626 -15.130  0.00  0.00    +0.024 A 
ATOM     33  C   UNL     1       9.494 -21.420 -14.614  0.00  0.00    +0.007 A 
ATOM     34  C   UNL     1      10.780 -20.831 -14.372  0.00  0.00    -0.029 A 
ATOM     35  C   UNL     1      11.912 -21.731 -13.825  0.00  0.00    +0.045 C 
ENDROOT
BRANCH  10   9
ATOM      4  C   UNL     1      14.109 -17.143 -11.837  0.00  0.00    +0.077 A 
ATOM      5  C   UNL     1      13.228 -17.200 -10.706  0.00  0.00    +0.048 A 
ATOM      6  C   UNL     1      11.969 -17.813 -10.895  0.00  0.00    +0.116 A 
ATOM      7  N   UNL     1      11.627 -18.327 -12.127  0.00  0.00    -0.223 NA
ATOM      8  C   UNL     1      12.500 -18.254 -13.197  0.00  0.00    +0.220 A 
ATOM      9  N   UNL     1      12.180 -18.771 -14.443  0.00  0.00    -0.283 N 
ATOM     36  H   UNL     1      12.848 -18.690 -15.209  0.00  0.00    +0.155 HD
ATOM     37  N   UNL     1      13.707 -17.672 -13.043  0.00  0.00    -0.214 NA
BRANCH   4   3
ATOM      1  C   UNL     1      17.125 -14.707 -12.357  0.00  0.00    +0.020 A 
ATOM      2  C   UNL     1      15.790 -15.256 -12.428  0.00  0.00    +0.013 A 
ATOM      3  C   UNL     1      15.474 -16.529 -11.794  0.00  0.00    +0.019 A 
ATOM     38  C   UNL     1      16.539 -17.228 -11.090  0.00  0.00    +0.120 A 
ATOM     39  N   UNL     1      17.815 -16.676 -11.040  0.00  0.00    -0.263 NA
ATOM     40  C   UNL     1      18.132 -15.452 -11.648  0.00  0.00    +0.111 A 
ENDBRANCH   4   3
ENDBRANCH  10   9
BRANCH  12  13
ATOM     13  N   UNL     1       7.441 -18.514 -15.936  0.00  0.00    -0.281 N 
ATOM     14  C   UNL     1       6.975 -18.486 -17.241  0.00  0.00    +0.248 C 
ATOM     30  O   UNL     1       7.592 -18.915 -18.204  0.00  0.00    -0.270 OA
ATOM     31  H   UNL     1       6.920 -17.952 -15.262  0.00  0.00    +0.155 HD
BRANCH  14  15
ATOM     15  C   UNL     1       5.637 -17.881 -17.517  0.00  0.00    +0.037 A 
ATOM     16  C   UNL     1       5.105 -17.803 -18.880  0.00  0.00    +0.013 A 
ATOM     17  C   UNL     1       3.818 -17.199 -19.120  0.00  0.00    +0.005 A 
ATOM     18  C   UNL     1       3.054 -16.669 -17.993  0.00  0.00    -0.033 A 
ATOM     28  C   UNL     1       3.603 -16.764 -16.651  0.00  0.00    +0.005 A 
ATOM     29  C   UNL     1       4.864 -17.354 -16.412  0.00  0.00    +0.013 A 
BRANCH  18  19
ATOM     19  C   UNL     1       1.682 -15.988 -18.159  0.00  0.00    +0.119 C 
BRANCH  19  20
ATOM     20  N   UNL     1       0.473 -16.862 -18.092  0.00  0.00    -0.302 NA
ATOM     21  C   UNL     1       0.435 -17.880 -19.235  0.00  0.00    +0.066 C 
ATOM     22  C   UNL     1      -0.825 -18.801 -19.136  0.00  0.00    -0.064 C 
ATOM     23  N   UNL     1      -2.087 -17.936 -19.138  0.00  0.00    +0.379 N 
ATOM     24  C   UNL     1      -3.275 -18.801 -19.104  0.00  0.00    -0.096 C 
ATOM     25  H   UNL     1      -2.107 -17.371 -20.099  0.00  0.00    -0.082 HD
ATOM     26  C   UNL     1      -2.056 -16.919 -18.006  0.00  0.00    -0.064 C 
ATOM     27  C   UNL     1      -0.785 -16.029 -18.097  0.00  0.00    +0.066 C 
ENDBRANCH  19  20
ENDBRANCH  18  19
ENDBRANCH  14  15
ENDBRANCH  12  13
TORSDOF 6
ENDMDL
MODEL 4
REMARK VINA RESULT:      -9.9     11.150     18.010
REMARK  Name = C:\Users\Docking\Desktop\test protocol\1iep_ligandH.pdb
REMARK  8 active torsions:
REMARK  status: ('A' for Active; 'I' for Inactive)
REMARK    1  A    between atoms: _5  and  _11
REMARK    2  A    between atoms: _19  and  _21
REMARK    3  A    between atoms: _22  and  _66
REMARK    4  A    between atoms: _27  and  _30
REMARK    5  A    between atoms: _32  and  _33
REMARK    6  A    between atoms: _38  and  _43
REMARK    7  A    between atoms: _43  and  _46
REMARK    8  A    between atoms: _53  and  _55
REMARK                            x       y       z     vdW  Elec       q    Type
REMARK                         _______ _______ _______ _____ _____    ______ ____
ROOT
ATOM     10  C   UNL     1      -5.074 -14.859 -15.175  0.00  0.00    +0.038 A 
ATOM     11  C   UNL     1      -6.134 -15.738 -14.836  0.00  0.00    +0.047 A 
ATOM     12  C   UNL     1      -7.456 -15.229 -14.503  0.00  0.00    +0.035 A 
ATOM     32  C   UNL     1      -7.663 -13.819 -14.528  0.00  0.00    +0.024 A 
ATOM     33  C   UNL     1      -6.596 -12.912 -14.869  0.00  0.00    +0.007 A 
ATOM     34  C   UNL     1      -5.290 -13.407 -15.196  0.00  0.00    -0.029 A 
ATOM     35  C   UNL     1      -4.182 -12.387 -15.548  0.00  0.00    +0.045 C 
ENDROOT
BRANCH  10   9
ATOM      4  C   UNL     1      -2.110 -17.263 -18.085  0.00  0.00    +0.077 A 
ATOM      5  C   UNL     1      -3.143 -17.479 -19.056  0.00  0.00    +0.048 A 
ATOM      6  C   UNL     1      -4.426 -16.962 -18.766  0.00  0.00    +0.116 A 
ATOM      7  N   UNL     1      -4.646 -16.280 -17.588  0.00  0.00    -0.223 NA
ATOM      8  C   UNL     1      -3.628 -16.091 -16.672  0.00  0.00    +0.220 A 
ATOM      9  N   UNL     1      -3.825 -15.402 -15.486  0.00  0.00    -0.283 N 
ATOM     36  H   UNL     1      -3.050 -15.290 -14.833  0.00  0.00    +0.155 HD
ATOM     37  N   UNL     1      -2.395 -16.577 -16.926  0.00  0.00    -0.214 NA
BRANCH   4   3
ATOM      1  C   UNL     1       1.791 -17.375 -18.356  0.00  0.00    +0.020 A 
ATOM      2  C   UNL     1       0.452 -16.858 -18.191  0.00  0.00    +0.013 A 
ATOM      3  C   UNL     1      -0.702 -17.746 -18.250  0.00  0.00    +0.019 A 
ATOM     38  C   UNL     1      -0.465 -19.163 -18.479  0.00  0.00    +0.120 A 
ATOM     39  N   UNL     1       0.835 -19.633 -18.636  0.00  0.00    -0.263 NA
ATOM     40  C   UNL     1       1.953 -18.787 -18.583  0.00  0.00    +0.111 A 
ENDBRANCH   4   3
ENDBRANCH  10   9
BRANCH  12  13
ATOM     13  N   UNL     1      -8.569 -16.073 -14.143  0.00  0.00    -0.281 N 
ATOM     14  C   UNL     1      -9.142 -17.090 -14.888  0.00  0.00    +0.248 C 
ATOM     30  O   UNL     1      -8.920 -17.288 -16.074  0.00  0.00    -0.270 OA
ATOM     31  H   UNL     1      -8.984 -15.899 -13.228  0.00  0.00    +0.155 HD
BRANCH  14  15
ATOM     15  C   UNL     1     -10.115 -18.011 -14.225  0.00  0.00    +0.037 A 
ATOM     16  C   UNL     1     -10.741 -19.113 -14.961  0.00  0.00    +0.013 A 
ATOM     17  C   UNL     1     -11.688 -19.976 -14.301  0.00  0.00    +0.005 A 
ATOM     18  C   UNL     1     -12.014 -19.742 -12.897  0.00  0.00    -0.033 A 
ATOM     28  C   UNL     1     -11.374 -18.645 -12.189  0.00  0.00    +0.005 A 
ATOM     29  C   UNL     1     -10.446 -17.796 -12.833  0.00  0.00    +0.013 A 
BRANCH  18  19
ATOM     19  C   UNL     1     -13.029 -20.600 -12.119  0.00  0.00    +0.119 C 
BRANCH  19  20
ATOM     20  N   UNL     1     -14.460 -20.512 -12.537  0.00  0.00    -0.302 NA
ATOM     21  C   UNL     1     -14.938 -19.062 -12.652  0.00  0.00    +0.066 C 
ATOM     22  C   UNL     1     -16.430 -18.989 -13.112  0.00  0.00    -0.064 C 
ATOM     23  N   UNL     1     -17.303 -19.769 -12.128  0.00  0.00    +0.379 N 
ATOM     24  C   UNL     1     -18.714 -19.654 -12.525  0.00  0.00    -0.096 C 
ATOM     25  H   UNL     1     -17.193 -19.292 -11.126  0.00  0.00    -0.082 HD
ATOM     26  C   UNL     1     -16.834 -21.212 -12.005  0.00  0.00    -0.064 C 
ATOM     27  C   UNL     1     -15.341 -21.273 -11.576  0.00  0.00    +0.066 C 
ENDBRANCH  19  20
ENDBRANCH  18  19
ENDBRANCH  14  15
ENDBRANCH  12  13
TORSDOF 6
ENDMDL
MODEL 5
REMARK VINA RESULT:      -9.8     11.271     17.917
REMARK  Name = C:\Users\Docking\Desktop\test protocol\1iep_ligandH.pdb
REMARK  8 active torsions:
REMARK  status: ('A' for Active; 'I' for Inactive)
REMARK    1  A    between atoms: _5  and  _11
REMARK    2  A    between atoms: _19  and  _21
REMARK    3  A    between atoms: _22  and  _66
REMARK    4  A    between atoms: _27  and  _30
REMARK    5  A    between atoms: _32  and  _33
REMARK    6  A    between atoms: _38  and  _43
REMARK    7  A    between atoms: _43  and  _46
REMARK    8  A    between atoms: _53  and  _55
REMARK                            x       y       z     vdW  Elec       q    Type
REMARK                         _______ _______ _______ _____ _____    ______ ____
ROOT
ATOM     10  C   UNL     1      -5.352 -14.967 -15.124  0.00  0.00    +0.038 A 
ATOM     11  C   UNL     1      -6.380 -15.892 -14.808  0.00  0.00    +0.047 A 
ATOM     12  C   UNL     1      -7.718 -15.440 -14.460  0.00  0.00    +0.035 A 
ATOM     32  C   UNL     1      -7.974 -14.038 -14.445  0.00  0.00    +0.024 A 
ATOM     33  C   UNL     1      -6.941 -13.084 -14.762  0.00  0.00    +0.007 A 
ATOM     34  C   UNL     1      -5.619 -13.524 -15.104  0.00  0.00    -0.029 A 
ATOM     35  C   UNL     1      -4.548 -12.456 -15.429  0.00  0.00    +0.045 C 
ENDROOT
BRANCH  10   9
ATOM      4  C   UNL     1      -2.311 -17.182 -18.105  0.00  0.00    +0.077 A 
ATOM      5  C   UNL     1      -3.338 -17.406 -19.081  0.00  0.00    +0.048 A 
ATOM      6  C   UNL     1      -4.637 -16.942 -18.774  0.00  0.00    +0.116 A 
ATOM      7  N   UNL     1      -4.879 -16.303 -17.578  0.00  0.00    -0.223 NA
ATOM      8  C   UNL     1      -3.866 -16.104 -16.658  0.00  0.00    +0.220 A 
ATOM      9  N   UNL     1      -4.085 -15.457 -15.451  0.00  0.00    -0.283 N 
ATOM     36  H   UNL     1      -3.313 -15.337 -14.796  0.00  0.00    +0.155 HD
ATOM     37  N   UNL     1      -2.618 -16.539 -16.926  0.00  0.00    -0.214 NA
BRANCH   4   3
ATOM      1  C   UNL     1       1.585 -17.139 -18.450  0.00  0.00    +0.020 A 
ATOM      2  C   UNL     1       0.229 -16.674 -18.272  0.00  0.00    +0.013 A 
ATOM      3  C   UNL     1      -0.888 -17.610 -18.285  0.00  0.00    +0.019 A 
ATOM     38  C   UNL     1      -0.596 -19.022 -18.481  0.00  0.00    +0.120 A 
ATOM     39  N   UNL     1       0.720 -19.441 -18.652  0.00  0.00    -0.263 NA
ATOM     40  C   UNL     1       1.802 -18.549 -18.643  0.00  0.00    +0.111 A 
ENDBRANCH   4   3
ENDBRANCH  10   9
BRANCH  12  13
ATOM     13  N   UNL     1      -8.799 -16.331 -14.122  0.00  0.00    -0.281 N 
ATOM     14  C   UNL     1      -9.432 -17.251 -14.942  0.00  0.00    +0.248 C 
ATOM     30  O   UNL     1      -9.306 -17.296 -16.157  0.00  0.00    -0.270 OA
ATOM     31  H   UNL     1      -9.140 -16.278 -13.162  0.00  0.00    +0.155 HD
BRANCH  14  15
ATOM     15  C   UNL     1     -10.350 -18.257 -14.326  0.00  0.00    +0.037 A 
ATOM     16  C   UNL     1     -10.994 -18.007 -13.034  0.00  0.00    +0.013 A 
ATOM     17  C   UNL     1     -11.861 -19.002 -12.453  0.00  0.00    +0.005 A 
ATOM     18  C   UNL     1     -12.090 -20.256 -13.166  0.00  0.00    -0.033 A 
ATOM     28  C   UNL     1     -11.442 -20.476 -14.449  0.00  0.00    +0.005 A 
ATOM     29  C   UNL     1     -10.591 -19.504 -15.020  0.00  0.00    +0.013 A 
BRANCH  18  19
ATOM     19  C   UNL     1     -12.983 -21.382 -12.612  0.00  0.00    +0.119 C 
BRANCH  19  20
ATOM     20  N   UNL     1     -13.397 -22.457 -13.562  0.00  0.00    -0.302 NA
ATOM     21  C   UNL     1     -14.857 -22.307 -13.999  0.00  0.00    +0.066 C 
ATOM     22  C   UNL     1     -15.266 -23.427 -15.011  0.00  0.00    -0.064 C 
ATOM     23  N   UNL     1     -15.029 -24.797 -14.374  0.00  0.00    +0.379 N 
ATOM     24  C   UNL     1     -15.467 -25.851 -15.300  0.00  0.00    -0.096 C 
ATOM     25  H   UNL     1     -15.668 -24.861 -13.462  0.00  0.00    -0.082 HD
ATOM     26  C   UNL     1     -13.580 -24.953 -13.934  0.00  0.00    -0.064 C 
ATOM     27  C   UNL     1     -13.175 -23.819 -12.952  0.00  0.00    +0.066 C 
ENDBRANCH  19  20
ENDBRANCH  18  19
ENDBRANCH  14  15
ENDBRANCH  12  13
TORSDOF 6
ENDMDL
