MODEL 1
REMARK VINA RESULT:     -11.0      0.000      0.000
REMARK  Name = C:\Users\Docking\Desktop\test protocol\1iep_ligandH.pdb
REMARK  8 active torsions:
REMARK  status: ('A' for Active; 'I' for Inactive)
REMARK    1  A    between atoms: _5  and  _11
REMARK    2  A    between atoms: _19  and  _21
REMARK    3  A    between atoms: _22  and  _66
REMARK    4  A    between atoms: _27  and  _30
REMARK    5  A    between atoms: _32  and  _33
REMARK    6  A    between atoms: _38  and  _43
REMARK    7  A    between atoms: _43  and  _46
REMARK    8  A    between atoms: _53  and  _55
REMARK                            x       y       z     vdW  Elec       q    Type
REMARK                         _______ _______ _______ _____ _____    ______ ____
ROOT
ATOM     10  C   UNL     1      68.200  81.199  56.677  0.00  0.00    +0.038 A 
ATOM     11  C   UNL     1      68.661  80.138  57.497  0.00  0.00    +0.047 A 
ATOM     12  C   UNL     1      70.065  80.023  57.862  0.00  0.00    +0.035 A 
ATOM     32  C   UNL     1      70.971  81.010  57.377  0.00  0.00    +0.024 A 
ATOM     33  C   UNL     1      70.520  82.096  56.542  0.00  0.00    +0.007 A 
ATOM     34  C   UNL     1      69.137  82.212  56.176  0.00  0.00    -0.029 A 
ATOM     35  C   UNL     1      68.711  83.393  55.273  0.00  0.00    +0.045 C 
ENDROOT
BRANCH  10   9
ATOM      4  C   UNL     1      63.812  83.076  57.187  0.00  0.00    +0.077 A 
ATOM      5  C   UNL     1      64.258  83.995  58.194  0.00  0.00    +0.048 A 
ATOM      6  C   UNL     1      65.623  83.948  58.558  0.00  0.00    +0.116 A 
ATOM      7  N   UNL     1      66.469  83.045  57.952  0.00  0.00    -0.223 NA
ATOM      8  C   UNL     1      66.007  82.171  56.985  0.00  0.00    +0.220 A 
ATOM      9  N   UNL     1      66.842  81.260  56.358  0.00  0.00    -0.283 N 
ATOM     36  H   UNL     1      66.461  80.628  55.655  0.00  0.00    +0.155 HD
ATOM     37  N   UNL     1      64.708  82.196  56.621  0.00  0.00    -0.214 NA
BRANCH   4   3
ATOM      1  C   UNL     1      60.031  82.151  56.810  0.00  0.00    +0.020 A 
ATOM      2  C   UNL     1      61.380  82.182  57.326  0.00  0.00    +0.013 A 
ATOM      3  C   UNL     1      62.401  83.007  56.693  0.00  0.00    +0.019 A 
ATOM     38  C   UNL     1      62.021  83.796  55.531  0.00  0.00    +0.120 A 
ATOM     39  N   UNL     1      60.714  83.745  55.055  0.00  0.00    -0.263 NA
ATOM     40  C   UNL     1      59.724  82.953  55.655  0.00  0.00    +0.111 A 
ENDBRANCH   4   3
ENDBRANCH  10   9
BRANCH  12  13
ATOM     13  N   UNL     1      70.592  78.963  58.685  0.00  0.00    -0.281 N 
ATOM     14  C   UNL     1      70.955  77.684  58.296  0.00  0.00    +0.248 C 
ATOM     30  O   UNL     1      70.679  77.186  57.214  0.00  0.00    -0.270 OA
ATOM     31  H   UNL     1      70.712  79.182  59.674  0.00  0.00    +0.155 HD
BRANCH  14  15
ATOM     15  C   UNL     1      71.723  76.829  59.252  0.00  0.00    +0.037 A 
ATOM     16  C   UNL     1      71.121  75.639  59.859  0.00  0.00    +0.013 A 
ATOM     17  C   UNL     1      71.878  74.842  60.791  0.00  0.00    +0.005 A 
ATOM     18  C   UNL     1      73.247  75.232  61.120  0.00  0.00    -0.033 A 
ATOM     28  C   UNL     1      73.821  76.414  60.500  0.00  0.00    +0.005 A 
ATOM     29  C   UNL     1      73.082  77.199  59.586  0.00  0.00    +0.013 A 
BRANCH  18  19
ATOM     19  C   UNL     1      74.121  74.452  62.121  0.00  0.00    +0.119 C 
BRANCH  19  20
ATOM     20  N   UNL     1      73.585  73.155  62.631  0.00  0.00    -0.302 NA
ATOM     21  C   UNL     1      73.673  73.058  64.157  0.00  0.00    +0.066 C 
ATOM     22  C   UNL     1      73.088  71.704  64.675  0.00  0.00    -0.064 C 
ATOM     23  N   UNL     1      73.832  70.543  64.014  0.00  0.00    +0.379 N 
ATOM     24  C   UNL     1      73.323  69.269  64.543  0.00  0.00    -0.096 C 
ATOM     25  H   UNL     1      74.906  70.623  64.301  0.00  0.00    -0.082 HD
ATOM     26  C   UNL     1      73.752  70.633  62.497  0.00  0.00    -0.064 C 
ATOM     27  C   UNL     1      74.309  71.994  61.994  0.00  0.00    +0.066 C 
ENDBRANCH  19  20
ENDBRANCH  18  19
ENDBRANCH  14  15
ENDBRANCH  12  13
TORSDOF 6
ENDMDL
MODEL 2
REMARK VINA RESULT:     -10.3      1.906     13.220
REMARK  Name = C:\Users\Docking\Desktop\test protocol\1iep_ligandH.pdb
REMARK  8 active torsions:
REMARK  status: ('A' for Active; 'I' for Inactive)
REMARK    1  A    between atoms: _5  and  _11
REMARK    2  A    between atoms: _19  and  _21
REMARK    3  A    between atoms: _22  and  _66
REMARK    4  A    between atoms: _27  and  _30
REMARK    5  A    between atoms: _32  and  _33
REMARK    6  A    between atoms: _38  and  _43
REMARK    7  A    between atoms: _43  and  _46
REMARK    8  A    between atoms: _53  and  _55
REMARK                            x       y       z     vdW  Elec       q    Type
REMARK                         _______ _______ _______ _____ _____    ______ ____
ROOT
ATOM     10  C   UNL     1      72.328  76.620  59.219  0.00  0.00    +0.038 A 
ATOM     11  C   UNL     1      71.023  77.073  58.900  0.00  0.00    +0.047 A 
ATOM     12  C   UNL     1      70.804  78.390  58.321  0.00  0.00    +0.035 A 
ATOM     32  C   UNL     1      71.938  79.217  58.077  0.00  0.00    +0.024 A 
ATOM     33  C   UNL     1      73.272  78.773  58.396  0.00  0.00    +0.007 A 
ATOM     34  C   UNL     1      73.494  77.476  58.970  0.00  0.00    -0.029 A 
ATOM     35  C   UNL     1      74.945  77.054  59.297  0.00  0.00    +0.045 C 
ENDROOT
BRANCH  10   9
ATOM      4  C   UNL     1      73.336  73.694  62.887  0.00  0.00    +0.077 A 
ATOM      5  C   UNL     1      73.609  74.794  63.767  0.00  0.00    +0.048 A 
ATOM      6  C   UNL     1      73.485  76.097  63.234  0.00  0.00    +0.116 A 
ATOM      7  N   UNL     1      73.115  76.274  61.919  0.00  0.00    -0.223 NA
ATOM      8  C   UNL     1      72.861  75.192  61.097  0.00  0.00    +0.220 A 
ATOM      9  N   UNL     1      72.480  75.347  59.773  0.00  0.00    -0.283 N 
ATOM     36  H   UNL     1      72.309  74.523  59.198  0.00  0.00    +0.155 HD
ATOM     37  N   UNL     1      72.974  73.937  61.582  0.00  0.00    -0.214 NA
BRANCH   4   3
ATOM      1  C   UNL     1      73.545  69.789  62.803  0.00  0.00    +0.020 A 
ATOM      2  C   UNL     1      73.463  71.158  62.349  0.00  0.00    +0.013 A 
ATOM      3  C   UNL     1      73.421  72.258  63.304  0.00  0.00    +0.019 A 
ATOM     38  C   UNL     1      73.465  71.937  64.722  0.00  0.00    +0.120 A 
ATOM     39  N   UNL     1      73.542  70.609  65.130  0.00  0.00    -0.263 NA
ATOM     40  C   UNL     1      73.581  69.542  64.221  0.00  0.00    +0.111 A 
ENDBRANCH   4   3
ENDBRANCH  10   9
BRANCH  12  13
ATOM     13  N   UNL     1      69.501  78.907  57.984  0.00  0.00    -0.281 N 
ATOM     14  C   UNL     1      69.147  79.675  56.886  0.00  0.00    +0.248 C 
ATOM     30  O   UNL     1      69.945  80.215  56.135  0.00  0.00    -0.270 OA
ATOM     31  H   UNL     1      68.748  78.680  58.634  0.00  0.00    +0.155 HD
BRANCH  14  15
ATOM     15  C   UNL     1      67.697  79.884  56.589  0.00  0.00    +0.037 A 
ATOM     16  C   UNL     1      66.837  78.771  56.181  0.00  0.00    +0.013 A 
ATOM     17  C   UNL     1      65.446  79.004  55.883  0.00  0.00    +0.005 A 
ATOM     18  C   UNL     1      64.906  80.357  55.994  0.00  0.00    -0.033 A 
ATOM     28  C   UNL     1      65.781  81.442  56.406  0.00  0.00    +0.005 A 
ATOM     29  C   UNL     1      67.145  81.218  56.698  0.00  0.00    +0.013 A 
BRANCH  18  19
ATOM     19  C   UNL     1      63.439  80.701  55.676  0.00  0.00    +0.119 C 
BRANCH  19  20
ATOM     20  N   UNL     1      62.941  82.040  56.110  0.00  0.00    -0.302 NA
ATOM     21  C   UNL     1      62.290  81.990  57.495  0.00  0.00    +0.066 C 
ATOM     22  C   UNL     1      61.795  83.403  57.944  0.00  0.00    -0.064 C 
ATOM     23  N   UNL     1      60.815  83.951  56.904  0.00  0.00    +0.379 N 
ATOM     24  C   UNL     1      60.304  85.255  57.352  0.00  0.00    -0.096 C 
ATOM     25  H   UNL     1      59.951  83.248  56.851  0.00  0.00    -0.082 HD
ATOM     26  C   UNL     1      61.454  84.002  55.524  0.00  0.00    -0.064 C 
ATOM     27  C   UNL     1      61.969  82.598  55.100  0.00  0.00    +0.066 C 
ENDBRANCH  19  20
ENDBRANCH  18  19
ENDBRANCH  14  15
ENDBRANCH  12  13
TORSDOF 6
ENDMDL
MODEL 3
REMARK VINA RESULT:     -10.3      3.773     14.301
REMARK  Name = C:\Users\Docking\Desktop\test protocol\1iep_ligandH.pdb
REMARK  8 active torsions:
REMARK  status: ('A' for Active; 'I' for Inactive)
REMARK    1  A    between atoms: _5  and  _11
REMARK    2  A    between atoms: _19  and  _21
REMARK    3  A    between atoms: _22  and  _66
REMARK    4  A    between atoms: _27  and  _30
REMARK    5  A    between atoms: _32  and  _33
REMARK    6  A    between atoms: _38  and  _43
REMARK    7  A    between atoms: _43  and  _46
REMARK    8  A    between atoms: _53  and  _55
REMARK                            x       y       z     vdW  Elec       q    Type
REMARK                         _______ _______ _______ _____ _____    ______ ____
ROOT
ATOM     10  C   UNL     1      73.902  72.103  62.782  0.00  0.00    +0.038 A 
ATOM     11  C   UNL     1      73.406  73.100  61.903  0.00  0.00    +0.047 A 
ATOM     12  C   UNL     1      73.201  74.467  62.355  0.00  0.00    +0.035 A 
ATOM     32  C   UNL     1      73.514  74.786  63.708  0.00  0.00    +0.024 A 
ATOM     33  C   UNL     1      74.019  73.785  64.616  0.00  0.00    +0.007 A 
ATOM     34  C   UNL     1      74.221  72.434  64.176  0.00  0.00    -0.029 A 
ATOM     35  C   UNL     1      74.758  71.402  65.194  0.00  0.00    +0.045 C 
ENDROOT
BRANCH  10   9
ATOM      4  C   UNL     1      72.659  67.475  62.516  0.00  0.00    +0.077 A 
ATOM      5  C   UNL     1      71.581  67.650  63.446  0.00  0.00    +0.048 A 
ATOM      6  C   UNL     1      71.384  68.945  63.975  0.00  0.00    +0.116 A 
ATOM      7  N   UNL     1      72.210  69.981  63.595  0.00  0.00    -0.223 NA
ATOM      8  C   UNL     1      73.242  69.778  62.697  0.00  0.00    +0.220 A 
ATOM      9  N   UNL     1      74.080  70.806  62.295  0.00  0.00    -0.283 N 
ATOM     36  H   UNL     1      74.835  70.614  61.637  0.00  0.00    +0.155 HD
ATOM     37  N   UNL     1      73.452  68.550  62.179  0.00  0.00    -0.214 NA
BRANCH   4   3
ATOM      1  C   UNL     1      74.564  64.262  61.355  0.00  0.00    +0.020 A 
ATOM      2  C   UNL     1      74.294  65.525  62.001  0.00  0.00    +0.013 A 
ATOM      3  C   UNL     1      72.992  66.167  61.868  0.00  0.00    +0.019 A 
ATOM     38  C   UNL     1      71.977  65.498  61.068  0.00  0.00    +0.120 A 
ATOM     39  N   UNL     1      72.266  64.283  60.456  0.00  0.00    -0.263 NA
ATOM     40  C   UNL     1      73.515  63.656  60.576  0.00  0.00    +0.111 A 
ENDBRANCH   4   3
ENDBRANCH  10   9
BRANCH  12  13
ATOM     13  N   UNL     1      72.692  75.519  61.510  0.00  0.00    -0.281 N 
ATOM     14  C   UNL     1      73.258  76.033  60.355  0.00  0.00    +0.248 C 
ATOM     30  O   UNL     1      74.402  75.810  59.988  0.00  0.00    -0.270 OA
ATOM     31  H   UNL     1      71.807  75.936  61.799  0.00  0.00    +0.155 HD
BRANCH  14  15
ATOM     15  C   UNL     1      72.440  76.937  59.490  0.00  0.00    +0.037 A 
ATOM     16  C   UNL     1      72.970  78.217  59.014  0.00  0.00    +0.013 A 
ATOM     17  C   UNL     1      72.153  79.077  58.194  0.00  0.00    +0.005 A 
ATOM     18  C   UNL     1      70.798  78.659  57.845  0.00  0.00    -0.033 A 
ATOM     28  C   UNL     1      70.299  77.381  58.327  0.00  0.00    +0.005 A 
ATOM     29  C   UNL     1      71.096  76.536  59.131  0.00  0.00    +0.013 A 
BRANCH  18  19
ATOM     19  C   UNL     1      69.849  79.523  56.994  0.00  0.00    +0.119 C 
BRANCH  19  20
ATOM     20  N   UNL     1      69.703  80.959  57.376  0.00  0.00    -0.302 NA
ATOM     21  C   UNL     1      68.497  81.615  56.699  0.00  0.00    +0.066 C 
ATOM     22  C   UNL     1      68.346  83.111  57.128  0.00  0.00    -0.064 C 
ATOM     23  N   UNL     1      69.633  83.866  56.791  0.00  0.00    +0.379 N 
ATOM     24  C   UNL     1      69.474  85.286  57.140  0.00  0.00    -0.096 C 
ATOM     25  H   UNL     1      69.783  83.804  55.688  0.00  0.00    -0.082 HD
ATOM     26  C   UNL     1      70.838  83.220  57.458  0.00  0.00    -0.064 C 
ATOM     27  C   UNL     1      70.961  81.725  57.049  0.00  0.00    +0.066 C 
ENDBRANCH  19  20
ENDBRANCH  18  19
ENDBRANCH  14  15
ENDBRANCH  12  13
TORSDOF 6
ENDMDL
MODEL 4
REMARK VINA RESULT:      -9.8      2.635     13.351
REMARK  Name = C:\Users\Docking\Desktop\test protocol\1iep_ligandH.pdb
REMARK  8 active torsions:
REMARK  status: ('A' for Active; 'I' for Inactive)
REMARK    1  A    between atoms: _5  and  _11
REMARK    2  A    between atoms: _19  and  _21
REMARK    3  A    between atoms: _22  and  _66
REMARK    4  A    between atoms: _27  and  _30
REMARK    5  A    between atoms: _32  and  _33
REMARK    6  A    between atoms: _38  and  _43
REMARK    7  A    between atoms: _43  and  _46
REMARK    8  A    between atoms: _53  and  _55
REMARK                            x       y       z     vdW  Elec       q    Type
REMARK                         _______ _______ _______ _____ _____    ______ ____
ROOT
ATOM     10  C   UNL     1      72.378  76.440  59.131  0.00  0.00    +0.038 A 
ATOM     11  C   UNL     1      71.050  76.829  58.817  0.00  0.00    +0.047 A 
ATOM     12  C   UNL     1      70.769  78.114  58.197  0.00  0.00    +0.035 A 
ATOM     32  C   UNL     1      71.864  78.979  57.909  0.00  0.00    +0.024 A 
ATOM     33  C   UNL     1      73.220  78.601  58.222  0.00  0.00    +0.007 A 
ATOM     34  C   UNL     1      73.503  77.335  58.836  0.00  0.00    -0.029 A 
ATOM     35  C   UNL     1      74.975  76.985  59.156  0.00  0.00    +0.045 C 
ENDROOT
BRANCH  10   9
ATOM      4  C   UNL     1      73.372  73.676  62.926  0.00  0.00    +0.077 A 
ATOM      5  C   UNL     1      73.506  74.811  63.793  0.00  0.00    +0.048 A 
ATOM      6  C   UNL     1      73.318  76.090  63.221  0.00  0.00    +0.116 A 
ATOM      7  N   UNL     1      73.019  76.211  61.881  0.00  0.00    -0.223 NA
ATOM      8  C   UNL     1      72.898  75.096  61.073  0.00  0.00    +0.220 A 
ATOM      9  N   UNL     1      72.590  75.195  59.725  0.00  0.00    -0.283 N 
ATOM     36  H   UNL     1      72.518  74.348  59.161  0.00  0.00    +0.155 HD
ATOM     37  N   UNL     1      73.075  73.864  61.595  0.00  0.00    -0.214 NA
BRANCH   4   3
ATOM      1  C   UNL     1      73.663  69.775  62.963  0.00  0.00    +0.020 A 
ATOM      2  C   UNL     1      73.497  71.123  62.471  0.00  0.00    +0.013 A 
ATOM      3  C   UNL     1      73.538  72.260  63.383  0.00  0.00    +0.019 A 
ATOM     38  C   UNL     1      73.753  71.996  64.798  0.00  0.00    +0.120 A 
ATOM     39  N   UNL     1      73.908  70.687  65.243  0.00  0.00    -0.263 NA
ATOM     40  C   UNL     1      73.868  69.585  64.375  0.00  0.00    +0.111 A 
ENDBRANCH   4   3
ENDBRANCH  10   9
BRANCH  12  13
ATOM     13  N   UNL     1      69.441  78.566  57.862  0.00  0.00    -0.281 N 
ATOM     14  C   UNL     1      69.068  79.780  57.310  0.00  0.00    +0.248 C 
ATOM     30  O   UNL     1      69.804  80.752  57.217  0.00  0.00    -0.270 OA
ATOM     31  H   UNL     1      68.684  77.910  58.056  0.00  0.00    +0.155 HD
BRANCH  14  15
ATOM     15  C   UNL     1      67.673  79.944  56.801  0.00  0.00    +0.037 A 
ATOM     16  C   UNL     1      67.001  81.246  56.831  0.00  0.00    +0.013 A 
ATOM     17  C   UNL     1      65.648  81.373  56.349  0.00  0.00    +0.005 A 
ATOM     18  C   UNL     1      64.959  80.193  55.831  0.00  0.00    -0.033 A 
ATOM     28  C   UNL     1      65.651  78.916  55.807  0.00  0.00    +0.005 A 
ATOM     29  C   UNL     1      66.977  78.787  56.280  0.00  0.00    +0.013 A 
BRANCH  18  19
ATOM     19  C   UNL     1      63.508  80.232  55.315  0.00  0.00    +0.119 C 
BRANCH  19  20
ATOM     20  N   UNL     1      63.280  80.809  53.957  0.00  0.00    -0.302 NA
ATOM     21  C   UNL     1      61.859  81.358  53.797  0.00  0.00    +0.066 C 
ATOM     22  C   UNL     1      61.645  81.978  52.378  0.00  0.00    -0.064 C 
ATOM     23  N   UNL     1      61.940  80.921  51.313  0.00  0.00    +0.379 N 
ATOM     24  C   UNL     1      61.684  81.483  49.979  0.00  0.00    -0.096 C 
ATOM     25  H   UNL     1      61.228  80.077  51.467  0.00  0.00    -0.082 HD
ATOM     26  C   UNL     1      63.350  80.367  51.466  0.00  0.00    -0.064 C 
ATOM     27  C   UNL     1      63.562  79.780  52.889  0.00  0.00    +0.066 C 
ENDBRANCH  19  20
ENDBRANCH  18  19
ENDBRANCH  14  15
ENDBRANCH  12  13
TORSDOF 6
ENDMDL
MODEL 5
REMARK VINA RESULT:      -9.7      4.726     14.100
REMARK  Name = C:\Users\Docking\Desktop\test protocol\1iep_ligandH.pdb
REMARK  8 active torsions:
REMARK  status: ('A' for Active; 'I' for Inactive)
REMARK    1  A    between atoms: _5  and  _11
REMARK    2  A    between atoms: _19  and  _21
REMARK    3  A    between atoms: _22  and  _66
REMARK    4  A    between atoms: _27  and  _30
REMARK    5  A    between atoms: _32  and  _33
REMARK    6  A    between atoms: _38  and  _43
REMARK    7  A    between atoms: _43  and  _46
REMARK    8  A    between atoms: _53  and  _55
REMARK                            x       y       z     vdW  Elec       q    Type
REMARK                         _______ _______ _______ _____ _____    ______ ____
ROOT
ATOM     10  C   UNL     1      72.841  70.588  66.557  0.00  0.00    +0.038 A 
ATOM     11  C   UNL     1      72.559  71.554  65.558  0.00  0.00    +0.047 A 
ATOM     12  C   UNL     1      73.383  71.665  64.364  0.00  0.00    +0.035 A 
ATOM     32  C   UNL     1      74.485  70.773  64.219  0.00  0.00    +0.024 A 
ATOM     33  C   UNL     1      74.787  69.786  65.226  0.00  0.00    +0.007 A 
ATOM     34  C   UNL     1      73.980  69.674  66.407  0.00  0.00    -0.029 A 
ATOM     35  C   UNL     1      74.354  68.602  67.456  0.00  0.00    +0.045 C 
ENDROOT
BRANCH  10   9
ATOM      4  C   UNL     1      68.656  69.604  68.690  0.00  0.00    +0.077 A 
ATOM      5  C   UNL     1      68.051  69.204  67.452  0.00  0.00    +0.048 A 
ATOM      6  C   UNL     1      68.849  69.274  66.288  0.00  0.00    +0.116 A 
ATOM      7  N   UNL     1      70.154  69.711  66.368  0.00  0.00    -0.223 NA
ATOM      8  C   UNL     1      70.705  70.091  67.578  0.00  0.00    +0.220 A 
ATOM      9  N   UNL     1      72.017  70.526  67.683  0.00  0.00    -0.283 N 
ATOM     36  H   UNL     1      72.385  70.805  68.593  0.00  0.00    +0.155 HD
ATOM     37  N   UNL     1      69.963  70.035  68.704  0.00  0.00    -0.214 NA
BRANCH   4   3
ATOM      1  C   UNL     1      66.096  68.801  71.537  0.00  0.00    +0.020 A 
ATOM      2  C   UNL     1      66.746  68.786  70.247  0.00  0.00    +0.013 A 
ATOM      3  C   UNL     1      67.942  69.583  70.006  0.00  0.00    +0.019 A 
ATOM     38  C   UNL     1      68.459  70.391  71.101  0.00  0.00    +0.120 A 
ATOM     39  N   UNL     1      67.810  70.387  72.332  0.00  0.00    -0.263 NA
ATOM     40  C   UNL     1      66.658  69.625  72.574  0.00  0.00    +0.111 A 
ENDBRANCH   4   3
ENDBRANCH  10   9
BRANCH  12  13
ATOM     13  N   UNL     1      73.150  72.631  63.319  0.00  0.00    -0.281 N 
ATOM     14  C   UNL     1      73.607  73.937  63.250  0.00  0.00    +0.248 C 
ATOM     30  O   UNL     1      74.112  74.543  64.183  0.00  0.00    -0.270 OA
ATOM     31  H   UNL     1      72.578  72.314  62.536  0.00  0.00    +0.155 HD
BRANCH  14  15
ATOM     15  C   UNL     1      73.470  74.682  61.961  0.00  0.00    +0.037 A 
ATOM     16  C   UNL     1      73.130  73.989  60.715  0.00  0.00    +0.013 A 
ATOM     17  C   UNL     1      73.022  74.729  59.483  0.00  0.00    +0.005 A 
ATOM     18  C   UNL     1      73.252  76.172  59.491  0.00  0.00    -0.033 A 
ATOM     28  C   UNL     1      73.583  76.834  60.742  0.00  0.00    +0.005 A 
ATOM     29  C   UNL     1      73.692  76.112  61.952  0.00  0.00    +0.013 A 
BRANCH  18  19
ATOM     19  C   UNL     1      73.179  77.038  58.220  0.00  0.00    +0.119 C 
BRANCH  19  20
ATOM     20  N   UNL     1      72.050  78.011  58.120  0.00  0.00    -0.302 NA
ATOM     21  C   UNL     1      70.709  77.377  58.501  0.00  0.00    +0.066 C 
ATOM     22  C   UNL     1      69.543  78.415  58.412  0.00  0.00    -0.064 C 
ATOM     23  N   UNL     1      69.486  78.994  56.997  0.00  0.00    +0.379 N 
ATOM     24  C   UNL     1      68.355  79.927  56.895  0.00  0.00    -0.096 C 
ATOM     25  H   UNL     1      69.294  78.150  56.294  0.00  0.00    -0.082 HD
ATOM     26  C   UNL     1      70.816  79.624  56.610  0.00  0.00    -0.064 C 
ATOM     27  C   UNL     1      71.973  78.592  56.729  0.00  0.00    +0.066 C 
ENDBRANCH  19  20
ENDBRANCH  18  19
ENDBRANCH  14  15
ENDBRANCH  12  13
TORSDOF 6
ENDMDL
