MODEL 1
REMARK VINA RESULT:      -8.3      0.000      0.000
REMARK  Name = C:\Users\Docking\Desktop\test protocol\1iep_ligandH.pdb
REMARK  8 active torsions:
REMARK  status: ('A' for Active; 'I' for Inactive)
REMARK    1  A    between atoms: _5  and  _11
REMARK    2  A    between atoms: _19  and  _21
REMARK    3  A    between atoms: _22  and  _66
REMARK    4  A    between atoms: _27  and  _30
REMARK    5  A    between atoms: _32  and  _33
REMARK    6  A    between atoms: _38  and  _43
REMARK    7  A    between atoms: _43  and  _46
REMARK    8  A    between atoms: _53  and  _55
REMARK                            x       y       z     vdW  Elec       q    Type
REMARK                         _______ _______ _______ _____ _____    ______ ____
ROOT
ATOM     10  C   UNL     1      20.109 -13.388 -12.237  0.00  0.00    +0.038 A 
ATOM     11  C   UNL     1      19.255 -13.233 -11.115  0.00  0.00    +0.047 A 
ATOM     12  C   UNL     1      18.784 -14.385 -10.363  0.00  0.00    +0.035 A 
ATOM     32  C   UNL     1      19.204 -15.682 -10.779  0.00  0.00    +0.024 A 
ATOM     33  C   UNL     1      20.071 -15.858 -11.918  0.00  0.00    +0.007 A 
ATOM     34  C   UNL     1      20.537 -14.725 -12.665  0.00  0.00    -0.029 A 
ATOM     35  C   UNL     1      21.459 -14.974 -13.881  0.00  0.00    +0.045 C 
ENDROOT
BRANCH  10   9
ATOM      4  C   UNL     1      22.485  -9.224 -12.466  0.00  0.00    +0.077 A 
ATOM      5  C   UNL     1      22.898  -9.316 -11.095  0.00  0.00    +0.048 A 
ATOM      6  C   UNL     1      22.471 -10.448 -10.363  0.00  0.00    +0.116 A 
ATOM      7  N   UNL     1      21.691 -11.409 -10.968  0.00  0.00    -0.223 NA
ATOM      8  C   UNL     1      21.309 -11.289 -12.292  0.00  0.00    +0.220 A 
ATOM      9  N   UNL     1      20.531 -12.247 -12.923  0.00  0.00    -0.283 N 
ATOM     36  H   UNL     1      20.265 -12.118 -13.898  0.00  0.00    +0.155 HD
ATOM     37  N   UNL     1      21.702 -10.217 -13.011  0.00  0.00    -0.214 NA
BRANCH   4   3
ATOM      1  C   UNL     1      23.394  -5.665 -13.810  0.00  0.00    +0.020 A 
ATOM      2  C   UNL     1      23.033  -6.724 -12.895  0.00  0.00    +0.013 A 
ATOM      3  C   UNL     1      22.858  -8.091 -13.370  0.00  0.00    +0.019 A 
ATOM     38  C   UNL     1      23.057  -8.355 -14.787  0.00  0.00    +0.120 A 
ATOM     39  N   UNL     1      23.403  -7.316 -15.644  0.00  0.00    -0.263 NA
ATOM     40  C   UNL     1      23.573  -5.996 -15.200  0.00  0.00    +0.111 A 
ENDBRANCH   4   3
ENDBRANCH  10   9
BRANCH  12  13
ATOM     13  N   UNL     1      17.909 -14.289  -9.220  0.00  0.00    -0.281 N 
ATOM     14  C   UNL     1      18.175 -13.711  -7.990  0.00  0.00    +0.248 C 
ATOM     30  O   UNL     1      19.287 -13.374  -7.611  0.00  0.00    -0.270 OA
ATOM     31  H   UNL     1      16.981 -14.698  -9.332  0.00  0.00    +0.155 HD
BRANCH  14  15
ATOM     15  C   UNL     1      17.045 -13.487  -7.038  0.00  0.00    +0.037 A 
ATOM     16  C   UNL     1      15.654 -13.698  -7.446  0.00  0.00    +0.013 A 
ATOM     17  C   UNL     1      14.582 -13.458  -6.513  0.00  0.00    +0.005 A 
ATOM     18  C   UNL     1      14.898 -13.006  -5.160  0.00  0.00    -0.033 A 
ATOM     28  C   UNL     1      16.287 -12.810  -4.780  0.00  0.00    +0.005 A 
ATOM     29  C   UNL     1      17.340 -13.043  -5.692  0.00  0.00    +0.013 A 
BRANCH  18  19
ATOM     19  C   UNL     1      13.817 -12.705  -4.105  0.00  0.00    +0.119 C 
BRANCH  19  20
ATOM     20  N   UNL     1      12.468 -12.303  -4.604  0.00  0.00    -0.302 NA
ATOM     21  C   UNL     1      12.091 -10.886  -4.162  0.00  0.00    +0.066 C 
ATOM     22  C   UNL     1      10.687 -10.473  -4.711  0.00  0.00    -0.064 C 
ATOM     23  N   UNL     1       9.640 -11.484  -4.240  0.00  0.00    +0.379 N 
ATOM     24  C   UNL     1       8.310 -11.067  -4.706  0.00  0.00    -0.096 C 
ATOM     25  H   UNL     1       9.630 -11.464  -3.125  0.00  0.00    -0.082 HD
ATOM     26  C   UNL     1      10.009 -12.896  -4.672  0.00  0.00    -0.064 C 
ATOM     27  C   UNL     1      11.418 -13.285  -4.146  0.00  0.00    +0.066 C 
ENDBRANCH  19  20
ENDBRANCH  18  19
ENDBRANCH  14  15
ENDBRANCH  12  13
TORSDOF 6
ENDMDL
MODEL 2
REMARK VINA RESULT:      -8.1      4.472      6.407
REMARK  Name = C:\Users\Docking\Desktop\test protocol\1iep_ligandH.pdb
REMARK  8 active torsions:
REMARK  status: ('A' for Active; 'I' for Inactive)
REMARK    1  A    between atoms: _5  and  _11
REMARK    2  A    between atoms: _19  and  _21
REMARK    3  A    between atoms: _22  and  _66
REMARK    4  A    between atoms: _27  and  _30
REMARK    5  A    between atoms: _32  and  _33
REMARK    6  A    between atoms: _38  and  _43
REMARK    7  A    between atoms: _43  and  _46
REMARK    8  A    between atoms: _53  and  _55
REMARK                            x       y       z     vdW  Elec       q    Type
REMARK                         _______ _______ _______ _____ _____    ______ ____
ROOT
ATOM     10  C   UNL     1      23.641 -11.380 -14.131  0.00  0.00    +0.038 A 
ATOM     11  C   UNL     1      22.460 -11.919 -13.561  0.00  0.00    +0.047 A 
ATOM     12  C   UNL     1      21.586 -11.106 -12.729  0.00  0.00    +0.035 A 
ATOM     32  C   UNL     1      21.945  -9.745 -12.502  0.00  0.00    +0.024 A 
ATOM     33  C   UNL     1      23.142  -9.181 -13.074  0.00  0.00    +0.007 A 
ATOM     34  C   UNL     1      24.009  -9.979 -13.893  0.00  0.00    -0.029 A 
ATOM     35  C   UNL     1      25.283  -9.323 -14.474  0.00  0.00    +0.045 C 
ENDROOT
BRANCH  10   9
ATOM      4  C   UNL     1      27.212 -14.539 -14.683  0.00  0.00    +0.077 A 
ATOM      5  C   UNL     1      27.523 -14.521 -13.283  0.00  0.00    +0.048 A 
ATOM      6  C   UNL     1      26.745 -13.680 -12.456  0.00  0.00    +0.116 A 
ATOM      7  N   UNL     1      25.734 -12.919 -13.000  0.00  0.00    -0.223 NA
ATOM      8  C   UNL     1      25.461 -12.958 -14.355  0.00  0.00    +0.220 A 
ATOM      9  N   UNL     1      24.443 -12.206 -14.922  0.00  0.00    -0.283 N 
ATOM     36  H   UNL     1      24.278 -12.257 -15.927  0.00  0.00    +0.155 HD
ATOM     37  N   UNL     1      26.191 -13.751 -15.166  0.00  0.00    -0.214 NA
BRANCH   4   3
ATOM      1  C   UNL     1      29.043 -15.733 -17.927  0.00  0.00    +0.020 A 
ATOM      2  C   UNL     1      28.339 -14.881 -16.997  0.00  0.00    +0.013 A 
ATOM      3  C   UNL     1      27.942 -15.378 -15.685  0.00  0.00    +0.019 A 
ATOM     38  C   UNL     1      28.276 -16.753 -15.343  0.00  0.00    +0.120 A 
ATOM     39  N   UNL     1      28.954 -17.550 -16.260  0.00  0.00    -0.263 NA
ATOM     40  C   UNL     1      29.339 -17.084 -17.526  0.00  0.00    +0.111 A 
ENDBRANCH   4   3
ENDBRANCH  10   9
BRANCH  12  13
ATOM     13  N   UNL     1      20.379 -11.601 -12.117  0.00  0.00    -0.281 N 
ATOM     14  C   UNL     1      20.162 -11.900 -10.781  0.00  0.00    +0.248 C 
ATOM     30  O   UNL     1      21.045 -11.990  -9.941  0.00  0.00    -0.270 OA
ATOM     31  H   UNL     1      19.588 -11.749 -12.743  0.00  0.00    +0.155 HD
BRANCH  14  15
ATOM     15  C   UNL     1      18.764 -12.150 -10.315  0.00  0.00    +0.037 A 
ATOM     16  C   UNL     1      17.768 -11.076 -10.293  0.00  0.00    +0.013 A 
ATOM     17  C   UNL     1      16.431 -11.340  -9.822  0.00  0.00    +0.005 A 
ATOM     18  C   UNL     1      16.083 -12.685  -9.371  0.00  0.00    -0.033 A 
ATOM     28  C   UNL     1      17.090 -13.733  -9.408  0.00  0.00    +0.005 A 
ATOM     29  C   UNL     1      18.401 -13.478  -9.868  0.00  0.00    +0.013 A 
BRANCH  18  19
ATOM     19  C   UNL     1      14.687 -13.052  -8.833  0.00  0.00    +0.119 C 
BRANCH  19  20
ATOM     20  N   UNL     1      14.029 -12.073  -7.917  0.00  0.00    -0.302 NA
ATOM     21  C   UNL     1      13.360 -12.763  -6.724  0.00  0.00    +0.066 C 
ATOM     22  C   UNL     1      12.696 -11.723  -5.764  0.00  0.00    -0.064 C 
ATOM     23  N   UNL     1      11.680 -10.888  -6.546  0.00  0.00    +0.379 N 
ATOM     24  C   UNL     1      11.011  -9.949  -5.634  0.00  0.00    -0.096 C 
ATOM     25  H   UNL     1      10.905 -11.584  -6.943  0.00  0.00    -0.082 HD
ATOM     26  C   UNL     1      12.335 -10.201  -7.736  0.00  0.00    -0.064 C 
ATOM     27  C   UNL     1      13.018 -11.241  -8.668  0.00  0.00    +0.066 C 
ENDBRANCH  19  20
ENDBRANCH  18  19
ENDBRANCH  14  15
ENDBRANCH  12  13
TORSDOF 6
ENDMDL
MODEL 3
REMARK VINA RESULT:      -8.0     31.542     33.144
REMARK  Name = C:\Users\Docking\Desktop\test protocol\1iep_ligandH.pdb
REMARK  8 active torsions:
REMARK  status: ('A' for Active; 'I' for Inactive)
REMARK    1  A    between atoms: _5  and  _11
REMARK    2  A    between atoms: _19  and  _21
REMARK    3  A    between atoms: _22  and  _66
REMARK    4  A    between atoms: _27  and  _30
REMARK    5  A    between atoms: _32  and  _33
REMARK    6  A    between atoms: _38  and  _43
REMARK    7  A    between atoms: _43  and  _46
REMARK    8  A    between atoms: _53  and  _55
REMARK                            x       y       z     vdW  Elec       q    Type
REMARK                         _______ _______ _______ _____ _____    ______ ____
ROOT
ATOM     10  C   UNL     1      10.676   9.365 -34.660  0.00  0.00    +0.038 A 
ATOM     11  C   UNL     1      10.149   8.125 -35.103  0.00  0.00    +0.047 A 
ATOM     12  C   UNL     1       8.713   7.898 -35.167  0.00  0.00    +0.035 A 
ATOM     32  C   UNL     1       7.843   8.956 -34.774  0.00  0.00    +0.024 A 
ATOM     33  C   UNL     1       8.362  10.223 -34.320  0.00  0.00    +0.007 A 
ATOM     34  C   UNL     1       9.777  10.452 -34.252  0.00  0.00    -0.029 A 
ATOM     35  C   UNL     1      10.277  11.827 -33.751  0.00  0.00    +0.045 C 
ENDROOT
BRANCH  10   9
ATOM      4  C   UNL     1      15.140   7.616 -34.426  0.00  0.00    +0.077 A 
ATOM      5  C   UNL     1      14.669   6.263 -34.353  0.00  0.00    +0.048 A 
ATOM      6  C   UNL     1      13.271   6.060 -34.371  0.00  0.00    +0.116 A 
ATOM      7  N   UNL     1      12.416   7.138 -34.457  0.00  0.00    -0.223 NA
ATOM      8  C   UNL     1      12.903   8.431 -34.524  0.00  0.00    +0.220 A 
ATOM      9  N   UNL     1      12.062   9.529 -34.618  0.00  0.00    -0.283 N 
ATOM     36  H   UNL     1      12.460  10.467 -34.658  0.00  0.00    +0.155 HD
ATOM     37  N   UNL     1      14.234   8.651 -34.506  0.00  0.00    -0.214 NA
BRANCH   4   3
ATOM      1  C   UNL     1      19.011   7.552 -33.869  0.00  0.00    +0.020 A 
ATOM      2  C   UNL     1      17.625   7.142 -33.848  0.00  0.00    +0.013 A 
ATOM      3  C   UNL     1      16.589   7.992 -34.420  0.00  0.00    +0.019 A 
ATOM     38  C   UNL     1      16.991   9.260 -35.011  0.00  0.00    +0.120 A 
ATOM     39  N   UNL     1      18.332   9.629 -35.015  0.00  0.00    -0.263 NA
ATOM     40  C   UNL     1      19.338   8.820 -34.466  0.00  0.00    +0.111 A 
ENDBRANCH   4   3
ENDBRANCH  10   9
BRANCH  12  13
ATOM     13  N   UNL     1       8.120   6.658 -35.602  0.00  0.00    -0.281 N 
ATOM     14  C   UNL     1       7.455   5.717 -34.833  0.00  0.00    +0.248 C 
ATOM     30  O   UNL     1       7.455   5.697 -33.611  0.00  0.00    -0.270 OA
ATOM     31  H   UNL     1       8.200   6.448 -36.597  0.00  0.00    +0.155 HD
BRANCH  14  15
ATOM     15  C   UNL     1       6.690   4.632 -35.521  0.00  0.00    +0.037 A 
ATOM     16  C   UNL     1       7.244   3.283 -35.661  0.00  0.00    +0.013 A 
ATOM     17  C   UNL     1       6.493   2.260 -36.344  0.00  0.00    +0.005 A 
ATOM     18  C   UNL     1       5.177   2.583 -36.892  0.00  0.00    -0.033 A 
ATOM     28  C   UNL     1       4.650   3.928 -36.735  0.00  0.00    +0.005 A 
ATOM     29  C   UNL     1       5.384   4.934 -36.067  0.00  0.00    +0.013 A 
BRANCH  18  19
ATOM     19  C   UNL     1       4.315   1.560 -37.655  0.00  0.00    +0.119 C 
BRANCH  19  20
ATOM     20  N   UNL     1       4.654   0.116 -37.482  0.00  0.00    -0.302 NA
ATOM     21  C   UNL     1       5.397  -0.449 -38.697  0.00  0.00    +0.066 C 
ATOM     22  C   UNL     1       5.764  -1.955 -38.490  0.00  0.00    -0.064 C 
ATOM     23  N   UNL     1       4.490  -2.754 -38.214  0.00  0.00    +0.379 N 
ATOM     24  C   UNL     1       4.825  -4.179 -38.077  0.00  0.00    -0.096 C 
ATOM     25  H   UNL     1       3.825  -2.647 -39.103  0.00  0.00    -0.082 HD
ATOM     26  C   UNL     1       3.743  -2.198 -37.010  0.00  0.00    -0.064 C 
ATOM     27  C   UNL     1       3.409  -0.693 -37.214  0.00  0.00    +0.066 C 
ENDBRANCH  19  20
ENDBRANCH  18  19
ENDBRANCH  14  15
ENDBRANCH  12  13
TORSDOF 6
ENDMDL
MODEL 4
REMARK VINA RESULT:      -7.8      4.841      7.194
REMARK  Name = C:\Users\Docking\Desktop\test protocol\1iep_ligandH.pdb
REMARK  8 active torsions:
REMARK  status: ('A' for Active; 'I' for Inactive)
REMARK    1  A    between atoms: _5  and  _11
REMARK    2  A    between atoms: _19  and  _21
REMARK    3  A    between atoms: _22  and  _66
REMARK    4  A    between atoms: _27  and  _30
REMARK    5  A    between atoms: _32  and  _33
REMARK    6  A    between atoms: _38  and  _43
REMARK    7  A    between atoms: _43  and  _46
REMARK    8  A    between atoms: _53  and  _55
REMARK                            x       y       z     vdW  Elec       q    Type
REMARK                         _______ _______ _______ _____ _____    ______ ____
ROOT
ATOM     10  C   UNL     1      24.224 -11.170 -14.222  0.00  0.00    +0.038 A 
ATOM     11  C   UNL     1      23.225 -11.824 -13.456  0.00  0.00    +0.047 A 
ATOM     12  C   UNL     1      22.303 -11.070 -12.621  0.00  0.00    +0.035 A 
ATOM     32  C   UNL     1      22.425  -9.650 -12.593  0.00  0.00    +0.024 A 
ATOM     33  C   UNL     1      23.434  -8.969 -13.365  0.00  0.00    +0.007 A 
ATOM     34  C   UNL     1      24.349  -9.708 -14.188  0.00  0.00    -0.029 A 
ATOM     35  C   UNL     1      25.416  -8.926 -14.989  0.00  0.00    +0.045 C 
ENDROOT
BRANCH  10   9
ATOM      4  C   UNL     1      27.791 -14.343 -14.725  0.00  0.00    +0.077 A 
ATOM      5  C   UNL     1      27.977 -14.447 -13.306  0.00  0.00    +0.048 A 
ATOM      6  C   UNL     1      27.139 -13.663 -12.482  0.00  0.00    +0.116 A 
ATOM      7  N   UNL     1      26.189 -12.839 -13.046  0.00  0.00    -0.223 NA
ATOM      8  C   UNL     1      26.037 -12.760 -14.418  0.00  0.00    +0.220 A 
ATOM      9  N   UNL     1      25.083 -11.944 -15.006  0.00  0.00    -0.283 N 
ATOM     36  H   UNL     1      25.007 -11.908 -16.022  0.00  0.00    +0.155 HD
ATOM     37  N   UNL     1      26.826 -13.498 -15.226  0.00  0.00    -0.214 NA
BRANCH   4   3
ATOM      1  C   UNL     1      30.669 -16.355 -16.447  0.00  0.00    +0.020 A 
ATOM      2  C   UNL     1      29.933 -15.618 -15.445  0.00  0.00    +0.013 A 
ATOM      3  C   UNL     1      28.597 -15.110 -15.726  0.00  0.00    +0.019 A 
ATOM     38  C   UNL     1      28.028 -15.367 -17.041  0.00  0.00    +0.120 A 
ATOM     39  N   UNL     1      28.760 -16.078 -17.986  0.00  0.00    -0.263 NA
ATOM     40  C   UNL     1      30.048 -16.570 -17.728  0.00  0.00    +0.111 A 
ENDBRANCH   4   3
ENDBRANCH  10   9
BRANCH  12  13
ATOM     13  N   UNL     1      21.274 -11.679 -11.815  0.00  0.00    -0.281 N 
ATOM     14  C   UNL     1      21.399 -12.235 -10.553  0.00  0.00    +0.248 C 
ATOM     30  O   UNL     1      22.465 -12.485 -10.010  0.00  0.00    -0.270 OA
ATOM     31  H   UNL     1      20.341 -11.704 -12.226  0.00  0.00    +0.155 HD
BRANCH  14  15
ATOM     15  C   UNL     1      20.161 -12.576  -9.788  0.00  0.00    +0.037 A 
ATOM     16  C   UNL     1      20.155 -13.647  -8.789  0.00  0.00    +0.013 A 
ATOM     17  C   UNL     1      18.942 -13.967  -8.078  0.00  0.00    +0.005 A 
ATOM     18  C   UNL     1      17.725 -13.211  -8.363  0.00  0.00    -0.033 A 
ATOM     28  C   UNL     1      17.760 -12.150  -9.355  0.00  0.00    +0.005 A 
ATOM     29  C   UNL     1      18.946 -11.834 -10.055  0.00  0.00    +0.013 A 
BRANCH  18  19
ATOM     19  C   UNL     1      16.381 -13.498  -7.668  0.00  0.00    +0.119 C 
BRANCH  19  20
ATOM     20  N   UNL     1      15.346 -14.232  -8.455  0.00  0.00    -0.302 NA
ATOM     21  C   UNL     1      15.967 -15.079  -9.570  0.00  0.00    +0.066 C 
ATOM     22  C   UNL     1      14.872 -15.858 -10.369  0.00  0.00    -0.064 C 
ATOM     23  N   UNL     1      13.860 -14.865 -10.943  0.00  0.00    +0.379 N 
ATOM     24  C   UNL     1      12.862 -15.589 -11.744  0.00  0.00    -0.096 C 
ATOM     25  H   UNL     1      14.411 -14.180 -11.628  0.00  0.00    -0.082 HD
ATOM     26  C   UNL     1      13.240 -14.017  -9.842  0.00  0.00    -0.064 C 
ATOM     27  C   UNL     1      14.339 -13.270  -9.035  0.00  0.00    +0.066 C 
ENDBRANCH  19  20
ENDBRANCH  18  19
ENDBRANCH  14  15
ENDBRANCH  12  13
TORSDOF 6
ENDMDL
MODEL 5
REMARK VINA RESULT:      -7.5     23.110     25.807
REMARK  Name = C:\Users\Docking\Desktop\test protocol\1iep_ligandH.pdb
REMARK  8 active torsions:
REMARK  status: ('A' for Active; 'I' for Inactive)
REMARK    1  A    between atoms: _5  and  _11
REMARK    2  A    between atoms: _19  and  _21
REMARK    3  A    between atoms: _22  and  _66
REMARK    4  A    between atoms: _27  and  _30
REMARK    5  A    between atoms: _32  and  _33
REMARK    6  A    between atoms: _38  and  _43
REMARK    7  A    between atoms: _43  and  _46
REMARK    8  A    between atoms: _53  and  _55
REMARK                            x       y       z     vdW  Elec       q    Type
REMARK                         _______ _______ _______ _____ _____    ______ ____
ROOT
ATOM     10  C   UNL     1      29.390  10.136 -19.963  0.00  0.00    +0.038 A 
ATOM     11  C   UNL     1      28.229  10.761 -19.440  0.00  0.00    +0.047 A 
ATOM     12  C   UNL     1      27.826  10.563 -18.056  0.00  0.00    +0.035 A 
ATOM     32  C   UNL     1      28.630   9.722 -17.232  0.00  0.00    +0.024 A 
ATOM     33  C   UNL     1      29.812   9.078 -17.748  0.00  0.00    +0.007 A 
ATOM     34  C   UNL     1      30.214   9.268 -19.113  0.00  0.00    -0.029 A 
ATOM     35  C   UNL     1      31.487   8.547 -19.613  0.00  0.00    +0.045 C 
ENDROOT
BRANCH  10   9
ATOM      4  C   UNL     1      29.100   9.092 -24.639  0.00  0.00    +0.077 A 
ATOM      5  C   UNL     1      28.217   7.988 -24.398  0.00  0.00    +0.048 A 
ATOM      6  C   UNL     1      27.867   7.717 -23.056  0.00  0.00    +0.116 A 
ATOM      7  N   UNL     1      28.369   8.499 -22.039  0.00  0.00    -0.223 NA
ATOM      8  C   UNL     1      29.220   9.556 -22.306  0.00  0.00    +0.220 A 
ATOM      9  N   UNL     1      29.730  10.361 -21.299  0.00  0.00    -0.283 N 
ATOM     36  H   UNL     1      30.361  11.126 -21.536  0.00  0.00    +0.155 HD
ATOM     37  N   UNL     1      29.570   9.834 -23.579  0.00  0.00    -0.214 NA
BRANCH   4   3
ATOM      1  C   UNL     1      29.213   9.802 -28.484  0.00  0.00    +0.020 A 
ATOM      2  C   UNL     1      28.722   9.388 -27.190  0.00  0.00    +0.013 A 
ATOM      3  C   UNL     1      29.559   9.506 -26.003  0.00  0.00    +0.019 A 
ATOM     38  C   UNL     1      30.898  10.053 -26.160  0.00  0.00    +0.120 A 
ATOM     39  N   UNL     1      31.345  10.442 -27.419  0.00  0.00    -0.263 NA
ATOM     40  C   UNL     1      30.549  10.331 -28.569  0.00  0.00    +0.111 A 
ENDBRANCH   4   3
ENDBRANCH  10   9
BRANCH  12  13
ATOM     13  N   UNL     1      26.654  11.165 -17.472  0.00  0.00    -0.281 N 
ATOM     14  C   UNL     1      25.328  10.812 -17.666  0.00  0.00    +0.248 C 
ATOM     30  O   UNL     1      24.936  10.056 -18.542  0.00  0.00    -0.270 OA
ATOM     31  H   UNL     1      26.821  11.947 -16.839  0.00  0.00    +0.155 HD
BRANCH  14  15
ATOM     15  C   UNL     1      24.287  11.393 -16.765  0.00  0.00    +0.037 A 
ATOM     16  C   UNL     1      23.219  12.247 -17.290  0.00  0.00    +0.013 A 
ATOM     17  C   UNL     1      22.237  12.809 -16.396  0.00  0.00    +0.005 A 
ATOM     18  C   UNL     1      22.318  12.516 -14.967  0.00  0.00    -0.033 A 
ATOM     28  C   UNL     1      23.385  11.661 -14.474  0.00  0.00    +0.005 A 
ATOM     29  C   UNL     1      24.350  11.109 -15.347  0.00  0.00    +0.013 A 
BRANCH  18  19
ATOM     19  C   UNL     1      21.326  13.089 -13.938  0.00  0.00    +0.119 C 
BRANCH  19  20
ATOM     20  N   UNL     1      20.913  12.195 -12.815  0.00  0.00    -0.302 NA
ATOM     21  C   UNL     1      19.662  11.382 -13.159  0.00  0.00    +0.066 C 
ATOM     22  C   UNL     1      19.258  10.436 -11.982  0.00  0.00    -0.064 C 
ATOM     23  N   UNL     1      19.032  11.267 -10.718  0.00  0.00    +0.379 N 
ATOM     24  C   UNL     1      18.595  10.388  -9.623  0.00  0.00    -0.096 C 
ATOM     25  H   UNL     1      18.204  11.983 -10.927  0.00  0.00    -0.082 HD
ATOM     26  C   UNL     1      20.270  12.082 -10.370  0.00  0.00    -0.064 C 
ATOM     27  C   UNL     1      20.681  12.996 -11.558  0.00  0.00    +0.066 C 
ENDBRANCH  19  20
ENDBRANCH  18  19
ENDBRANCH  14  15
ENDBRANCH  12  13
TORSDOF 6
ENDMDL
