MODEL 1
REMARK VINA RESULT:      -8.5      0.000      0.000
REMARK  Name = C:\Users\Docking\Desktop\test protocol\1iep_ligandH.pdb
REMARK  8 active torsions:
REMARK  status: ('A' for Active; 'I' for Inactive)
REMARK    1  A    between atoms: _5  and  _11
REMARK    2  A    between atoms: _19  and  _21
REMARK    3  A    between atoms: _22  and  _66
REMARK    4  A    between atoms: _27  and  _30
REMARK    5  A    between atoms: _32  and  _33
REMARK    6  A    between atoms: _38  and  _43
REMARK    7  A    between atoms: _43  and  _46
REMARK    8  A    between atoms: _53  and  _55
REMARK                            x       y       z     vdW  Elec       q    Type
REMARK                         _______ _______ _______ _____ _____    ______ ____
ROOT
ATOM     10  C   UNL     1      15.621 -16.454 -17.237  0.00  0.00    +0.038 A 
ATOM     11  C   UNL     1      16.425 -15.682 -16.360  0.00  0.00    +0.047 A 
ATOM     12  C   UNL     1      17.756 -15.243 -16.749  0.00  0.00    +0.035 A 
ATOM     32  C   UNL     1      18.235 -15.606 -18.042  0.00  0.00    +0.024 A 
ATOM     33  C   UNL     1      17.432 -16.390 -18.946  0.00  0.00    +0.007 A 
ATOM     34  C   UNL     1      16.119 -16.829 -18.566  0.00  0.00    -0.029 A 
ATOM     35  C   UNL     1      15.304 -17.673 -19.573  0.00  0.00    +0.045 C 
ENDROOT
BRANCH  10   9
ATOM      4  C   UNL     1      12.695 -19.331 -14.747  0.00  0.00    +0.077 A 
ATOM      5  C   UNL     1      13.788 -20.132 -14.275  0.00  0.00    +0.048 A 
ATOM      6  C   UNL     1      15.087 -19.775 -14.703  0.00  0.00    +0.116 A 
ATOM      7  N   UNL     1      15.267 -18.694 -15.539  0.00  0.00    -0.223 NA
ATOM      8  C   UNL     1      14.191 -17.944 -15.976  0.00  0.00    +0.220 A 
ATOM      9  N   UNL     1      14.350 -16.849 -16.811  0.00  0.00    -0.283 N 
ATOM     36  H   UNL     1      13.531 -16.325 -17.118  0.00  0.00    +0.155 HD
ATOM     37  N   UNL     1      12.941 -18.266 -15.584  0.00  0.00    -0.214 NA
BRANCH   4   3
ATOM      1  C   UNL     1       9.238 -21.068 -14.168  0.00  0.00    +0.020 A 
ATOM      2  C   UNL     1      10.622 -20.880 -14.538  0.00  0.00    +0.013 A 
ATOM      3  C   UNL     1      11.265 -19.581 -14.381  0.00  0.00    +0.019 A 
ATOM     38  C   UNL     1      10.474 -18.485 -13.842  0.00  0.00    +0.120 A 
ATOM     39  N   UNL     1       9.143 -18.695 -13.497  0.00  0.00    -0.263 NA
ATOM     40  C   UNL     1       8.513 -19.940 -13.645  0.00  0.00    +0.111 A 
ENDBRANCH   4   3
ENDBRANCH  10   9
BRANCH  12  13
ATOM     13  N   UNL     1      18.621 -14.465 -15.898  0.00  0.00    -0.281 N 
ATOM     14  C   UNL     1      19.511 -14.923 -14.941  0.00  0.00    +0.248 C 
ATOM     30  O   UNL     1      19.543 -16.070 -14.520  0.00  0.00    -0.270 OA
ATOM     31  H   UNL     1      18.571 -13.452 -16.015  0.00  0.00    +0.155 HD
BRANCH  14  15
ATOM     15  C   UNL     1      20.499 -13.966 -14.356  0.00  0.00    +0.037 A 
ATOM     16  C   UNL     1      20.361 -13.477 -12.981  0.00  0.00    +0.013 A 
ATOM     17  C   UNL     1      21.319 -12.541 -12.448  0.00  0.00    +0.005 A 
ATOM     18  C   UNL     1      22.424 -12.089 -13.289  0.00  0.00    -0.033 A 
ATOM     28  C   UNL     1      22.539 -12.594 -14.647  0.00  0.00    +0.005 A 
ATOM     29  C   UNL     1      21.602 -13.510 -15.174  0.00  0.00    +0.013 A 
BRANCH  18  19
ATOM     19  C   UNL     1      23.480 -11.075 -12.809  0.00  0.00    +0.119 C 
BRANCH  19  20
ATOM     20  N   UNL     1      23.051  -9.651 -12.680  0.00  0.00    -0.302 NA
ATOM     21  C   UNL     1      23.998  -8.697 -13.414  0.00  0.00    +0.066 C 
ATOM     22  C   UNL     1      23.522  -7.213 -13.287  0.00  0.00    -0.064 C 
ATOM     23  N   UNL     1      23.416  -6.839 -11.807  0.00  0.00    +0.379 N 
ATOM     24  C   UNL     1      23.024  -5.427 -11.685  0.00  0.00    -0.096 C 
ATOM     25  H   UNL     1      24.429  -6.949 -11.357  0.00  0.00    -0.082 HD
ATOM     26  C   UNL     1      22.478  -7.784 -11.070  0.00  0.00    -0.064 C 
ATOM     27  C   UNL     1      22.943  -9.259 -11.227  0.00  0.00    +0.066 C 
ENDBRANCH  19  20
ENDBRANCH  18  19
ENDBRANCH  14  15
ENDBRANCH  12  13
TORSDOF 6
ENDMDL
MODEL 2
REMARK VINA RESULT:      -8.5      7.225     13.398
REMARK  Name = C:\Users\Docking\Desktop\test protocol\1iep_ligandH.pdb
REMARK  8 active torsions:
REMARK  status: ('A' for Active; 'I' for Inactive)
REMARK    1  A    between atoms: _5  and  _11
REMARK    2  A    between atoms: _19  and  _21
REMARK    3  A    between atoms: _22  and  _66
REMARK    4  A    between atoms: _27  and  _30
REMARK    5  A    between atoms: _32  and  _33
REMARK    6  A    between atoms: _38  and  _43
REMARK    7  A    between atoms: _43  and  _46
REMARK    8  A    between atoms: _53  and  _55
REMARK                            x       y       z     vdW  Elec       q    Type
REMARK                         _______ _______ _______ _____ _____    ______ ____
ROOT
ATOM     10  C   UNL     1      19.689 -12.563 -11.220  0.00  0.00    +0.038 A 
ATOM     11  C   UNL     1      18.798 -12.590 -10.117  0.00  0.00    +0.047 A 
ATOM     12  C   UNL     1      18.437 -13.843  -9.471  0.00  0.00    +0.035 A 
ATOM     32  C   UNL     1      19.005 -15.050  -9.974  0.00  0.00    +0.024 A 
ATOM     33  C   UNL     1      19.911 -15.041 -11.095  0.00  0.00    +0.007 A 
ATOM     34  C   UNL     1      20.269 -13.808 -11.737  0.00  0.00    -0.029 A 
ATOM     35  C   UNL     1      21.240 -13.859 -12.939  0.00  0.00    +0.045 C 
ENDROOT
BRANCH  10   9
ATOM      4  C   UNL     1      22.550  -8.751 -11.781  0.00  0.00    +0.077 A 
ATOM      5  C   UNL     1      23.490  -9.239 -10.813  0.00  0.00    +0.048 A 
ATOM      6  C   UNL     1      23.196 -10.472 -10.189  0.00  0.00    +0.116 A 
ATOM      7  N   UNL     1      22.046 -11.157 -10.516  0.00  0.00    -0.223 NA
ATOM      8  C   UNL     1      21.160 -10.657 -11.452  0.00  0.00    +0.220 A 
ATOM      9  N   UNL     1      20.001 -11.332 -11.802  0.00  0.00    -0.283 N 
ATOM     36  H   UNL     1      19.369 -10.926 -12.491  0.00  0.00    +0.155 HD
ATOM     37  N   UNL     1      21.417  -9.481 -12.061  0.00  0.00    -0.214 NA
BRANCH   4   3
ATOM      1  C   UNL     1      23.848  -6.019 -14.262  0.00  0.00    +0.020 A 
ATOM      2  C   UNL     1      23.724  -7.282 -13.570  0.00  0.00    +0.013 A 
ATOM      3  C   UNL     1      22.722  -7.465 -12.528  0.00  0.00    +0.019 A 
ATOM     38  C   UNL     1      21.853  -6.342 -12.208  0.00  0.00    +0.120 A 
ATOM     39  N   UNL     1      21.996  -5.138 -12.891  0.00  0.00    -0.263 NA
ATOM     40  C   UNL     1      22.959  -4.950 -13.894  0.00  0.00    +0.111 A 
ENDBRANCH   4   3
ENDBRANCH  10   9
BRANCH  12  13
ATOM     13  N   UNL     1      17.531 -13.933  -8.353  0.00  0.00    -0.281 N 
ATOM     14  C   UNL     1      17.714 -13.448  -7.068  0.00  0.00    +0.248 C 
ATOM     30  O   UNL     1      18.780 -13.047  -6.625  0.00  0.00    -0.270 OA
ATOM     31  H   UNL     1      16.648 -14.412  -8.530  0.00  0.00    +0.155 HD
BRANCH  14  15
ATOM     15  C   UNL     1      16.546 -13.417  -6.136  0.00  0.00    +0.037 A 
ATOM     16  C   UNL     1      15.318 -14.160  -6.430  0.00  0.00    +0.013 A 
ATOM     17  C   UNL     1      14.200 -14.099  -5.522  0.00  0.00    +0.005 A 
ATOM     18  C   UNL     1      14.306 -13.291  -4.309  0.00  0.00    -0.033 A 
ATOM     28  C   UNL     1      15.538 -12.568  -4.039  0.00  0.00    +0.005 A 
ATOM     29  C   UNL     1      16.635 -12.625  -4.927  0.00  0.00    +0.013 A 
BRANCH  18  19
ATOM     19  C   UNL     1      13.156 -13.151  -3.295  0.00  0.00    +0.119 C 
BRANCH  19  20
ATOM     20  N   UNL     1      11.790 -12.895  -3.841  0.00  0.00    -0.302 NA
ATOM     21  C   UNL     1      11.659 -11.484  -4.422  0.00  0.00    +0.066 C 
ATOM     22  C   UNL     1      10.231 -11.240  -5.009  0.00  0.00    -0.064 C 
ATOM     23  N   UNL     1       9.187 -11.475  -3.916  0.00  0.00    +0.379 N 
ATOM     24  C   UNL     1       7.846 -11.190  -4.449  0.00  0.00    -0.096 C 
ATOM     25  H   UNL     1       9.386 -10.747  -3.096  0.00  0.00    -0.082 HD
ATOM     26  C   UNL     1       9.311 -12.874  -3.331  0.00  0.00    -0.064 C 
ATOM     27  C   UNL     1      10.743 -13.116  -2.777  0.00  0.00    +0.066 C 
ENDBRANCH  19  20
ENDBRANCH  18  19
ENDBRANCH  14  15
ENDBRANCH  12  13
TORSDOF 6
ENDMDL
MODEL 3
REMARK VINA RESULT:      -8.4      6.882     12.466
REMARK  Name = C:\Users\Docking\Desktop\test protocol\1iep_ligandH.pdb
REMARK  8 active torsions:
REMARK  status: ('A' for Active; 'I' for Inactive)
REMARK    1  A    between atoms: _5  and  _11
REMARK    2  A    between atoms: _19  and  _21
REMARK    3  A    between atoms: _22  and  _66
REMARK    4  A    between atoms: _27  and  _30
REMARK    5  A    between atoms: _32  and  _33
REMARK    6  A    between atoms: _38  and  _43
REMARK    7  A    between atoms: _43  and  _46
REMARK    8  A    between atoms: _53  and  _55
REMARK                            x       y       z     vdW  Elec       q    Type
REMARK                         _______ _______ _______ _____ _____    ______ ____
ROOT
ATOM     10  C   UNL     1      19.790 -13.766 -12.528  0.00  0.00    +0.038 A 
ATOM     11  C   UNL     1      19.117 -13.585 -11.293  0.00  0.00    +0.047 A 
ATOM     12  C   UNL     1      18.430 -14.689 -10.641  0.00  0.00    +0.035 A 
ATOM     32  C   UNL     1      18.450 -15.966 -11.276  0.00  0.00    +0.024 A 
ATOM     33  C   UNL     1      19.128 -16.167 -12.532  0.00  0.00    +0.007 A 
ATOM     34  C   UNL     1      19.806 -15.081 -13.180  0.00  0.00    -0.029 A 
ATOM     35  C   UNL     1      20.511 -15.352 -14.529  0.00  0.00    +0.045 C 
ENDROOT
BRANCH  10   9
ATOM      4  C   UNL     1      23.618 -10.932 -13.120  0.00  0.00    +0.077 A 
ATOM      5  C   UNL     1      24.393 -11.680 -12.173  0.00  0.00    +0.048 A 
ATOM      6  C   UNL     1      23.766 -12.783 -11.550  0.00  0.00    +0.116 A 
ATOM      7  N   UNL     1      22.463 -13.104 -11.859  0.00  0.00    -0.223 NA
ATOM      8  C   UNL     1      21.743 -12.361 -12.776  0.00  0.00    +0.220 A 
ATOM      9  N   UNL     1      20.434 -12.671 -13.109  0.00  0.00    -0.283 N 
ATOM     36  H   UNL     1      19.935 -12.093 -13.785  0.00  0.00    +0.155 HD
ATOM     37  N   UNL     1      22.318 -11.302 -13.384  0.00  0.00    -0.214 NA
BRANCH   4   3
ATOM      1  C   UNL     1      25.838  -8.593 -15.335  0.00  0.00    +0.020 A 
ATOM      2  C   UNL     1      25.377  -9.770 -14.635  0.00  0.00    +0.013 A 
ATOM      3  C   UNL     1      24.141  -9.742 -13.864  0.00  0.00    +0.019 A 
ATOM     38  C   UNL     1      23.387  -8.498 -13.823  0.00  0.00    +0.120 A 
ATOM     39  N   UNL     1      23.856  -7.380 -14.506  0.00  0.00    -0.263 NA
ATOM     40  C   UNL     1      25.045  -7.395 -15.250  0.00  0.00    +0.111 A 
ENDBRANCH   4   3
ENDBRANCH  10   9
BRANCH  12  13
ATOM     13  N   UNL     1      17.723 -14.564  -9.391  0.00  0.00    -0.281 N 
ATOM     14  C   UNL     1      18.241 -14.236  -8.149  0.00  0.00    +0.248 C 
ATOM     30  O   UNL     1      19.434 -14.210  -7.883  0.00  0.00    -0.270 OA
ATOM     31  H   UNL     1      16.718 -14.738  -9.426  0.00  0.00    +0.155 HD
BRANCH  14  15
ATOM     15  C   UNL     1      17.299 -13.904  -7.038  0.00  0.00    +0.037 A 
ATOM     16  C   UNL     1      15.956 -14.488  -6.980  0.00  0.00    +0.013 A 
ATOM     17  C   UNL     1      15.061 -14.137  -5.906  0.00  0.00    +0.005 A 
ATOM     18  C   UNL     1      15.506 -13.198  -4.880  0.00  0.00    -0.033 A 
ATOM     28  C   UNL     1      16.845 -12.637  -4.959  0.00  0.00    +0.005 A 
ATOM     29  C   UNL     1      17.725 -12.978  -6.010  0.00  0.00    +0.013 A 
BRANCH  18  19
ATOM     19  C   UNL     1      14.610 -12.750  -3.710  0.00  0.00    +0.119 C 
BRANCH  19  20
ATOM     20  N   UNL     1      13.139 -12.690  -3.960  0.00  0.00    -0.302 NA
ATOM     21  C   UNL     1      12.770 -11.585  -4.954  0.00  0.00    +0.066 C 
ATOM     22  C   UNL     1      11.230 -11.551  -5.221  0.00  0.00    -0.064 C 
ATOM     23  N   UNL     1      10.490 -11.357  -3.896  0.00  0.00    +0.379 N 
ATOM     24  C   UNL     1       9.044 -11.266  -4.150  0.00  0.00    -0.096 C 
ATOM     25  H   UNL     1      10.819 -10.383  -3.465  0.00  0.00    -0.082 HD
ATOM     26  C   UNL     1      10.853 -12.449  -2.901  0.00  0.00    -0.064 C 
ATOM     27  C   UNL     1      12.389 -12.494  -2.665  0.00  0.00    +0.066 C 
ENDBRANCH  19  20
ENDBRANCH  18  19
ENDBRANCH  14  15
ENDBRANCH  12  13
TORSDOF 6
ENDMDL
