MODEL 1
REMARK VINA RESULT:      -8.8      0.000      0.000
REMARK  Name = C:\Users\Docking\Desktop\test protocol\1iep_ligandH.pdb
REMARK  8 active torsions:
REMARK  status: ('A' for Active; 'I' for Inactive)
REMARK    1  A    between atoms: _5  and  _11
REMARK    2  A    between atoms: _19  and  _21
REMARK    3  A    between atoms: _22  and  _66
REMARK    4  A    between atoms: _27  and  _30
REMARK    5  A    between atoms: _32  and  _33
REMARK    6  A    between atoms: _38  and  _43
REMARK    7  A    between atoms: _43  and  _46
REMARK    8  A    between atoms: _53  and  _55
REMARK                            x       y       z     vdW  Elec       q    Type
REMARK                         _______ _______ _______ _____ _____    ______ ____
ROOT
ATOM     10  C   UNL     1      82.681 130.844  10.102  0.00  0.00    +0.038 A 
ATOM     11  C   UNL     1      83.483 129.879   9.440  0.00  0.00    +0.047 A 
ATOM     12  C   UNL     1      84.705 129.373  10.046  0.00  0.00    +0.035 A 
ATOM     32  C   UNL     1      85.079 129.869  11.328  0.00  0.00    +0.024 A 
ATOM     33  C   UNL     1      84.276 130.850  12.015  0.00  0.00    +0.007 A 
ATOM     34  C   UNL     1      83.072 131.355  11.421  0.00  0.00    -0.029 A 
ATOM     35  C   UNL     1      82.254 132.412  12.200  0.00  0.00    +0.045 C 
ENDROOT
BRANCH  10   9
ATOM      4  C   UNL     1      80.300 133.969   7.345  0.00  0.00    +0.077 A 
ATOM      5  C   UNL     1      81.466 134.786   7.162  0.00  0.00    +0.048 A 
ATOM      6  C   UNL     1      82.656 134.370   7.800  0.00  0.00    +0.116 A 
ATOM      7  N   UNL     1      82.668 133.222   8.561  0.00  0.00    -0.223 NA
ATOM      8  C   UNL     1      81.527 132.459   8.719  0.00  0.00    +0.220 A 
ATOM      9  N   UNL     1      81.518 131.296   9.474  0.00  0.00    -0.283 N 
ATOM     36  H   UNL     1      80.654 130.765   9.573  0.00  0.00    +0.155 HD
ATOM     37  N   UNL     1      80.377 132.835   8.122  0.00  0.00    -0.214 NA
BRANCH   4   3
ATOM      1  C   UNL     1      76.458 134.058   6.618  0.00  0.00    +0.020 A 
ATOM      2  C   UNL     1      77.717 133.731   7.246  0.00  0.00    +0.013 A 
ATOM      3  C   UNL     1      78.969 134.275   6.733  0.00  0.00    +0.019 A 
ATOM     38  C   UNL     1      78.910 135.153   5.575  0.00  0.00    +0.120 A 
ATOM     39  N   UNL     1      77.683 135.449   4.990  0.00  0.00    -0.263 NA
ATOM     40  C   UNL     1      76.472 134.930   5.474  0.00  0.00    +0.111 A 
ENDBRANCH   4   3
ENDBRANCH  10   9
BRANCH  12  13
ATOM     13  N   UNL     1      85.563 128.399   9.418  0.00  0.00    -0.281 N 
ATOM     14  C   UNL     1      85.614 127.034   9.648  0.00  0.00    +0.248 C 
ATOM     30  O   UNL     1      85.073 126.471  10.589  0.00  0.00    -0.270 OA
ATOM     31  H   UNL     1      86.211 128.760   8.718  0.00  0.00    +0.155 HD
BRANCH  14  15
ATOM     15  C   UNL     1      86.389 126.171   8.706  0.00  0.00    +0.037 A 
ATOM     16  C   UNL     1      85.821 124.931   8.169  0.00  0.00    +0.013 A 
ATOM     17  C   UNL     1      86.597 124.108   7.275  0.00  0.00    +0.005 A 
ATOM     18  C   UNL     1      87.949 124.524   6.911  0.00  0.00    -0.033 A 
ATOM     28  C   UNL     1      88.486 125.761   7.454  0.00  0.00    +0.005 A 
ATOM     29  C   UNL     1      87.729 126.570   8.331  0.00  0.00    +0.013 A 
BRANCH  18  19
ATOM     19  C   UNL     1      88.856 123.697   5.980  0.00  0.00    +0.119 C 
BRANCH  19  20
ATOM     20  N   UNL     1      90.071 123.075   6.586  0.00  0.00    -0.302 NA
ATOM     21  C   UNL     1      91.064 122.599   5.522  0.00  0.00    +0.066 C 
ATOM     22  C   UNL     1      92.339 121.971   6.173  0.00  0.00    -0.064 C 
ATOM     23  N   UNL     1      91.926 120.813   7.083  0.00  0.00    +0.379 N 
ATOM     24  C   UNL     1      93.126 120.183   7.652  0.00  0.00    -0.096 C 
ATOM     25  H   UNL     1      91.412 120.053   6.450  0.00  0.00    -0.082 HD
ATOM     26  C   UNL     1      90.936 121.276   8.143  0.00  0.00    -0.064 C 
ATOM     27  C   UNL     1      89.686 121.926   7.486  0.00  0.00    +0.066 C 
ENDBRANCH  19  20
ENDBRANCH  18  19
ENDBRANCH  14  15
ENDBRANCH  12  13
TORSDOF 6
ENDMDL
MODEL 2
REMARK VINA RESULT:      -8.7      1.116      1.406
REMARK  Name = C:\Users\Docking\Desktop\test protocol\1iep_ligandH.pdb
REMARK  8 active torsions:
REMARK  status: ('A' for Active; 'I' for Inactive)
REMARK    1  A    between atoms: _5  and  _11
REMARK    2  A    between atoms: _19  and  _21
REMARK    3  A    between atoms: _22  and  _66
REMARK    4  A    between atoms: _27  and  _30
REMARK    5  A    between atoms: _32  and  _33
REMARK    6  A    between atoms: _38  and  _43
REMARK    7  A    between atoms: _43  and  _46
REMARK    8  A    between atoms: _53  and  _55
REMARK                            x       y       z     vdW  Elec       q    Type
REMARK                         _______ _______ _______ _____ _____    ______ ____
ROOT
ATOM     10  C   UNL     1      82.323 131.236  10.313  0.00  0.00    +0.038 A 
ATOM     11  C   UNL     1      82.908 130.094   9.710  0.00  0.00    +0.047 A 
ATOM     12  C   UNL     1      84.105 129.479  10.264  0.00  0.00    +0.035 A 
ATOM     32  C   UNL     1      84.677 130.053  11.437  0.00  0.00    +0.024 A 
ATOM     33  C   UNL     1      84.097 131.215  12.062  0.00  0.00    +0.007 A 
ATOM     34  C   UNL     1      82.918 131.827  11.518  0.00  0.00    -0.029 A 
ATOM     35  C   UNL     1      82.342 133.075  12.227  0.00  0.00    +0.045 C 
ENDROOT
BRANCH  10   9
ATOM      4  C   UNL     1      80.126 134.032   7.089  0.00  0.00    +0.077 A 
ATOM      5  C   UNL     1      81.372 134.454   6.518  0.00  0.00    +0.048 A 
ATOM      6  C   UNL     1      82.556 133.935   7.088  0.00  0.00    +0.116 A 
ATOM      7  N   UNL     1      82.487 133.058   8.149  0.00  0.00    -0.223 NA
ATOM      8  C   UNL     1      81.268 132.672   8.677  0.00  0.00    +0.220 A 
ATOM      9  N   UNL     1      81.175 131.786   9.739  0.00  0.00    -0.283 N 
ATOM     36  H   UNL     1      80.258 131.532  10.104  0.00  0.00    +0.155 HD
ATOM     37  N   UNL     1      80.124 133.156   8.151  0.00  0.00    -0.214 NA
BRANCH   4   3
ATOM      1  C   UNL     1      76.272 134.348   6.497  0.00  0.00    +0.020 A 
ATOM      2  C   UNL     1      77.537 133.867   7.003  0.00  0.00    +0.013 A 
ATOM      3  C   UNL     1      78.789 134.490   6.595  0.00  0.00    +0.019 A 
ATOM     38  C   UNL     1      78.727 135.609   5.667  0.00  0.00    +0.120 A 
ATOM     39  N   UNL     1      77.494 136.050   5.194  0.00  0.00    -0.263 NA
ATOM     40  C   UNL     1      76.283 135.457   5.579  0.00  0.00    +0.111 A 
ENDBRANCH   4   3
ENDBRANCH  10   9
BRANCH  12  13
ATOM     13  N   UNL     1      84.748 128.324   9.690  0.00  0.00    -0.281 N 
ATOM     14  C   UNL     1      86.036 128.226   9.191  0.00  0.00    +0.248 C 
ATOM     30  O   UNL     1      86.764 129.181   8.965  0.00  0.00    -0.270 OA
ATOM     31  H   UNL     1      84.185 127.474   9.648  0.00  0.00    +0.155 HD
BRANCH  14  15
ATOM     15  C   UNL     1      86.591 126.873   8.884  0.00  0.00    +0.037 A 
ATOM     16  C   UNL     1      88.001 126.557   9.126  0.00  0.00    +0.013 A 
ATOM     17  C   UNL     1      88.514 125.249   8.805  0.00  0.00    +0.005 A 
ATOM     18  C   UNL     1      87.616 124.245   8.239  0.00  0.00    -0.033 A 
ATOM     28  C   UNL     1      86.220 124.584   8.014  0.00  0.00    +0.005 A 
ATOM     29  C   UNL     1      85.714 125.866   8.326  0.00  0.00    +0.013 A 
BRANCH  18  19
ATOM     19  C   UNL     1      88.082 122.831   7.847  0.00  0.00    +0.119 C 
BRANCH  19  20
ATOM     20  N   UNL     1      89.533 122.519   8.011  0.00  0.00    -0.302 NA
ATOM     21  C   UNL     1      90.045 121.575   6.920  0.00  0.00    +0.066 C 
ATOM     22  C   UNL     1      91.570 121.277   7.094  0.00  0.00    -0.064 C 
ATOM     23  N   UNL     1      91.816 120.684   8.483  0.00  0.00    +0.379 N 
ATOM     24  C   UNL     1      93.240 120.349   8.628  0.00  0.00    -0.096 C 
ATOM     25  H   UNL     1      91.236 119.734   8.552  0.00  0.00    -0.082 HD
ATOM     26  C   UNL     1      91.307 121.615   9.574  0.00  0.00    -0.064 C 
ATOM     27  C   UNL     1      89.798 121.928   9.374  0.00  0.00    +0.066 C 
ENDBRANCH  19  20
ENDBRANCH  18  19
ENDBRANCH  14  15
ENDBRANCH  12  13
TORSDOF 6
ENDMDL
MODEL 3
REMARK VINA RESULT:      -8.1     27.236     31.534
REMARK  Name = C:\Users\Docking\Desktop\test protocol\1iep_ligandH.pdb
REMARK  8 active torsions:
REMARK  status: ('A' for Active; 'I' for Inactive)
REMARK    1  A    between atoms: _5  and  _11
REMARK    2  A    between atoms: _19  and  _21
REMARK    3  A    between atoms: _22  and  _66
REMARK    4  A    between atoms: _27  and  _30
REMARK    5  A    between atoms: _32  and  _33
REMARK    6  A    between atoms: _38  and  _43
REMARK    7  A    between atoms: _43  and  _46
REMARK    8  A    between atoms: _53  and  _55
REMARK                            x       y       z     vdW  Elec       q    Type
REMARK                         _______ _______ _______ _____ _____    ______ ____
ROOT
ATOM     10  C   UNL     1      85.510  95.867   3.803  0.00  0.00    +0.038 A 
ATOM     11  C   UNL     1      86.215  96.925   4.433  0.00  0.00    +0.047 A 
ATOM     12  C   UNL     1      87.227  96.658   5.443  0.00  0.00    +0.035 A 
ATOM     32  C   UNL     1      87.498  95.301   5.786  0.00  0.00    +0.024 A 
ATOM     33  C   UNL     1      86.791  94.214   5.156  0.00  0.00    +0.007 A 
ATOM     34  C   UNL     1      85.790  94.471   4.161  0.00  0.00    -0.029 A 
ATOM     35  C   UNL     1      85.058  93.267   3.523  0.00  0.00    +0.045 C 
ENDROOT
BRANCH  10   9
ATOM      4  C   UNL     1      81.004  96.870   2.490  0.00  0.00    +0.077 A 
ATOM      5  C   UNL     1      80.519  96.731   3.833  0.00  0.00    +0.048 A 
ATOM      6  C   UNL     1      81.461  96.394   4.831  0.00  0.00    +0.116 A 
ATOM      7  N   UNL     1      82.786  96.212   4.500  0.00  0.00    -0.223 NA
ATOM      8  C   UNL     1      83.220  96.352   3.194  0.00  0.00    +0.220 A 
ATOM      9  N   UNL     1      84.549  96.181   2.839  0.00  0.00    -0.283 N 
ATOM     36  H   UNL     1      84.828  96.285   1.864  0.00  0.00    +0.155 HD
ATOM     37  N   UNL     1      82.340  96.672   2.223  0.00  0.00    -0.214 NA
BRANCH   4   3
ATOM      1  C   UNL     1      78.128  96.859  -0.162  0.00  0.00    +0.020 A 
ATOM      2  C   UNL     1      78.936  96.472   0.972  0.00  0.00    +0.013 A 
ATOM      3  C   UNL     1      80.132  97.226   1.326  0.00  0.00    +0.019 A 
ATOM     38  C   UNL     1      80.486  98.375   0.506  0.00  0.00    +0.120 A 
ATOM     39  N   UNL     1      79.690  98.722  -0.581  0.00  0.00    -0.263 NA
ATOM     40  C   UNL     1      78.538  98.003  -0.932  0.00  0.00    +0.111 A 
ENDBRANCH   4   3
ENDBRANCH  10   9
BRANCH  12  13
ATOM     13  N   UNL     1      87.968  97.691   6.123  0.00  0.00    -0.281 N 
ATOM     14  C   UNL     1      89.205  98.215   5.783  0.00  0.00    +0.248 C 
ATOM     30  O   UNL     1      89.962  97.723   4.960  0.00  0.00    -0.270 OA
ATOM     31  H   UNL     1      87.528  98.084   6.955  0.00  0.00    +0.155 HD
BRANCH  14  15
ATOM     15  C   UNL     1      89.675  99.458   6.467  0.00  0.00    +0.037 A 
ATOM     16  C   UNL     1      90.645 100.354   5.833  0.00  0.00    +0.013 A 
ATOM     17  C   UNL     1      91.095 101.538   6.523  0.00  0.00    +0.005 A 
ATOM     18  C   UNL     1      90.572 101.833   7.855  0.00  0.00    -0.033 A 
ATOM     28  C   UNL     1      89.606 100.930   8.458  0.00  0.00    +0.005 A 
ATOM     29  C   UNL     1      89.164  99.768   7.786  0.00  0.00    +0.013 A 
BRANCH  18  19
ATOM     19  C   UNL     1      91.011 103.062   8.672  0.00  0.00    +0.119 C 
BRANCH  19  20
ATOM     20  N   UNL     1      91.953 102.827   9.808  0.00  0.00    -0.302 NA
ATOM     21  C   UNL     1      92.535 104.135  10.351  0.00  0.00    +0.066 C 
ATOM     22  C   UNL     1      93.500 103.872  11.553  0.00  0.00    -0.064 C 
ATOM     23  N   UNL     1      94.616 102.925  11.109  0.00  0.00    +0.379 N 
ATOM     24  C   UNL     1      95.557 102.722  12.220  0.00  0.00    -0.096 C 
ATOM     25  H   UNL     1      95.173 103.422  10.281  0.00  0.00    -0.082 HD
ATOM     26  C   UNL     1      94.045 101.623  10.565  0.00  0.00    -0.064 C 
ATOM     27  C   UNL     1      93.065 101.897   9.391  0.00  0.00    +0.066 C 
ENDBRANCH  19  20
ENDBRANCH  18  19
ENDBRANCH  14  15
ENDBRANCH  12  13
TORSDOF 6
ENDMDL
MODEL 4
REMARK VINA RESULT:      -8.1     14.862     20.997
REMARK  Name = C:\Users\Docking\Desktop\test protocol\1iep_ligandH.pdb
REMARK  8 active torsions:
REMARK  status: ('A' for Active; 'I' for Inactive)
REMARK    1  A    between atoms: _5  and  _11
REMARK    2  A    between atoms: _19  and  _21
REMARK    3  A    between atoms: _22  and  _66
REMARK    4  A    between atoms: _27  and  _30
REMARK    5  A    between atoms: _32  and  _33
REMARK    6  A    between atoms: _38  and  _43
REMARK    7  A    between atoms: _43  and  _46
REMARK    8  A    between atoms: _53  and  _55
REMARK                            x       y       z     vdW  Elec       q    Type
REMARK                         _______ _______ _______ _____ _____    ______ ____
ROOT
ATOM     10  C   UNL     1      82.386 112.485  20.295  0.00  0.00    +0.038 A 
ATOM     11  C   UNL     1      81.990 113.341  19.236  0.00  0.00    +0.047 A 
ATOM     12  C   UNL     1      81.669 114.739  19.478  0.00  0.00    +0.035 A 
ATOM     32  C   UNL     1      81.764 115.232  20.812  0.00  0.00    +0.024 A 
ATOM     33  C   UNL     1      82.164 114.376  21.900  0.00  0.00    +0.007 A 
ATOM     34  C   UNL     1      82.480 112.996  21.668  0.00  0.00    -0.029 A 
ATOM     35  C   UNL     1      82.896 112.122  22.874  0.00  0.00    +0.045 C 
ENDROOT
BRANCH  10   9
ATOM      4  C   UNL     1      85.303 109.070  18.602  0.00  0.00    +0.077 A 
ATOM      5  C   UNL     1      86.309 110.026  18.239  0.00  0.00    +0.048 A 
ATOM      6  C   UNL     1      86.034 111.387  18.498  0.00  0.00    +0.116 A 
ATOM      7  N   UNL     1      84.838 111.754  19.078  0.00  0.00    -0.223 NA
ATOM      8  C   UNL     1      83.889 110.806  19.414  0.00  0.00    +0.220 A 
ATOM      9  N   UNL     1      82.683 111.151  20.005  0.00  0.00    -0.283 N 
ATOM     36  H   UNL     1      82.006 110.423  20.232  0.00  0.00    +0.155 HD
ATOM     37  N   UNL     1      84.127 109.500  19.175  0.00  0.00    -0.214 NA
BRANCH   4   3
ATOM      1  C   UNL     1      85.113 105.480  17.058  0.00  0.00    +0.020 A 
ATOM      2  C   UNL     1      84.947 106.907  17.210  0.00  0.00    +0.013 A 
ATOM      3  C   UNL     1      85.447 107.594  18.394  0.00  0.00    +0.019 A 
ATOM     38  C   UNL     1      86.118 106.801  19.414  0.00  0.00    +0.120 A 
ATOM     39  N   UNL     1      86.262 105.428  19.241  0.00  0.00    -0.263 NA
ATOM     40  C   UNL     1      85.782 104.756  18.107  0.00  0.00    +0.111 A 
ENDBRANCH   4   3
ENDBRANCH  10   9
BRANCH  12  13
ATOM     13  N   UNL     1      81.254 115.653  18.443  0.00  0.00    -0.281 N 
ATOM     14  C   UNL     1      82.001 116.649  17.836  0.00  0.00    +0.248 C 
ATOM     30  O   UNL     1      83.083 117.046  18.243  0.00  0.00    -0.270 OA
ATOM     31  H   UNL     1      80.291 115.555  18.120  0.00  0.00    +0.155 HD
BRANCH  14  15
ATOM     15  C   UNL     1      81.464 117.308  16.607  0.00  0.00    +0.037 A 
ATOM     16  C   UNL     1      80.026 117.525  16.429  0.00  0.00    +0.013 A 
ATOM     17  C   UNL     1      79.532 118.148  15.226  0.00  0.00    +0.005 A 
ATOM     18  C   UNL     1      80.479 118.560  14.193  0.00  0.00    -0.033 A 
ATOM     28  C   UNL     1      81.900 118.339  14.398  0.00  0.00    +0.005 A 
ATOM     29  C   UNL     1      82.388 117.727  15.575  0.00  0.00    +0.013 A 
BRANCH  18  19
ATOM     19  C   UNL     1      80.039 119.213  12.869  0.00  0.00    +0.119 C 
BRANCH  19  20
ATOM     20  N   UNL     1      80.332 120.667  12.693  0.00  0.00    -0.302 NA
ATOM     21  C   UNL     1      79.436 121.544  13.573  0.00  0.00    +0.066 C 
ATOM     22  C   UNL     1      79.772 123.061  13.393  0.00  0.00    -0.064 C 
ATOM     23  N   UNL     1      79.624 123.442  11.919  0.00  0.00    +0.379 N 
ATOM     24  C   UNL     1      79.882 124.880  11.756  0.00  0.00    -0.096 C 
ATOM     25  H   UNL     1      78.565 123.252  11.626  0.00  0.00    -0.082 HD
ATOM     26  C   UNL     1      80.509 122.573  11.037  0.00  0.00    -0.064 C 
ATOM     27  C   UNL     1      80.188 121.066  11.245  0.00  0.00    +0.066 C 
ENDBRANCH  19  20
ENDBRANCH  18  19
ENDBRANCH  14  15
ENDBRANCH  12  13
TORSDOF 6
ENDMDL
MODEL 5
REMARK VINA RESULT:      -8.0      6.296     10.033
REMARK  Name = C:\Users\Docking\Desktop\test protocol\1iep_ligandH.pdb
REMARK  8 active torsions:
REMARK  status: ('A' for Active; 'I' for Inactive)
REMARK    1  A    between atoms: _5  and  _11
REMARK    2  A    between atoms: _19  and  _21
REMARK    3  A    between atoms: _22  and  _66
REMARK    4  A    between atoms: _27  and  _30
REMARK    5  A    between atoms: _32  and  _33
REMARK    6  A    between atoms: _38  and  _43
REMARK    7  A    between atoms: _43  and  _46
REMARK    8  A    between atoms: _53  and  _55
REMARK                            x       y       z     vdW  Elec       q    Type
REMARK                         _______ _______ _______ _____ _____    ______ ____
ROOT
ATOM     10  C   UNL     1      87.880 123.659   8.920  0.00  0.00    +0.038 A 
ATOM     11  C   UNL     1      88.152 122.856  10.058  0.00  0.00    +0.047 A 
ATOM     12  C   UNL     1      89.199 121.846  10.032  0.00  0.00    +0.035 A 
ATOM     32  C   UNL     1      89.951 121.682   8.833  0.00  0.00    +0.024 A 
ATOM     33  C   UNL     1      89.686 122.489   7.667  0.00  0.00    +0.007 A 
ATOM     34  C   UNL     1      88.654 123.485   7.685  0.00  0.00    -0.029 A 
ATOM     35  C   UNL     1      88.410 124.316   6.404  0.00  0.00    +0.045 C 
ENDROOT
BRANCH  10   9
ATOM      4  C   UNL     1      86.221 127.980  10.192  0.00  0.00    +0.077 A 
ATOM      5  C   UNL     1      87.479 128.357  10.770  0.00  0.00    +0.048 A 
ATOM      6  C   UNL     1      88.524 127.408  10.726  0.00  0.00    +0.116 A 
ATOM      7  N   UNL     1      88.317 126.176  10.145  0.00  0.00    -0.223 NA
ATOM      8  C   UNL     1      87.092 125.843   9.597  0.00  0.00    +0.220 A 
ATOM      9  N   UNL     1      86.863 124.613   9.000  0.00  0.00    -0.283 N 
ATOM     36  H   UNL     1      85.943 124.403   8.615  0.00  0.00    +0.155 HD
ATOM     37  N   UNL     1      86.077 126.732   9.628  0.00  0.00    -0.214 NA
BRANCH   4   3
ATOM      1  C   UNL     1      83.423 130.513  11.219  0.00  0.00    +0.020 A 
ATOM      2  C   UNL     1      84.589 129.664  11.304  0.00  0.00    +0.013 A 
ATOM      3  C   UNL     1      85.022 128.875  10.158  0.00  0.00    +0.019 A 
ATOM     38  C   UNL     1      84.247 128.969   8.930  0.00  0.00    +0.120 A 
ATOM     39  N   UNL     1      83.128 129.794   8.877  0.00  0.00    -0.263 NA
ATOM     40  C   UNL     1      82.701 130.556   9.974  0.00  0.00    +0.111 A 
ENDBRANCH   4   3
ENDBRANCH  10   9
BRANCH  12  13
ATOM     13  N   UNL     1      89.515 120.996  11.153  0.00  0.00    -0.281 N 
ATOM     14  C   UNL     1      90.117 121.352  12.349  0.00  0.00    +0.248 C 
ATOM     30  O   UNL     1      90.671 122.423  12.552  0.00  0.00    -0.270 OA
ATOM     31  H   UNL     1      89.265 120.012  11.053  0.00  0.00    +0.155 HD
BRANCH  14  15
ATOM     15  C   UNL     1      90.115 120.373  13.478  0.00  0.00    +0.037 A 
ATOM     16  C   UNL     1      91.238 119.456  13.690  0.00  0.00    +0.013 A 
ATOM     17  C   UNL     1      91.204 118.509  14.777  0.00  0.00    +0.005 A 
ATOM     18  C   UNL     1      90.041 118.476  15.661  0.00  0.00    -0.033 A 
ATOM     28  C   UNL     1      88.943 119.401  15.431  0.00  0.00    +0.005 A 
ATOM     29  C   UNL     1      88.973 120.329  14.367  0.00  0.00    +0.013 A 
BRANCH  18  19
ATOM     19  C   UNL     1      89.910 117.485  16.833  0.00  0.00    +0.119 C 
BRANCH  19  20
ATOM     20  N   UNL     1      89.808 116.035  16.493  0.00  0.00    -0.302 NA
ATOM     21  C   UNL     1      88.498 115.703  15.773  0.00  0.00    +0.066 C 
ATOM     22  C   UNL     1      88.419 114.186  15.405  0.00  0.00    -0.064 C 
ATOM     23  N   UNL     1      88.565 113.347  16.676  0.00  0.00    +0.379 N 
ATOM     24  C   UNL     1      88.433 111.922  16.341  0.00  0.00    -0.096 C 
ATOM     25  H   UNL     1      87.723 113.615  17.356  0.00  0.00    -0.082 HD
ATOM     26  C   UNL     1      89.864 113.673  17.400  0.00  0.00    -0.064 C 
ATOM     27  C   UNL     1      89.946 115.188  17.735  0.00  0.00    +0.066 C 
ENDBRANCH  19  20
ENDBRANCH  18  19
ENDBRANCH  14  15
ENDBRANCH  12  13
TORSDOF 6
ENDMDL
