MODEL 1
REMARK VINA RESULT:      -8.9      0.000      0.000
REMARK  Name = C:\Users\Docking\Desktop\test protocol\1iep_ligandH.pdb
REMARK  8 active torsions:
REMARK  status: ('A' for Active; 'I' for Inactive)
REMARK    1  A    between atoms: _5  and  _11
REMARK    2  A    between atoms: _19  and  _21
REMARK    3  A    between atoms: _22  and  _66
REMARK    4  A    between atoms: _27  and  _30
REMARK    5  A    between atoms: _32  and  _33
REMARK    6  A    between atoms: _38  and  _43
REMARK    7  A    between atoms: _43  and  _46
REMARK    8  A    between atoms: _53  and  _55
REMARK                            x       y       z     vdW  Elec       q    Type
REMARK                         _______ _______ _______ _____ _____    ______ ____
ROOT
ATOM     10  C   UNL     1     -12.597 -21.481  16.585  0.00  0.00    +0.038 A 
ATOM     11  C   UNL     1     -13.754 -20.954  15.957  0.00  0.00    +0.047 A 
ATOM     12  C   UNL     1     -14.577 -19.951  16.615  0.00  0.00    +0.035 A 
ATOM     32  C   UNL     1     -14.190 -19.505  17.912  0.00  0.00    +0.024 A 
ATOM     33  C   UNL     1     -13.017 -20.031  18.566  0.00  0.00    +0.007 A 
ATOM     34  C   UNL     1     -12.203 -21.022  17.923  0.00  0.00    -0.029 A 
ATOM     35  C   UNL     1     -10.961 -21.555  18.674  0.00  0.00    +0.045 C 
ENDROOT
BRANCH  10   9
ATOM      4  C   UNL     1      -8.792 -22.812  13.980  0.00  0.00    +0.077 A 
ATOM      5  C   UNL     1      -8.275 -21.474  13.943  0.00  0.00    +0.048 A 
ATOM      6  C   UNL     1      -9.022 -20.471  14.601  0.00  0.00    +0.116 A 
ATOM      7  N   UNL     1     -10.197 -20.794  15.245  0.00  0.00    -0.223 NA
ATOM      8  C   UNL     1     -10.668 -22.094  15.260  0.00  0.00    +0.220 A 
ATOM      9  N   UNL     1     -11.843 -22.442  15.908  0.00  0.00    -0.283 N 
ATOM     36  H   UNL     1     -12.161 -23.411  15.890  0.00  0.00    +0.155 HD
ATOM     37  N   UNL     1      -9.974 -23.069  14.638  0.00  0.00    -0.214 NA
BRANCH   4   3
ATOM      1  C   UNL     1      -7.164 -26.317  13.377  0.00  0.00    +0.020 A 
ATOM      2  C   UNL     1      -7.819 -25.217  14.047  0.00  0.00    +0.013 A 
ATOM      3  C   UNL     1      -8.115 -23.981  13.334  0.00  0.00    +0.019 A 
ATOM     38  C   UNL     1      -7.733 -23.889  11.933  0.00  0.00    +0.120 A 
ATOM     39  N   UNL     1      -7.102 -24.964  11.315  0.00  0.00    -0.263 NA
ATOM     40  C   UNL     1      -6.810 -26.158  11.991  0.00  0.00    +0.111 A 
ENDBRANCH   4   3
ENDBRANCH  10   9
BRANCH  12  13
ATOM     13  N   UNL     1     -15.767 -19.386  16.030  0.00  0.00    -0.281 N 
ATOM     14  C   UNL     1     -17.038 -19.935  15.985  0.00  0.00    +0.248 C 
ATOM     30  O   UNL     1     -17.297 -21.099  16.255  0.00  0.00    -0.270 OA
ATOM     31  H   UNL     1     -15.660 -18.469  15.596  0.00  0.00    +0.155 HD
BRANCH  14  15
ATOM     15  C   UNL     1     -18.183 -19.072  15.565  0.00  0.00    +0.037 A 
ATOM     16  C   UNL     1     -18.180 -17.629  15.818  0.00  0.00    +0.013 A 
ATOM     17  C   UNL     1     -19.306 -16.822  15.418  0.00  0.00    +0.005 A 
ATOM     18  C   UNL     1     -20.444 -17.458  14.759  0.00  0.00    -0.033 A 
ATOM     28  C   UNL     1     -20.419 -18.890  14.516  0.00  0.00    +0.005 A 
ATOM     29  C   UNL     1     -19.318 -19.685  14.907  0.00  0.00    +0.013 A 
BRANCH  18  19
ATOM     19  C   UNL     1     -21.697 -16.678  14.317  0.00  0.00    +0.119 C 
BRANCH  19  20
ATOM     20  N   UNL     1     -21.678 -15.196  14.496  0.00  0.00    -0.302 NA
ATOM     21  C   UNL     1     -22.884 -14.698  15.298  0.00  0.00    +0.066 C 
ATOM     22  C   UNL     1     -22.837 -13.148  15.495  0.00  0.00    -0.064 C 
ATOM     23  N   UNL     1     -22.776 -12.464  14.128  0.00  0.00    +0.379 N 
ATOM     24  C   UNL     1     -22.790 -11.005  14.308  0.00  0.00    -0.096 C 
ATOM     25  H   UNL     1     -23.698 -12.745  13.569  0.00  0.00    -0.082 HD
ATOM     26  C   UNL     1     -21.581 -12.955  13.323  0.00  0.00    -0.064 C 
ATOM     27  C   UNL     1     -21.622 -14.500  13.158  0.00  0.00    +0.066 C 
ENDBRANCH  19  20
ENDBRANCH  18  19
ENDBRANCH  14  15
ENDBRANCH  12  13
TORSDOF 6
ENDMDL
MODEL 2
REMARK VINA RESULT:      -8.8      6.430     13.463
REMARK  Name = C:\Users\Docking\Desktop\test protocol\1iep_ligandH.pdb
REMARK  8 active torsions:
REMARK  status: ('A' for Active; 'I' for Inactive)
REMARK    1  A    between atoms: _5  and  _11
REMARK    2  A    between atoms: _19  and  _21
REMARK    3  A    between atoms: _22  and  _66
REMARK    4  A    between atoms: _27  and  _30
REMARK    5  A    between atoms: _32  and  _33
REMARK    6  A    between atoms: _38  and  _43
REMARK    7  A    between atoms: _43  and  _46
REMARK    8  A    between atoms: _53  and  _55
REMARK                            x       y       z     vdW  Elec       q    Type
REMARK                         _______ _______ _______ _____ _____    ______ ____
ROOT
ATOM     10  C   UNL     1     -12.044 -15.218  19.984  0.00  0.00    +0.038 A 
ATOM     11  C   UNL     1     -11.476 -16.110  19.038  0.00  0.00    +0.047 A 
ATOM     12  C   UNL     1     -10.722 -17.279  19.464  0.00  0.00    +0.035 A 
ATOM     32  C   UNL     1     -10.568 -17.511  20.862  0.00  0.00    +0.024 A 
ATOM     33  C   UNL     1     -11.138 -16.614  21.837  0.00  0.00    +0.007 A 
ATOM     34  C   UNL     1     -11.880 -15.458  21.423  0.00  0.00    -0.029 A 
ATOM     35  C   UNL     1     -12.463 -14.528  22.512  0.00  0.00    +0.045 C 
ENDROOT
BRANCH  10   9
ATOM      4  C   UNL     1     -12.309 -10.634  18.587  0.00  0.00    +0.077 A 
ATOM      5  C   UNL     1     -10.912 -10.417  18.830  0.00  0.00    +0.048 A 
ATOM      6  C   UNL     1     -10.161 -11.510  19.320  0.00  0.00    +0.116 A 
ATOM      7  N   UNL     1     -10.773 -12.723  19.548  0.00  0.00    -0.223 NA
ATOM      8  C   UNL     1     -12.123 -12.898  19.305  0.00  0.00    +0.220 A 
ATOM      9  N   UNL     1     -12.758 -14.112  19.519  0.00  0.00    -0.283 N 
ATOM     36  H   UNL     1     -13.757 -14.198  19.334  0.00  0.00    +0.155 HD
ATOM     37  N   UNL     1     -12.862 -11.870  18.838  0.00  0.00    -0.214 NA
BRANCH   4   3
ATOM      1  C   UNL     1     -14.404  -8.357  16.194  0.00  0.00    +0.020 A 
ATOM      2  C   UNL     1     -13.502  -9.392  16.645  0.00  0.00    +0.013 A 
ATOM      3  C   UNL     1     -13.234  -9.578  18.066  0.00  0.00    +0.019 A 
ATOM     38  C   UNL     1     -13.900  -8.695  19.011  0.00  0.00    +0.120 A 
ATOM     39  N   UNL     1     -14.762  -7.706  18.547  0.00  0.00    -0.263 NA
ATOM     40  C   UNL     1     -15.027  -7.517  17.182  0.00  0.00    +0.111 A 
ENDBRANCH   4   3
ENDBRANCH  10   9
BRANCH  12  13
ATOM     13  N   UNL     1     -10.116 -18.214  18.550  0.00  0.00    -0.281 N 
ATOM     14  C   UNL     1     -10.693 -19.329  17.965  0.00  0.00    +0.248 C 
ATOM     30  O   UNL     1     -11.762 -19.814  18.307  0.00  0.00    -0.270 OA
ATOM     31  H   UNL     1      -9.142 -18.033  18.304  0.00  0.00    +0.155 HD
BRANCH  14  15
ATOM     15  C   UNL     1      -9.974 -20.013  16.847  0.00  0.00    +0.037 A 
ATOM     16  C   UNL     1     -10.395 -19.841  15.455  0.00  0.00    +0.013 A 
ATOM     17  C   UNL     1      -9.694 -20.525  14.397  0.00  0.00    +0.005 A 
ATOM     18  C   UNL     1      -8.563 -21.388  14.729  0.00  0.00    -0.033 A 
ATOM     28  C   UNL     1      -8.162 -21.536  16.119  0.00  0.00    +0.005 A 
ATOM     29  C   UNL     1      -8.848 -20.867  17.158  0.00  0.00    +0.013 A 
BRANCH  18  19
ATOM     19  C   UNL     1      -7.770 -22.173  13.668  0.00  0.00    +0.119 C 
BRANCH  19  20
ATOM     20  N   UNL     1      -8.311 -23.502  13.255  0.00  0.00    -0.302 NA
ATOM     21  C   UNL     1      -7.770 -24.639  14.127  0.00  0.00    +0.066 C 
ATOM     22  C   UNL     1      -8.364 -26.019  13.696  0.00  0.00    -0.064 C 
ATOM     23  N   UNL     1      -8.045 -26.270  12.221  0.00  0.00    +0.379 N 
ATOM     24  C   UNL     1      -8.551 -27.593  11.828  0.00  0.00    -0.096 C 
ATOM     25  H   UNL     1      -6.935 -26.286  12.113  0.00  0.00    -0.082 HD
ATOM     26  C   UNL     1      -8.577 -25.143  11.347  0.00  0.00    -0.064 C 
ATOM     27  C   UNL     1      -8.004 -23.772  11.802  0.00  0.00    +0.066 C 
ENDBRANCH  19  20
ENDBRANCH  18  19
ENDBRANCH  14  15
ENDBRANCH  12  13
TORSDOF 6
ENDMDL
MODEL 3
REMARK VINA RESULT:      -8.7     25.285     30.530
REMARK  Name = C:\Users\Docking\Desktop\test protocol\1iep_ligandH.pdb
REMARK  8 active torsions:
REMARK  status: ('A' for Active; 'I' for Inactive)
REMARK    1  A    between atoms: _5  and  _11
REMARK    2  A    between atoms: _19  and  _21
REMARK    3  A    between atoms: _22  and  _66
REMARK    4  A    between atoms: _27  and  _30
REMARK    5  A    between atoms: _32  and  _33
REMARK    6  A    between atoms: _38  and  _43
REMARK    7  A    between atoms: _43  and  _46
REMARK    8  A    between atoms: _53  and  _55
REMARK                            x       y       z     vdW  Elec       q    Type
REMARK                         _______ _______ _______ _____ _____    ______ ____
ROOT
ATOM     10  C   UNL     1       9.969 -15.722  -2.909  0.00  0.00    +0.038 A 
ATOM     11  C   UNL     1       9.365 -14.581  -3.497  0.00  0.00    +0.047 A 
ATOM     12  C   UNL     1      10.091 -13.751  -4.446  0.00  0.00    +0.035 A 
ATOM     32  C   UNL     1      11.429 -14.113  -4.776  0.00  0.00    +0.024 A 
ATOM     33  C   UNL     1      12.059 -15.269  -4.187  0.00  0.00    +0.007 A 
ATOM     34  C   UNL     1      11.349 -16.090  -3.248  0.00  0.00    -0.029 A 
ATOM     35  C   UNL     1      12.076 -17.314  -2.643  0.00  0.00    +0.045 C 
ENDROOT
BRANCH  10   9
ATOM      4  C   UNL     1       6.733 -19.117  -1.891  0.00  0.00    +0.077 A 
ATOM      5  C   UNL     1       6.481 -19.377  -3.279  0.00  0.00    +0.048 A 
ATOM      6  C   UNL     1       7.199 -18.610  -4.223  0.00  0.00    +0.116 A 
ATOM      7  N   UNL     1       8.101 -17.657  -3.800  0.00  0.00    -0.223 NA
ATOM      8  C   UNL     1       8.319 -17.431  -2.453  0.00  0.00    +0.220 A 
ATOM      9  N   UNL     1       9.226 -16.484  -2.005  0.00  0.00    -0.283 N 
ATOM     36  H   UNL     1       9.353 -16.342  -1.003  0.00  0.00    +0.155 HD
ATOM     37  N   UNL     1       7.644 -18.149  -1.532  0.00  0.00    -0.214 NA
BRANCH   4   3
ATOM      1  C   UNL     1       6.082 -21.218   1.344  0.00  0.00    +0.020 A 
ATOM      2  C   UNL     1       6.786 -20.527   0.288  0.00  0.00    +0.013 A 
ATOM      3  C   UNL     1       6.054 -19.848  -0.774  0.00  0.00    +0.019 A 
ATOM     38  C   UNL     1       4.600 -19.885  -0.737  0.00  0.00    +0.120 A 
ATOM     39  N   UNL     1       3.950 -20.560   0.292  0.00  0.00    -0.263 NA
ATOM     40  C   UNL     1       4.643 -21.218   1.318  0.00  0.00    +0.111 A 
ENDBRANCH   4   3
ENDBRANCH  10   9
BRANCH  12  13
ATOM     13  N   UNL     1       9.532 -12.576  -5.069  0.00  0.00    -0.281 N 
ATOM     14  C   UNL     1       8.621 -12.516  -6.111  0.00  0.00    +0.248 C 
ATOM     30  O   UNL     1       8.308 -13.468  -6.811  0.00  0.00    -0.270 OA
ATOM     31  H   UNL     1       9.847 -11.680  -4.697  0.00  0.00    +0.155 HD
BRANCH  14  15
ATOM     15  C   UNL     1       7.975 -11.207  -6.430  0.00  0.00    +0.037 A 
ATOM     16  C   UNL     1       6.600 -11.141  -6.933  0.00  0.00    +0.013 A 
ATOM     17  C   UNL     1       6.007  -9.866  -7.249  0.00  0.00    +0.005 A 
ATOM     18  C   UNL     1       6.788  -8.646  -7.062  0.00  0.00    -0.033 A 
ATOM     28  C   UNL     1       8.148  -8.740  -6.558  0.00  0.00    +0.005 A 
ATOM     29  C   UNL     1       8.733  -9.988  -6.247  0.00  0.00    +0.013 A 
BRANCH  18  19
ATOM     19  C   UNL     1       6.243  -7.244  -7.394  0.00  0.00    +0.119 C 
BRANCH  19  20
ATOM     20  N   UNL     1       4.895  -6.890  -6.856  0.00  0.00    -0.302 NA
ATOM     21  C   UNL     1       3.819  -6.905  -7.946  0.00  0.00    +0.066 C 
ATOM     22  C   UNL     1       2.413  -6.554  -7.361  0.00  0.00    -0.064 C 
ATOM     23  N   UNL     1       2.473  -5.186  -6.680  0.00  0.00    +0.379 N 
ATOM     24  C   UNL     1       1.138  -4.828  -6.180  0.00  0.00    -0.096 C 
ATOM     25  H   UNL     1       2.758  -4.436  -7.453  0.00  0.00    -0.082 HD
ATOM     26  C   UNL     1       3.543  -5.161  -5.597  0.00  0.00    -0.064 C 
ATOM     27  C   UNL     1       4.931  -5.540  -6.182  0.00  0.00    +0.066 C 
ENDBRANCH  19  20
ENDBRANCH  18  19
ENDBRANCH  14  15
ENDBRANCH  12  13
TORSDOF 6
ENDMDL
MODEL 4
REMARK VINA RESULT:      -8.7     24.897     30.869
REMARK  Name = C:\Users\Docking\Desktop\test protocol\1iep_ligandH.pdb
REMARK  8 active torsions:
REMARK  status: ('A' for Active; 'I' for Inactive)
REMARK    1  A    between atoms: _5  and  _11
REMARK    2  A    between atoms: _19  and  _21
REMARK    3  A    between atoms: _22  and  _66
REMARK    4  A    between atoms: _27  and  _30
REMARK    5  A    between atoms: _32  and  _33
REMARK    6  A    between atoms: _38  and  _43
REMARK    7  A    between atoms: _43  and  _46
REMARK    8  A    between atoms: _53  and  _55
REMARK                            x       y       z     vdW  Elec       q    Type
REMARK                         _______ _______ _______ _____ _____    ______ ____
ROOT
ATOM     10  C   UNL     1       8.438 -18.876  -4.712  0.00  0.00    +0.038 A 
ATOM     11  C   UNL     1       8.457 -17.482  -4.969  0.00  0.00    +0.047 A 
ATOM     12  C   UNL     1       9.509 -16.879  -5.774  0.00  0.00    +0.035 A 
ATOM     32  C   UNL     1      10.524 -17.728  -6.304  0.00  0.00    +0.024 A 
ATOM     33  C   UNL     1      10.520 -19.148  -6.052  0.00  0.00    +0.007 A 
ATOM     34  C   UNL     1       9.487 -19.747  -5.256  0.00  0.00    -0.029 A 
ATOM     35  C   UNL     1       9.536 -21.273  -5.012  0.00  0.00    +0.045 C 
ENDROOT
BRANCH  10   9
ATOM      4  C   UNL     1       6.544 -20.133  -0.484  0.00  0.00    +0.077 A 
ATOM      5  C   UNL     1       7.724 -19.735   0.229  0.00  0.00    +0.048 A 
ATOM      6  C   UNL     1       8.798 -19.219  -0.530  0.00  0.00    +0.116 A 
ATOM      7  N   UNL     1       8.689 -19.112  -1.899  0.00  0.00    -0.223 NA
ATOM      8  C   UNL     1       7.538 -19.507  -2.556  0.00  0.00    +0.220 A 
ATOM      9  N   UNL     1       7.405 -19.401  -3.932  0.00  0.00    -0.283 N 
ATOM     36  H   UNL     1       6.542 -19.710  -4.380  0.00  0.00    +0.155 HD
ATOM     37  N   UNL     1       6.499 -20.004  -1.854  0.00  0.00    -0.214 NA
BRANCH   4   3
ATOM      1  C   UNL     1       4.178 -22.106   1.926  0.00  0.00    +0.020 A 
ATOM      2  C   UNL     1       5.386 -21.593   1.323  0.00  0.00    +0.013 A 
ATOM      3  C   UNL     1       5.324 -20.694   0.177  0.00  0.00    +0.019 A 
ATOM     38  C   UNL     1       4.013 -20.332  -0.338  0.00  0.00    +0.120 A 
ATOM     39  N   UNL     1       2.866 -20.843   0.261  0.00  0.00    -0.263 NA
ATOM     40  C   UNL     1       2.914 -21.710   1.363  0.00  0.00    +0.111 A 
ENDBRANCH   4   3
ENDBRANCH  10   9
BRANCH  12  13
ATOM     13  N   UNL     1       9.585 -15.469  -6.062  0.00  0.00    -0.281 N 
ATOM     14  C   UNL     1       8.979 -14.777  -7.098  0.00  0.00    +0.248 C 
ATOM     30  O   UNL     1       8.448 -15.305  -8.064  0.00  0.00    -0.270 OA
ATOM     31  H   UNL     1      10.155 -14.912  -5.425  0.00  0.00    +0.155 HD
BRANCH  14  15
ATOM     15  C   UNL     1       8.974 -13.283  -7.063  0.00  0.00    +0.037 A 
ATOM     16  C   UNL     1       9.004 -12.552  -5.793  0.00  0.00    +0.013 A 
ATOM     17  C   UNL     1       8.982 -11.111  -5.787  0.00  0.00    +0.005 A 
ATOM     18  C   UNL     1       8.930 -10.390  -7.057  0.00  0.00    -0.033 A 
ATOM     28  C   UNL     1       8.905 -11.140  -8.302  0.00  0.00    +0.005 A 
ATOM     29  C   UNL     1       8.927 -12.553  -8.312  0.00  0.00    +0.013 A 
BRANCH  18  19
ATOM     19  C   UNL     1       8.881  -8.853  -7.145  0.00  0.00    +0.119 C 
BRANCH  19  20
ATOM     20  N   UNL     1       7.703  -8.170  -6.532  0.00  0.00    -0.302 NA
ATOM     21  C   UNL     1       6.377  -8.746  -7.038  0.00  0.00    +0.066 C 
ATOM     22  C   UNL     1       5.156  -8.036  -6.369  0.00  0.00    -0.064 C 
ATOM     23  N   UNL     1       5.232  -6.532  -6.642  0.00  0.00    +0.379 N 
ATOM     24  C   UNL     1       4.054  -5.869  -6.064  0.00  0.00    -0.096 C 
ATOM     25  H   UNL     1       5.195  -6.387  -7.747  0.00  0.00    -0.082 HD
ATOM     26  C   UNL     1       6.548  -5.952  -6.145  0.00  0.00    -0.064 C 
ATOM     27  C   UNL     1       7.756  -6.685  -6.793  0.00  0.00    +0.066 C 
ENDBRANCH  19  20
ENDBRANCH  18  19
ENDBRANCH  14  15
ENDBRANCH  12  13
TORSDOF 6
ENDMDL
MODEL 5
REMARK VINA RESULT:      -8.7      6.251      8.295
REMARK  Name = C:\Users\Docking\Desktop\test protocol\1iep_ligandH.pdb
REMARK  8 active torsions:
REMARK  status: ('A' for Active; 'I' for Inactive)
REMARK    1  A    between atoms: _5  and  _11
REMARK    2  A    between atoms: _19  and  _21
REMARK    3  A    between atoms: _22  and  _66
REMARK    4  A    between atoms: _27  and  _30
REMARK    5  A    between atoms: _32  and  _33
REMARK    6  A    between atoms: _38  and  _43
REMARK    7  A    between atoms: _43  and  _46
REMARK    8  A    between atoms: _53  and  _55
REMARK                            x       y       z     vdW  Elec       q    Type
REMARK                         _______ _______ _______ _____ _____    ______ ____
ROOT
ATOM     10  C   UNL     1     -11.890 -21.169  17.130  0.00  0.00    +0.038 A 
ATOM     11  C   UNL     1     -11.764 -19.756  17.119  0.00  0.00    +0.047 A 
ATOM     12  C   UNL     1     -12.037 -18.967  18.310  0.00  0.00    +0.035 A 
ATOM     32  C   UNL     1     -12.433 -19.650  19.497  0.00  0.00    +0.024 A 
ATOM     33  C   UNL     1     -12.566 -21.085  19.525  0.00  0.00    +0.007 A 
ATOM     34  C   UNL     1     -12.301 -21.869  18.352  0.00  0.00    -0.029 A 
ATOM     35  C   UNL     1     -12.467 -23.404  18.439  0.00  0.00    +0.045 C 
ENDROOT
BRANCH  10   9
ATOM      4  C   UNL     1      -8.855 -22.857  13.817  0.00  0.00    +0.077 A 
ATOM      5  C   UNL     1      -7.723 -22.256  14.462  0.00  0.00    +0.048 A 
ATOM      6  C   UNL     1      -7.966 -21.514  15.639  0.00  0.00    +0.116 A 
ATOM      7  N   UNL     1      -9.249 -21.390  16.127  0.00  0.00    -0.223 NA
ATOM      8  C   UNL     1     -10.318 -21.981  15.480  0.00  0.00    +0.220 A 
ATOM      9  N   UNL     1     -11.615 -21.876  15.957  0.00  0.00    -0.283 N 
ATOM     36  H   UNL     1     -12.378 -22.321  15.447  0.00  0.00    +0.155 HD
ATOM     37  N   UNL     1     -10.112 -22.694  14.352  0.00  0.00    -0.214 NA
BRANCH   4   3
ATOM      1  C   UNL     1      -7.848 -24.132  10.258  0.00  0.00    +0.020 A 
ATOM      2  C   UNL     1      -7.903 -23.308  11.444  0.00  0.00    +0.013 A 
ATOM      3  C   UNL     1      -8.759 -23.674  12.566  0.00  0.00    +0.019 A 
ATOM     38  C   UNL     1      -9.552 -24.889  12.455  0.00  0.00    +0.120 A 
ATOM     39  N   UNL     1      -9.479 -25.662  11.301  0.00  0.00    -0.263 NA
ATOM     40  C   UNL     1      -8.660 -25.319  10.214  0.00  0.00    +0.111 A 
ENDBRANCH   4   3
ENDBRANCH  10   9
BRANCH  12  13
ATOM     13  N   UNL     1     -11.934 -17.530  18.357  0.00  0.00    -0.281 N 
ATOM     14  C   UNL     1     -12.942 -16.611  18.598  0.00  0.00    +0.248 C 
ATOM     30  O   UNL     1     -14.135 -16.878  18.599  0.00  0.00    -0.270 OA
ATOM     31  H   UNL     1     -11.005 -17.142  18.191  0.00  0.00    +0.155 HD
BRANCH  14  15
ATOM     15  C   UNL     1     -12.574 -15.187  18.862  0.00  0.00    +0.037 A 
ATOM     16  C   UNL     1     -11.186 -14.797  19.127  0.00  0.00    +0.013 A 
ATOM     17  C   UNL     1     -10.861 -13.419  19.395  0.00  0.00    +0.005 A 
ATOM     18  C   UNL     1     -11.925 -12.419  19.398  0.00  0.00    -0.033 A 
ATOM     28  C   UNL     1     -13.292 -12.832  19.126  0.00  0.00    +0.005 A 
ATOM     29  C   UNL     1     -13.616 -14.182  18.864  0.00  0.00    +0.013 A 
BRANCH  18  19
ATOM     19  C   UNL     1     -11.673 -10.929  19.695  0.00  0.00    +0.119 C 
BRANCH  19  20
ATOM     20  N   UNL     1     -10.327 -10.556  20.223  0.00  0.00    -0.302 NA
ATOM     21  C   UNL     1     -10.411  -9.924  21.616  0.00  0.00    +0.066 C 
ATOM     22  C   UNL     1      -8.993  -9.560  22.163  0.00  0.00    -0.064 C 
ATOM     23  N   UNL     1      -8.297  -8.616  21.181  0.00  0.00    +0.379 N 
ATOM     24  C   UNL     1      -6.986  -8.226  21.720  0.00  0.00    -0.096 C 
ATOM     25  H   UNL     1      -8.918  -7.694  21.101  0.00  0.00    -0.082 HD
ATOM     26  C   UNL     1      -8.211  -9.236  19.793  0.00  0.00    -0.064 C 
ATOM     27  C   UNL     1      -9.624  -9.620  19.271  0.00  0.00    +0.066 C 
ENDBRANCH  19  20
ENDBRANCH  18  19
ENDBRANCH  14  15
ENDBRANCH  12  13
TORSDOF 6
ENDMDL
