MODEL 1
REMARK VINA RESULT:      -8.4      0.000      0.000
REMARK  Name = C:\Users\Docking\Desktop\test protocol\1iep_ligandH.pdb
REMARK  8 active torsions:
REMARK  status: ('A' for Active; 'I' for Inactive)
REMARK    1  A    between atoms: _5  and  _11
REMARK    2  A    between atoms: _19  and  _21
REMARK    3  A    between atoms: _22  and  _66
REMARK    4  A    between atoms: _27  and  _30
REMARK    5  A    between atoms: _32  and  _33
REMARK    6  A    between atoms: _38  and  _43
REMARK    7  A    between atoms: _43  and  _46
REMARK    8  A    between atoms: _53  and  _55
REMARK                            x       y       z     vdW  Elec       q    Type
REMARK                         _______ _______ _______ _____ _____    ______ ____
ROOT
ATOM     10  C   UNL     1      20.049  25.312  14.820  0.00  0.00    +0.038 A 
ATOM     11  C   UNL     1      21.446  25.553  14.869  0.00  0.00    +0.047 A 
ATOM     12  C   UNL     1      21.977  26.907  14.870  0.00  0.00    +0.035 A 
ATOM     32  C   UNL     1      21.056  27.994  14.822  0.00  0.00    +0.024 A 
ATOM     33  C   UNL     1      19.633  27.768  14.771  0.00  0.00    +0.007 A 
ATOM     34  C   UNL     1      19.103  26.434  14.768  0.00  0.00    -0.029 A 
ATOM     35  C   UNL     1      17.569  26.251  14.705  0.00  0.00    +0.045 C 
ENDROOT
BRANCH  10   9
ATOM      4  C   UNL     1      18.577  21.340  12.564  0.00  0.00    +0.077 A 
ATOM      5  C   UNL     1      18.699  21.956  11.274  0.00  0.00    +0.048 A 
ATOM      6  C   UNL     1      19.137  23.299  11.235  0.00  0.00    +0.116 A 
ATOM      7  N   UNL     1      19.429  23.966  12.405  0.00  0.00    -0.223 NA
ATOM      8  C   UNL     1      19.299  23.343  13.633  0.00  0.00    +0.220 A 
ATOM      9  N   UNL     1      19.594  23.992  14.822  0.00  0.00    -0.283 N 
ATOM     36  H   UNL     1      19.478  23.500  15.707  0.00  0.00    +0.155 HD
ATOM     37  N   UNL     1      18.881  22.061  13.697  0.00  0.00    -0.214 NA
BRANCH   4   3
ATOM      1  C   UNL     1      16.624  18.184  13.800  0.00  0.00    +0.020 A 
ATOM      2  C   UNL     1      17.016  19.565  13.637  0.00  0.00    +0.013 A 
ATOM      3  C   UNL     1      18.130  19.926  12.769  0.00  0.00    +0.019 A 
ATOM     38  C   UNL     1      18.832  18.857  12.075  0.00  0.00    +0.120 A 
ATOM     39  N   UNL     1      18.433  17.536  12.253  0.00  0.00    -0.263 NA
ATOM     40  C   UNL     1      17.363  17.177  13.086  0.00  0.00    +0.111 A 
ENDBRANCH   4   3
ENDBRANCH  10   9
BRANCH  12  13
ATOM     13  N   UNL     1      23.386  27.212  14.910  0.00  0.00    -0.281 N 
ATOM     14  C   UNL     1      24.241  27.143  15.997  0.00  0.00    +0.248 C 
ATOM     30  O   UNL     1      23.877  27.011  17.156  0.00  0.00    -0.270 OA
ATOM     31  H   UNL     1      23.803  27.517  14.030  0.00  0.00    +0.155 HD
BRANCH  14  15
ATOM     15  C   UNL     1      25.714  27.249  15.765  0.00  0.00    +0.037 A 
ATOM     16  C   UNL     1      26.286  28.372  15.018  0.00  0.00    +0.013 A 
ATOM     17  C   UNL     1      27.708  28.442  14.793  0.00  0.00    +0.005 A 
ATOM     18  C   UNL     1      28.569  27.385  15.319  0.00  0.00    -0.033 A 
ATOM     28  C   UNL     1      27.975  26.285  16.061  0.00  0.00    +0.005 A 
ATOM     29  C   UNL     1      26.582  26.213  16.282  0.00  0.00    +0.013 A 
BRANCH  18  19
ATOM     19  C   UNL     1      30.095  27.366  15.109  0.00  0.00    +0.119 C 
BRANCH  19  20
ATOM     20  N   UNL     1      30.628  26.461  14.048  0.00  0.00    -0.302 NA
ATOM     21  C   UNL     1      31.490  25.337  14.632  0.00  0.00    +0.066 C 
ATOM     22  C   UNL     1      32.021  24.386  13.511  0.00  0.00    -0.064 C 
ATOM     23  N   UNL     1      32.814  25.201  12.488  0.00  0.00    +0.379 N 
ATOM     24  C   UNL     1      33.364  24.301  11.464  0.00  0.00    -0.096 C 
ATOM     25  H   UNL     1      33.673  25.670  13.022  0.00  0.00    -0.082 HD
ATOM     26  C   UNL     1      31.966  26.322  11.904  0.00  0.00    -0.064 C 
ATOM     27  C   UNL     1      31.419  27.244  13.030  0.00  0.00    +0.066 C 
ENDBRANCH  19  20
ENDBRANCH  18  19
ENDBRANCH  14  15
ENDBRANCH  12  13
TORSDOF 6
ENDMDL
MODEL 2
REMARK VINA RESULT:      -8.3      7.295     15.080
REMARK  Name = C:\Users\Docking\Desktop\test protocol\1iep_ligandH.pdb
REMARK  8 active torsions:
REMARK  status: ('A' for Active; 'I' for Inactive)
REMARK    1  A    between atoms: _5  and  _11
REMARK    2  A    between atoms: _19  and  _21
REMARK    3  A    between atoms: _22  and  _66
REMARK    4  A    between atoms: _27  and  _30
REMARK    5  A    between atoms: _32  and  _33
REMARK    6  A    between atoms: _38  and  _43
REMARK    7  A    between atoms: _43  and  _46
REMARK    8  A    between atoms: _53  and  _55
REMARK                            x       y       z     vdW  Elec       q    Type
REMARK                         _______ _______ _______ _____ _____    ______ ____
ROOT
ATOM     10  C   UNL     1      17.115  22.970  15.095  0.00  0.00    +0.038 A 
ATOM     11  C   UNL     1      15.936  23.380  15.768  0.00  0.00    +0.047 A 
ATOM     12  C   UNL     1      14.627  22.895  15.357  0.00  0.00    +0.035 A 
ATOM     32  C   UNL     1      14.557  21.990  14.258  0.00  0.00    +0.024 A 
ATOM     33  C   UNL     1      15.745  21.563  13.562  0.00  0.00    +0.007 A 
ATOM     34  C   UNL     1      17.038  22.040  13.961  0.00  0.00    -0.029 A 
ATOM     35  C   UNL     1      18.278  21.554  13.175  0.00  0.00    +0.045 C 
ENDROOT
BRANCH  10   9
ATOM      4  C   UNL     1      20.459  26.406  15.303  0.00  0.00    +0.077 A 
ATOM      5  C   UNL     1      19.703  27.275  14.447  0.00  0.00    +0.048 A 
ATOM      6  C   UNL     1      18.463  26.797  13.969  0.00  0.00    +0.116 A 
ATOM      7  N   UNL     1      18.020  25.542  14.327  0.00  0.00    -0.223 NA
ATOM      8  C   UNL     1      18.774  24.729  15.153  0.00  0.00    +0.220 A 
ATOM      9  N   UNL     1      18.345  23.466  15.532  0.00  0.00    -0.283 N 
ATOM     36  H   UNL     1      18.934  22.894  16.136  0.00  0.00    +0.155 HD
ATOM     37  N   UNL     1      19.963  25.162  15.621  0.00  0.00    -0.214 NA
BRANCH   4   3
ATOM      1  C   UNL     1      24.222  27.399  15.695  0.00  0.00    +0.020 A 
ATOM      2  C   UNL     1      22.963  27.052  15.077  0.00  0.00    +0.013 A 
ATOM      3  C   UNL     1      21.787  26.770  15.891  0.00  0.00    +0.019 A 
ATOM     38  C   UNL     1      21.920  26.849  17.338  0.00  0.00    +0.120 A 
ATOM     39  N   UNL     1      23.145  27.184  17.904  0.00  0.00    -0.263 NA
ATOM     40  C   UNL     1      24.284  27.456  17.131  0.00  0.00    +0.111 A 
ENDBRANCH   4   3
ENDBRANCH  10   9
BRANCH  12  13
ATOM     13  N   UNL     1      13.395  23.283  15.997  0.00  0.00    -0.281 N 
ATOM     14  C   UNL     1      12.558  22.503  16.777  0.00  0.00    +0.248 C 
ATOM     30  O   UNL     1      12.633  21.286  16.867  0.00  0.00    -0.270 OA
ATOM     31  H   UNL     1      13.104  24.251  15.858  0.00  0.00    +0.155 HD
BRANCH  14  15
ATOM     15  C   UNL     1      11.471  23.168  17.559  0.00  0.00    +0.037 A 
ATOM     16  C   UNL     1      10.134  22.577  17.656  0.00  0.00    +0.013 A 
ATOM     17  C   UNL     1       9.099  23.248  18.402  0.00  0.00    +0.005 A 
ATOM     18  C   UNL     1       9.399  24.518  19.058  0.00  0.00    -0.033 A 
ATOM     28  C   UNL     1      10.735  25.079  18.950  0.00  0.00    +0.005 A 
ATOM     29  C   UNL     1      11.751  24.425  18.219  0.00  0.00    +0.013 A 
BRANCH  18  19
ATOM     19  C   UNL     1       8.350  25.314  19.858  0.00  0.00    +0.119 C 
BRANCH  19  20
ATOM     20  N   UNL     1       8.844  26.147  20.994  0.00  0.00    -0.302 NA
ATOM     21  C   UNL     1       8.440  25.564  22.352  0.00  0.00    +0.066 C 
ATOM     22  C   UNL     1       8.985  26.436  23.530  0.00  0.00    -0.064 C 
ATOM     23  N   UNL     1       8.470  27.869  23.381  0.00  0.00    +0.379 N 
ATOM     24  C   UNL     1       8.933  28.677  24.518  0.00  0.00    -0.096 C 
ATOM     25  H   UNL     1       7.357  27.834  23.421  0.00  0.00    -0.082 HD
ATOM     26  C   UNL     1       8.866  28.455  22.032  0.00  0.00    -0.064 C 
ATOM     27  C   UNL     1       8.345  27.565  20.869  0.00  0.00    +0.066 C 
ENDBRANCH  19  20
ENDBRANCH  18  19
ENDBRANCH  14  15
ENDBRANCH  12  13
TORSDOF 6
ENDMDL
MODEL 3
REMARK VINA RESULT:      -8.2      9.414     14.162
REMARK  Name = C:\Users\Docking\Desktop\test protocol\1iep_ligandH.pdb
REMARK  8 active torsions:
REMARK  status: ('A' for Active; 'I' for Inactive)
REMARK    1  A    between atoms: _5  and  _11
REMARK    2  A    between atoms: _19  and  _21
REMARK    3  A    between atoms: _22  and  _66
REMARK    4  A    between atoms: _27  and  _30
REMARK    5  A    between atoms: _32  and  _33
REMARK    6  A    between atoms: _38  and  _43
REMARK    7  A    between atoms: _43  and  _46
REMARK    8  A    between atoms: _53  and  _55
REMARK                            x       y       z     vdW  Elec       q    Type
REMARK                         _______ _______ _______ _____ _____    ______ ____
ROOT
ATOM     10  C   UNL     1       9.307  25.617  19.418  0.00  0.00    +0.038 A 
ATOM     11  C   UNL     1      10.591  25.334  18.886  0.00  0.00    +0.047 A 
ATOM     12  C   UNL     1      11.144  23.989  18.933  0.00  0.00    +0.035 A 
ATOM     32  C   UNL     1      10.361  22.956  19.525  0.00  0.00    +0.024 A 
ATOM     33  C   UNL     1       9.054  23.227  20.071  0.00  0.00    +0.007 A 
ATOM     34  C   UNL     1       8.504  24.552  20.031  0.00  0.00    -0.029 A 
ATOM     35  C   UNL     1       7.101  24.785  20.637  0.00  0.00    +0.045 C 
ENDROOT
BRANCH  10   9
ATOM      4  C   UNL     1       8.420  29.913  21.367  0.00  0.00    +0.077 A 
ATOM      5  C   UNL     1       8.936  29.507  22.642  0.00  0.00    +0.048 A 
ATOM      6  C   UNL     1       9.414  28.182  22.757  0.00  0.00    +0.116 A 
ATOM      7  N   UNL     1       9.374  27.335  21.670  0.00  0.00    -0.223 NA
ATOM      8  C   UNL     1       8.867  27.758  20.455  0.00  0.00    +0.220 A 
ATOM      9  N   UNL     1       8.824  26.926  19.347  0.00  0.00    -0.283 N 
ATOM     36  H   UNL     1       8.436  27.273  18.470  0.00  0.00    +0.155 HD
ATOM     37  N   UNL     1       8.404  29.018  20.320  0.00  0.00    -0.214 NA
BRANCH   4   3
ATOM      1  C   UNL     1       6.378  33.241  21.601  0.00  0.00    +0.020 A 
ATOM      2  C   UNL     1       6.863  31.917  21.915  0.00  0.00    +0.013 A 
ATOM      3  C   UNL     1       7.881  31.282  21.087  0.00  0.00    +0.019 A 
ATOM     38  C   UNL     1       8.392  32.020  19.942  0.00  0.00    +0.120 A 
ATOM     39  N   UNL     1       7.905  33.293  19.664  0.00  0.00    -0.263 NA
ATOM     40  C   UNL     1       6.924  33.913  20.452  0.00  0.00    +0.111 A 
ENDBRANCH   4   3
ENDBRANCH  10   9
BRANCH  12  13
ATOM     13  N   UNL     1      12.445  23.643  18.416  0.00  0.00    -0.281 N 
ATOM     14  C   UNL     1      12.743  22.853  17.318  0.00  0.00    +0.248 C 
ATOM     30  O   UNL     1      11.935  22.146  16.736  0.00  0.00    -0.270 OA
ATOM     31  H   UNL     1      13.244  24.027  18.922  0.00  0.00    +0.155 HD
BRANCH  14  15
ATOM     15  C   UNL     1      14.145  22.835  16.801  0.00  0.00    +0.037 A 
ATOM     16  C   UNL     1      15.285  23.096  17.684  0.00  0.00    +0.013 A 
ATOM     17  C   UNL     1      16.626  23.090  17.155  0.00  0.00    +0.005 A 
ATOM     18  C   UNL     1      16.835  22.820  15.735  0.00  0.00    -0.033 A 
ATOM     28  C   UNL     1      15.687  22.559  14.882  0.00  0.00    +0.005 A 
ATOM     29  C   UNL     1      14.371  22.566  15.397  0.00  0.00    +0.013 A 
BRANCH  18  19
ATOM     19  C   UNL     1      18.229  22.814  15.081  0.00  0.00    +0.119 C 
BRANCH  19  20
ATOM     20  N   UNL     1      19.017  24.081  15.139  0.00  0.00    -0.302 NA
ATOM     21  C   UNL     1      18.194  25.291  14.686  0.00  0.00    +0.066 C 
ATOM     22  C   UNL     1      19.027  26.611  14.775  0.00  0.00    -0.064 C 
ATOM     23  N   UNL     1      20.293  26.470  13.929  0.00  0.00    +0.379 N 
ATOM     24  C   UNL     1      21.049  27.730  13.963  0.00  0.00    -0.096 C 
ATOM     25  H   UNL     1      19.977  26.294  12.874  0.00  0.00    -0.082 HD
ATOM     26  C   UNL     1      21.116  25.268  14.370  0.00  0.00    -0.064 C 
ATOM     27  C   UNL     1      20.270  23.966  14.306  0.00  0.00    +0.066 C 
ENDBRANCH  19  20
ENDBRANCH  18  19
ENDBRANCH  14  15
ENDBRANCH  12  13
TORSDOF 6
ENDMDL
MODEL 4
REMARK VINA RESULT:      -8.1      7.874     15.748
REMARK  Name = C:\Users\Docking\Desktop\test protocol\1iep_ligandH.pdb
REMARK  8 active torsions:
REMARK  status: ('A' for Active; 'I' for Inactive)
REMARK    1  A    between atoms: _5  and  _11
REMARK    2  A    between atoms: _19  and  _21
REMARK    3  A    between atoms: _22  and  _66
REMARK    4  A    between atoms: _27  and  _30
REMARK    5  A    between atoms: _32  and  _33
REMARK    6  A    between atoms: _38  and  _43
REMARK    7  A    between atoms: _43  and  _46
REMARK    8  A    between atoms: _53  and  _55
REMARK                            x       y       z     vdW  Elec       q    Type
REMARK                         _______ _______ _______ _____ _____    ______ ____
ROOT
ATOM     10  C   UNL     1      17.024  22.977  15.156  0.00  0.00    +0.038 A 
ATOM     11  C   UNL     1      15.841  23.386  15.822  0.00  0.00    +0.047 A 
ATOM     12  C   UNL     1      14.535  22.905  15.400  0.00  0.00    +0.035 A 
ATOM     32  C   UNL     1      14.470  22.005  14.296  0.00  0.00    +0.024 A 
ATOM     33  C   UNL     1      15.663  21.580  13.606  0.00  0.00    +0.007 A 
ATOM     34  C   UNL     1      16.954  22.053  14.017  0.00  0.00    -0.029 A 
ATOM     35  C   UNL     1      18.198  21.569  13.236  0.00  0.00    +0.045 C 
ENDROOT
BRANCH  10   9
ATOM      4  C   UNL     1      20.408  26.376  15.338  0.00  0.00    +0.077 A 
ATOM      5  C   UNL     1      19.680  27.231  14.446  0.00  0.00    +0.048 A 
ATOM      6  C   UNL     1      18.443  26.756  13.956  0.00  0.00    +0.116 A 
ATOM      7  N   UNL     1      17.977  25.517  14.338  0.00  0.00    -0.223 NA
ATOM      8  C   UNL     1      18.705  24.716  15.199  0.00  0.00    +0.220 A 
ATOM      9  N   UNL     1      18.252  23.469  15.603  0.00  0.00    -0.283 N 
ATOM     36  H   UNL     1      18.822  22.906  16.234  0.00  0.00    +0.155 HD
ATOM     37  N   UNL     1      19.890  25.146  15.680  0.00  0.00    -0.214 NA
BRANCH   4   3
ATOM      1  C   UNL     1      24.179  27.315  15.779  0.00  0.00    +0.020 A 
ATOM      2  C   UNL     1      22.928  26.967  15.146  0.00  0.00    +0.013 A 
ATOM      3  C   UNL     1      21.729  26.738  15.942  0.00  0.00    +0.019 A 
ATOM     38  C   UNL     1      21.830  26.872  17.388  0.00  0.00    +0.120 A 
ATOM     39  N   UNL     1      23.049  27.207  17.969  0.00  0.00    -0.263 NA
ATOM     40  C   UNL     1      24.210  27.428  17.213  0.00  0.00    +0.111 A 
ENDBRANCH   4   3
ENDBRANCH  10   9
BRANCH  12  13
ATOM     13  N   UNL     1      13.299  23.291  16.034  0.00  0.00    -0.281 N 
ATOM     14  C   UNL     1      12.543  22.566  16.940  0.00  0.00    +0.248 C 
ATOM     30  O   UNL     1      12.705  21.379  17.182  0.00  0.00    -0.270 OA
ATOM     31  H   UNL     1      12.937  24.212  15.784  0.00  0.00    +0.155 HD
BRANCH  14  15
ATOM     15  C   UNL     1      11.437  23.254  17.672  0.00  0.00    +0.037 A 
ATOM     16  C   UNL     1      10.113  22.640  17.802  0.00  0.00    +0.013 A 
ATOM     17  C   UNL     1       9.059  23.333  18.500  0.00  0.00    +0.005 A 
ATOM     18  C   UNL     1       9.326  24.650  19.074  0.00  0.00    -0.033 A 
ATOM     28  C   UNL     1      10.649  25.234  18.935  0.00  0.00    +0.005 A 
ATOM     29  C   UNL     1      11.685  24.558  18.251  0.00  0.00    +0.013 A 
BRANCH  18  19
ATOM     19  C   UNL     1       8.255  25.471  19.816  0.00  0.00    +0.119 C 
BRANCH  19  20
ATOM     20  N   UNL     1       7.712  24.900  21.085  0.00  0.00    -0.302 NA
ATOM     21  C   UNL     1       6.388  24.163  20.863  0.00  0.00    +0.066 C 
ATOM     22  C   UNL     1       5.846  23.552  22.196  0.00  0.00    -0.064 C 
ATOM     23  N   UNL     1       5.680  24.664  23.233  0.00  0.00    +0.379 N 
ATOM     24  C   UNL     1       5.117  24.103  24.469  0.00  0.00    -0.096 C 
ATOM     25  H   UNL     1       4.944  25.397  22.828  0.00  0.00    -0.082 HD
ATOM     26  C   UNL     1       6.992  25.404  23.458  0.00  0.00    -0.064 C 
ATOM     27  C   UNL     1       7.536  25.982  22.122  0.00  0.00    +0.066 C 
ENDBRANCH  19  20
ENDBRANCH  18  19
ENDBRANCH  14  15
ENDBRANCH  12  13
TORSDOF 6
ENDMDL
MODEL 5
REMARK VINA RESULT:      -8.0     20.058     24.696
REMARK  Name = C:\Users\Docking\Desktop\test protocol\1iep_ligandH.pdb
REMARK  8 active torsions:
REMARK  status: ('A' for Active; 'I' for Inactive)
REMARK    1  A    between atoms: _5  and  _11
REMARK    2  A    between atoms: _19  and  _21
REMARK    3  A    between atoms: _22  and  _66
REMARK    4  A    between atoms: _27  and  _30
REMARK    5  A    between atoms: _32  and  _33
REMARK    6  A    between atoms: _38  and  _43
REMARK    7  A    between atoms: _43  and  _46
REMARK    8  A    between atoms: _53  and  _55
REMARK                            x       y       z     vdW  Elec       q    Type
REMARK                         _______ _______ _______ _____ _____    ______ ____
ROOT
ATOM     10  C   UNL     1      24.279  41.085  -0.706  0.00  0.00    +0.038 A 
ATOM     11  C   UNL     1      22.952  40.674  -0.422  0.00  0.00    +0.047 A 
ATOM     12  C   UNL     1      21.818  41.537  -0.713  0.00  0.00    +0.035 A 
ATOM     32  C   UNL     1      22.072  42.813  -1.296  0.00  0.00    +0.024 A 
ATOM     33  C   UNL     1      23.415  43.248  -1.590  0.00  0.00    +0.007 A 
ATOM     34  C   UNL     1      24.538  42.401  -1.303  0.00  0.00    -0.029 A 
ATOM     35  C   UNL     1      25.956  42.921  -1.634  0.00  0.00    +0.045 C 
ENDROOT
BRANCH  10   9
ATOM      4  C   UNL     1      27.820  39.551   2.148  0.00  0.00    +0.077 A 
ATOM      5  C   UNL     1      27.572  40.585   3.110  0.00  0.00    +0.048 A 
ATOM      6  C   UNL     1      26.529  41.496   2.830  0.00  0.00    +0.116 A 
ATOM      7  N   UNL     1      25.795  41.372   1.670  0.00  0.00    -0.223 NA
ATOM      8  C   UNL     1      26.061  40.364   0.762  0.00  0.00    +0.220 A 
ATOM      9  N   UNL     1      25.330  40.216  -0.407  0.00  0.00    -0.283 N 
ATOM     36  H   UNL     1      25.563  39.463  -1.055  0.00  0.00    +0.155 HD
ATOM     37  N   UNL     1      27.053  39.483   1.006  0.00  0.00    -0.214 NA
BRANCH   4   3
ATOM      1  C   UNL     1      29.690  36.218   2.980  0.00  0.00    +0.020 A 
ATOM      2  C   UNL     1      28.626  37.186   2.852  0.00  0.00    +0.013 A 
ATOM      3  C   UNL     1      28.886  38.511   2.303  0.00  0.00    +0.019 A 
ATOM     38  C   UNL     1      30.245  38.827   1.890  0.00  0.00    +0.120 A 
ATOM     39  N   UNL     1      31.250  37.875   2.027  0.00  0.00    -0.263 NA
ATOM     40  C   UNL     1      31.012  36.597   2.555  0.00  0.00    +0.111 A 
ENDBRANCH   4   3
ENDBRANCH  10   9
BRANCH  12  13
ATOM     13  N   UNL     1      20.449  41.177  -0.440  0.00  0.00    -0.281 N 
ATOM     14  C   UNL     1      19.381  42.021  -0.181  0.00  0.00    +0.248 C 
ATOM     30  O   UNL     1      19.487  43.213   0.065  0.00  0.00    -0.270 OA
ATOM     31  H   UNL     1      20.242  40.178  -0.436  0.00  0.00    +0.155 HD
BRANCH  14  15
ATOM     15  C   UNL     1      17.998  41.457  -0.184  0.00  0.00    +0.037 A 
ATOM     16  C   UNL     1      17.763  40.020  -0.020  0.00  0.00    +0.013 A 
ATOM     17  C   UNL     1      16.419  39.499  -0.043  0.00  0.00    +0.005 A 
ATOM     18  C   UNL     1      15.298  40.418  -0.229  0.00  0.00    -0.033 A 
ATOM     28  C   UNL     1      15.559  41.839  -0.384  0.00  0.00    +0.005 A 
ATOM     29  C   UNL     1      16.875  42.353  -0.363  0.00  0.00    +0.013 A 
BRANCH  18  19
ATOM     19  C   UNL     1      13.832  39.948  -0.287  0.00  0.00    +0.119 C 
BRANCH  19  20
ATOM     20  N   UNL     1      12.805  40.960  -0.675  0.00  0.00    -0.302 NA
ATOM     21  C   UNL     1      12.062  41.519   0.541  0.00  0.00    +0.066 C 
ATOM     22  C   UNL     1      11.007  42.593   0.120  0.00  0.00    -0.064 C 
ATOM     23  N   UNL     1      10.025  41.975  -0.878  0.00  0.00    +0.379 N 
ATOM     24  C   UNL     1       8.997  42.965  -1.232  0.00  0.00    -0.096 C 
ATOM     25  H   UNL     1       9.515  41.125  -0.367  0.00  0.00    -0.082 HD
ATOM     26  C   UNL     1      10.756  41.414  -2.089  0.00  0.00    -0.064 C 
ATOM     27  C   UNL     1      11.823  40.370  -1.657  0.00  0.00    +0.066 C 
ENDBRANCH  19  20
ENDBRANCH  18  19
ENDBRANCH  14  15
ENDBRANCH  12  13
TORSDOF 6
ENDMDL
