MODEL 1
REMARK VINA RESULT:      -9.2      0.000      0.000
REMARK  Name = C:\Users\Docking\Desktop\test protocol\1iep_ligandH.pdb
REMARK  8 active torsions:
REMARK  status: ('A' for Active; 'I' for Inactive)
REMARK    1  A    between atoms: _5  and  _11
REMARK    2  A    between atoms: _19  and  _21
REMARK    3  A    between atoms: _22  and  _66
REMARK    4  A    between atoms: _27  and  _30
REMARK    5  A    between atoms: _32  and  _33
REMARK    6  A    between atoms: _38  and  _43
REMARK    7  A    between atoms: _43  and  _46
REMARK    8  A    between atoms: _53  and  _55
REMARK                            x       y       z     vdW  Elec       q    Type
REMARK                         _______ _______ _______ _____ _____    ______ ____
ROOT
ATOM     10  C   UNL     1       4.156   1.371  -1.122  0.00  0.00    +0.038 A 
ATOM     11  C   UNL     1       3.377   0.856  -2.190  0.00  0.00    +0.047 A 
ATOM     12  C   UNL     1       2.482   1.714  -2.950  0.00  0.00    +0.035 A 
ATOM     32  C   UNL     1       2.407   3.093  -2.598  0.00  0.00    +0.024 A 
ATOM     33  C   UNL     1       3.191   3.633  -1.515  0.00  0.00    +0.007 A 
ATOM     34  C   UNL     1       4.074   2.791  -0.760  0.00  0.00    -0.029 A 
ATOM     35  C   UNL     1       4.885   3.423   0.395  0.00  0.00    +0.045 C 
ENDROOT
BRANCH  10   9
ATOM      4  C   UNL     1       4.928  -2.531   1.563  0.00  0.00    +0.077 A 
ATOM      5  C   UNL     1       3.530  -2.852   1.605  0.00  0.00    +0.048 A 
ATOM      6  C   UNL     1       2.645  -1.983   0.928  0.00  0.00    +0.116 A 
ATOM      7  N   UNL     1       3.132  -0.879   0.263  0.00  0.00    -0.223 NA
ATOM      8  C   UNL     1       4.486  -0.598   0.244  0.00  0.00    +0.220 A 
ATOM      9  N   UNL     1       4.999   0.502  -0.426  0.00  0.00    -0.283 N 
ATOM     36  H   UNL     1       6.003   0.679  -0.410  0.00  0.00    +0.155 HD
ATOM     37  N   UNL     1       5.352  -1.411   0.883  0.00  0.00    -0.214 NA
BRANCH   4   3
ATOM      1  C   UNL     1       7.309  -5.484   2.520  0.00  0.00    +0.020 A 
ATOM      2  C   UNL     1       6.274  -4.732   1.848  0.00  0.00    +0.013 A 
ATOM      3  C   UNL     1       5.988  -3.355   2.227  0.00  0.00    +0.019 A 
ATOM     38  C   UNL     1       6.774  -2.761   3.298  0.00  0.00    +0.120 A 
ATOM     39  N   UNL     1       7.763  -3.509   3.929  0.00  0.00    -0.263 NA
ATOM     40  C   UNL     1       8.046  -4.837   3.574  0.00  0.00    +0.111 A 
ENDBRANCH   4   3
ENDBRANCH  10   9
BRANCH  12  13
ATOM     13  N   UNL     1       1.661   1.246  -4.039  0.00  0.00    -0.281 N 
ATOM     14  C   UNL     1       0.300   0.986  -4.029  0.00  0.00    +0.248 C 
ATOM     30  O   UNL     1      -0.382   0.913  -3.017  0.00  0.00    -0.270 OA
ATOM     31  H   UNL     1       2.141   1.086  -4.925  0.00  0.00    +0.155 HD
BRANCH  14  15
ATOM     15  C   UNL     1      -0.402   0.761  -5.329  0.00  0.00    +0.037 A 
ATOM     16  C   UNL     1      -1.839   1.009  -5.469  0.00  0.00    +0.013 A 
ATOM     17  C   UNL     1      -2.495   0.767  -6.730  0.00  0.00    +0.005 A 
ATOM     18  C   UNL     1      -1.712   0.275  -7.862  0.00  0.00    -0.033 A 
ATOM     28  C   UNL     1      -0.287   0.042  -7.696  0.00  0.00    +0.005 A 
ATOM     29  C   UNL     1       0.359   0.277  -6.461  0.00  0.00    +0.013 A 
BRANCH  18  19
ATOM     19  C   UNL     1      -2.333  -0.031  -9.238  0.00  0.00    +0.119 C 
BRANCH  19  20
ATOM     20  N   UNL     1      -2.576  -1.465  -9.575  0.00  0.00    -0.302 NA
ATOM     21  C   UNL     1      -2.684  -1.690 -11.085  0.00  0.00    +0.066 C 
ATOM     22  C   UNL     1      -2.916  -3.199 -11.421  0.00  0.00    -0.064 C 
ATOM     23  N   UNL     1      -4.178  -3.689 -10.709  0.00  0.00    +0.379 N 
ATOM     24  C   UNL     1      -4.431  -5.092 -11.069  0.00  0.00    -0.096 C 
ATOM     25  H   UNL     1      -5.035  -3.084 -11.085  0.00  0.00    -0.082 HD
ATOM     26  C   UNL     1      -4.080  -3.467  -9.206  0.00  0.00    -0.064 C 
ATOM     27  C   UNL     1      -3.820  -1.969  -8.885  0.00  0.00    +0.066 C 
ENDBRANCH  19  20
ENDBRANCH  18  19
ENDBRANCH  14  15
ENDBRANCH  12  13
TORSDOF 6
ENDMDL
MODEL 2
REMARK VINA RESULT:      -8.7      6.956     12.850
REMARK  Name = C:\Users\Docking\Desktop\test protocol\1iep_ligandH.pdb
REMARK  8 active torsions:
REMARK  status: ('A' for Active; 'I' for Inactive)
REMARK    1  A    between atoms: _5  and  _11
REMARK    2  A    between atoms: _19  and  _21
REMARK    3  A    between atoms: _22  and  _66
REMARK    4  A    between atoms: _27  and  _30
REMARK    5  A    between atoms: _32  and  _33
REMARK    6  A    between atoms: _38  and  _43
REMARK    7  A    between atoms: _43  and  _46
REMARK    8  A    between atoms: _53  and  _55
REMARK                            x       y       z     vdW  Elec       q    Type
REMARK                         _______ _______ _______ _____ _____    ______ ____
ROOT
ATOM     10  C   UNL     1      -3.936  -7.025  -2.497  0.00  0.00    +0.038 A 
ATOM     11  C   UNL     1      -2.821  -6.577  -1.744  0.00  0.00    +0.047 A 
ATOM     12  C   UNL     1      -2.495  -5.163  -1.649  0.00  0.00    +0.035 A 
ATOM     32  C   UNL     1      -3.329  -4.230  -2.332  0.00  0.00    +0.024 A 
ATOM     33  C   UNL     1      -4.466  -4.668  -3.103  0.00  0.00    +0.007 A 
ATOM     34  C   UNL     1      -4.791  -6.062  -3.202  0.00  0.00    -0.029 A 
ATOM     35  C   UNL     1      -6.018  -6.475  -4.048  0.00  0.00    +0.045 C 
ENDROOT
BRANCH  10   9
ATOM      4  C   UNL     1      -3.615 -11.314  -4.627  0.00  0.00    +0.077 A 
ATOM      5  C   UNL     1      -2.877 -10.775  -5.733  0.00  0.00    +0.048 A 
ATOM      6  C   UNL     1      -2.608  -9.388  -5.720  0.00  0.00    +0.116 A 
ATOM      7  N   UNL     1      -3.047  -8.608  -4.672  0.00  0.00    -0.223 NA
ATOM      8  C   UNL     1      -3.757  -9.159  -3.621  0.00  0.00    +0.220 A 
ATOM      9  N   UNL     1      -4.202  -8.395  -2.554  0.00  0.00    -0.283 N 
ATOM     36  H   UNL     1      -4.729  -8.837  -1.802  0.00  0.00    +0.155 HD
ATOM     37  N   UNL     1      -4.029 -10.481  -3.612  0.00  0.00    -0.214 NA
BRANCH   4   3
ATOM      1  C   UNL     1      -3.826 -15.176  -5.210  0.00  0.00    +0.020 A 
ATOM      2  C   UNL     1      -3.446 -13.792  -5.380  0.00  0.00    +0.013 A 
ATOM      3  C   UNL     1      -3.975 -12.761  -4.496  0.00  0.00    +0.019 A 
ATOM     38  C   UNL     1      -4.892 -13.167  -3.442  0.00  0.00    +0.120 A 
ATOM     39  N   UNL     1      -5.241 -14.507  -3.303  0.00  0.00    -0.263 NA
ATOM     40  C   UNL     1      -4.740 -15.507  -4.149  0.00  0.00    +0.111 A 
ENDBRANCH   4   3
ENDBRANCH  10   9
BRANCH  12  13
ATOM     13  N   UNL     1      -1.371  -4.650  -0.905  0.00  0.00    -0.281 N 
ATOM     14  C   UNL     1      -0.033  -4.979  -1.050  0.00  0.00    +0.248 C 
ATOM     30  O   UNL     1       0.379  -5.928  -1.700  0.00  0.00    -0.270 OA
ATOM     31  H   UNL     1      -1.588  -3.961  -0.185  0.00  0.00    +0.155 HD
BRANCH  14  15
ATOM     15  C   UNL     1       0.995  -4.141  -0.361  0.00  0.00    +0.037 A 
ATOM     16  C   UNL     1       0.708  -3.484   0.917  0.00  0.00    +0.013 A 
ATOM     17  C   UNL     1       1.712  -2.668   1.552  0.00  0.00    +0.005 A 
ATOM     18  C   UNL     1       3.014  -2.505   0.910  0.00  0.00    -0.033 A 
ATOM     28  C   UNL     1       3.273  -3.172  -0.355  0.00  0.00    +0.005 A 
ATOM     29  C   UNL     1       2.292  -3.972  -0.981  0.00  0.00    +0.013 A 
BRANCH  18  19
ATOM     19  C   UNL     1       4.137  -1.635   1.505  0.00  0.00    +0.119 C 
BRANCH  19  20
ATOM     20  N   UNL     1       3.902  -0.161   1.564  0.00  0.00    -0.302 NA
ATOM     21  C   UNL     1       4.217   0.524   0.232  0.00  0.00    +0.066 C 
ATOM     22  C   UNL     1       3.945   2.062   0.304  0.00  0.00    -0.064 C 
ATOM     23  N   UNL     1       4.774   2.671   1.436  0.00  0.00    +0.379 N 
ATOM     24  C   UNL     1       4.564   4.126   1.470  0.00  0.00    -0.096 C 
ATOM     25  H   UNL     1       5.849   2.490   1.203  0.00  0.00    -0.082 HD
ATOM     26  C   UNL     1       4.468   1.993   2.765  0.00  0.00    -0.064 C 
ATOM     27  C   UNL     1       4.714   0.461   2.673  0.00  0.00    +0.066 C 
ENDBRANCH  19  20
ENDBRANCH  18  19
ENDBRANCH  14  15
ENDBRANCH  12  13
TORSDOF 6
ENDMDL
MODEL 3
REMARK VINA RESULT:      -8.6      1.749      2.720
REMARK  Name = C:\Users\Docking\Desktop\test protocol\1iep_ligandH.pdb
REMARK  8 active torsions:
REMARK  status: ('A' for Active; 'I' for Inactive)
REMARK    1  A    between atoms: _5  and  _11
REMARK    2  A    between atoms: _19  and  _21
REMARK    3  A    between atoms: _22  and  _66
REMARK    4  A    between atoms: _27  and  _30
REMARK    5  A    between atoms: _32  and  _33
REMARK    6  A    between atoms: _38  and  _43
REMARK    7  A    between atoms: _43  and  _46
REMARK    8  A    between atoms: _53  and  _55
REMARK                            x       y       z     vdW  Elec       q    Type
REMARK                         _______ _______ _______ _____ _____    ______ ____
ROOT
ATOM     10  C   UNL     1       4.176   1.378  -1.059  0.00  0.00    +0.038 A 
ATOM     11  C   UNL     1       3.386   0.842  -2.108  0.00  0.00    +0.047 A 
ATOM     12  C   UNL     1       2.484   1.684  -2.877  0.00  0.00    +0.035 A 
ATOM     32  C   UNL     1       2.414   3.071  -2.552  0.00  0.00    +0.024 A 
ATOM     33  C   UNL     1       3.209   3.632  -1.489  0.00  0.00    +0.007 A 
ATOM     34  C   UNL     1       4.099   2.805  -0.725  0.00  0.00    -0.029 A 
ATOM     35  C   UNL     1       4.923   3.460   0.408  0.00  0.00    +0.045 C 
ENDROOT
BRANCH  10   9
ATOM      4  C   UNL     1       4.981  -2.511   1.637  0.00  0.00    +0.077 A 
ATOM      5  C   UNL     1       3.588  -2.852   1.665  0.00  0.00    +0.048 A 
ATOM      6  C   UNL     1       2.697  -1.998   0.979  0.00  0.00    +0.116 A 
ATOM      7  N   UNL     1       3.174  -0.887   0.317  0.00  0.00    -0.223 NA
ATOM      8  C   UNL     1       4.523  -0.585   0.312  0.00  0.00    +0.220 A 
ATOM      9  N   UNL     1       5.026   0.523  -0.353  0.00  0.00    -0.283 N 
ATOM     36  H   UNL     1       6.027   0.715  -0.327  0.00  0.00    +0.155 HD
ATOM     37  N   UNL     1       5.395  -1.385   0.961  0.00  0.00    -0.214 NA
BRANCH   4   3
ATOM      1  C   UNL     1       7.377  -5.435   2.642  0.00  0.00    +0.020 A 
ATOM      2  C   UNL     1       6.336  -4.701   1.960  0.00  0.00    +0.013 A 
ATOM      3  C   UNL     1       6.047  -3.317   2.313  0.00  0.00    +0.019 A 
ATOM     38  C   UNL     1       6.835  -2.700   3.369  0.00  0.00    +0.120 A 
ATOM     39  N   UNL     1       7.830  -3.432   4.010  0.00  0.00    -0.263 NA
ATOM     40  C   UNL     1       8.116  -4.765   3.680  0.00  0.00    +0.111 A 
ENDBRANCH   4   3
ENDBRANCH  10   9
BRANCH  12  13
ATOM     13  N   UNL     1       1.651   1.195  -3.947  0.00  0.00    -0.281 N 
ATOM     14  C   UNL     1       0.281   0.989  -3.934  0.00  0.00    +0.248 C 
ATOM     30  O   UNL     1      -0.409   0.993  -2.926  0.00  0.00    -0.270 OA
ATOM     31  H   UNL     1       2.130   0.973  -4.820  0.00  0.00    +0.155 HD
BRANCH  14  15
ATOM     15  C   UNL     1      -0.421   0.726  -5.227  0.00  0.00    +0.037 A 
ATOM     16  C   UNL     1       0.312   0.278  -6.413  0.00  0.00    +0.013 A 
ATOM     17  C   UNL     1      -0.387   0.048  -7.653  0.00  0.00    +0.005 A 
ATOM     18  C   UNL     1      -1.831   0.265  -7.711  0.00  0.00    -0.033 A 
ATOM     28  C   UNL     1      -2.534   0.706  -6.518  0.00  0.00    +0.005 A 
ATOM     29  C   UNL     1      -1.852   0.933  -5.302  0.00  0.00    +0.013 A 
BRANCH  18  19
ATOM     19  C   UNL     1      -2.655   0.066  -8.996  0.00  0.00    +0.119 C 
BRANCH  19  20
ATOM     20  N   UNL     1      -2.840   1.254  -9.882  0.00  0.00    -0.302 NA
ATOM     21  C   UNL     1      -4.309   1.472 -10.252  0.00  0.00    +0.066 C 
ATOM     22  C   UNL     1      -4.487   2.732 -11.161  0.00  0.00    -0.064 C 
ATOM     23  N   UNL     1      -3.629   2.575 -12.418  0.00  0.00    +0.379 N 
ATOM     24  C   UNL     1      -3.838   3.732 -13.301  0.00  0.00    -0.096 C 
ATOM     25  H   UNL     1      -3.985   1.668 -12.958  0.00  0.00    -0.082 HD
ATOM     26  C   UNL     1      -2.167   2.355 -12.059  0.00  0.00    -0.064 C 
ATOM     27  C   UNL     1      -2.005   1.118 -11.132  0.00  0.00    +0.066 C 
ENDBRANCH  19  20
ENDBRANCH  18  19
ENDBRANCH  14  15
ENDBRANCH  12  13
TORSDOF 6
ENDMDL
MODEL 4
REMARK VINA RESULT:      -8.5      1.972     12.421
REMARK  Name = C:\Users\Docking\Desktop\test protocol\1iep_ligandH.pdb
REMARK  8 active torsions:
REMARK  status: ('A' for Active; 'I' for Inactive)
REMARK    1  A    between atoms: _5  and  _11
REMARK    2  A    between atoms: _19  and  _21
REMARK    3  A    between atoms: _22  and  _66
REMARK    4  A    between atoms: _27  and  _30
REMARK    5  A    between atoms: _32  and  _33
REMARK    6  A    between atoms: _38  and  _43
REMARK    7  A    between atoms: _43  and  _46
REMARK    8  A    between atoms: _53  and  _55
REMARK                            x       y       z     vdW  Elec       q    Type
REMARK                         _______ _______ _______ _____ _____    ______ ____
ROOT
ATOM     10  C   UNL     1       1.267   1.696  -5.580  0.00  0.00    +0.038 A 
ATOM     11  C   UNL     1       1.741   0.904  -4.502  0.00  0.00    +0.047 A 
ATOM     12  C   UNL     1       2.324   1.517  -3.318  0.00  0.00    +0.035 A 
ATOM     32  C   UNL     1       2.405   2.939  -3.264  0.00  0.00    +0.024 A 
ATOM     33  C   UNL     1       1.929   3.758  -4.350  0.00  0.00    +0.007 A 
ATOM     34  C   UNL     1       1.355   3.160  -5.522  0.00  0.00    -0.029 A 
ATOM     35  C   UNL     1       0.867   4.087  -6.658  0.00  0.00    +0.045 C 
ENDROOT
BRANCH  10   9
ATOM      4  C   UNL     1      -2.451  -0.141  -7.997  0.00  0.00    +0.077 A 
ATOM      5  C   UNL     1      -3.370   0.177  -6.943  0.00  0.00    +0.048 A 
ATOM      6  C   UNL     1      -2.845   0.807  -5.792  0.00  0.00    +0.116 A 
ATOM      7  N   UNL     1      -1.499   1.093  -5.713  0.00  0.00    -0.223 NA
ATOM      8  C   UNL     1      -0.639   0.770  -6.747  0.00  0.00    +0.220 A 
ATOM      9  N   UNL     1       0.716   1.055  -6.692  0.00  0.00    -0.283 N 
ATOM     36  H   UNL     1       1.319   0.795  -7.473  0.00  0.00    +0.155 HD
ATOM     37  N   UNL     1      -1.116   0.167  -7.856  0.00  0.00    -0.214 NA
BRANCH   4   3
ATOM      1  C   UNL     1      -2.369  -2.204 -11.319  0.00  0.00    +0.020 A 
ATOM      2  C   UNL     1      -1.929  -1.583 -10.092  0.00  0.00    +0.013 A 
ATOM      3  C   UNL     1      -2.854  -0.805  -9.277  0.00  0.00    +0.019 A 
ATOM     38  C   UNL     1      -4.228  -0.675  -9.736  0.00  0.00    +0.120 A 
ATOM     39  N   UNL     1      -4.624  -1.283 -10.923  0.00  0.00    -0.263 NA
ATOM     40  C   UNL     1      -3.742  -2.033 -11.716  0.00  0.00    +0.111 A 
ENDBRANCH   4   3
ENDBRANCH  10   9
BRANCH  12  13
ATOM     13  N   UNL     1       2.829   0.764  -2.197  0.00  0.00    -0.281 N 
ATOM     14  C   UNL     1       2.154  -0.162  -1.419  0.00  0.00    +0.248 C 
ATOM     30  O   UNL     1       0.944  -0.328  -1.437  0.00  0.00    -0.270 OA
ATOM     31  H   UNL     1       3.803   0.935  -1.946  0.00  0.00    +0.155 HD
BRANCH  14  15
ATOM     15  C   UNL     1       2.935  -1.018  -0.475  0.00  0.00    +0.037 A 
ATOM     16  C   UNL     1       2.265  -1.869   0.511  0.00  0.00    +0.013 A 
ATOM     17  C   UNL     1       3.042  -2.672   1.421  0.00  0.00    +0.005 A 
ATOM     18  C   UNL     1       4.501  -2.629   1.348  0.00  0.00    -0.033 A 
ATOM     28  C   UNL     1       5.140  -1.780   0.356  0.00  0.00    +0.005 A 
ATOM     29  C   UNL     1       4.381  -0.991  -0.537  0.00  0.00    +0.013 A 
BRANCH  18  19
ATOM     19  C   UNL     1       5.410  -3.436   2.293  0.00  0.00    +0.119 C 
BRANCH  19  20
ATOM     20  N   UNL     1       6.011  -2.708   3.450  0.00  0.00    -0.302 NA
ATOM     21  C   UNL     1       5.882  -1.190   3.304  0.00  0.00    +0.066 C 
ATOM     22  C   UNL     1       6.496  -0.445   4.534  0.00  0.00    -0.064 C 
ATOM     23  N   UNL     1       7.962  -0.850   4.692  0.00  0.00    +0.379 N 
ATOM     24  C   UNL     1       8.558  -0.108   5.812  0.00  0.00    -0.096 C 
ATOM     25  H   UNL     1       8.498  -0.549   3.762  0.00  0.00    -0.082 HD
ATOM     26  C   UNL     1       8.100  -2.359   4.836  0.00  0.00    -0.064 C 
ATOM     27  C   UNL     1       7.461  -3.091   3.623  0.00  0.00    +0.066 C 
ENDBRANCH  19  20
ENDBRANCH  18  19
ENDBRANCH  14  15
ENDBRANCH  12  13
TORSDOF 6
ENDMDL
MODEL 5
REMARK VINA RESULT:      -8.4     10.611     16.790
REMARK  Name = C:\Users\Docking\Desktop\test protocol\1iep_ligandH.pdb
REMARK  8 active torsions:
REMARK  status: ('A' for Active; 'I' for Inactive)
REMARK    1  A    between atoms: _5  and  _11
REMARK    2  A    between atoms: _19  and  _21
REMARK    3  A    between atoms: _22  and  _66
REMARK    4  A    between atoms: _27  and  _30
REMARK    5  A    between atoms: _32  and  _33
REMARK    6  A    between atoms: _38  and  _43
REMARK    7  A    between atoms: _43  and  _46
REMARK    8  A    between atoms: _53  and  _55
REMARK                            x       y       z     vdW  Elec       q    Type
REMARK                         _______ _______ _______ _____ _____    ______ ____
ROOT
ATOM     10  C   UNL     1       7.152  -7.626  -6.353  0.00  0.00    +0.038 A 
ATOM     11  C   UNL     1       8.290  -7.808  -5.527  0.00  0.00    +0.047 A 
ATOM     12  C   UNL     1       9.135  -6.685  -5.152  0.00  0.00    +0.035 A 
ATOM     32  C   UNL     1       8.790  -5.389  -5.635  0.00  0.00    +0.024 A 
ATOM     33  C   UNL     1       7.637  -5.186  -6.476  0.00  0.00    +0.007 A 
ATOM     34  C   UNL     1       6.801  -6.290  -6.851  0.00  0.00    -0.029 A 
ATOM     35  C   UNL     1       5.581  -6.015  -7.761  0.00  0.00    +0.045 C 
ENDROOT
BRANCH  10   9
ATOM      4  C   UNL     1       6.410 -11.702  -8.777  0.00  0.00    +0.077 A 
ATOM      5  C   UNL     1       7.663 -11.589  -9.466  0.00  0.00    +0.048 A 
ATOM      6  C   UNL     1       8.466 -10.464  -9.174  0.00  0.00    +0.116 A 
ATOM      7  N   UNL     1       8.037  -9.527  -8.258  0.00  0.00    -0.223 NA
ATOM      8  C   UNL     1       6.822  -9.665  -7.612  0.00  0.00    +0.220 A 
ATOM      9  N   UNL     1       6.375  -8.740  -6.682  0.00  0.00    -0.283 N 
ATOM     36  H   UNL     1       5.470  -8.873  -6.233  0.00  0.00    +0.155 HD
ATOM     37  N   UNL     1       6.037 -10.730  -7.875  0.00  0.00    -0.214 NA
BRANCH   4   3
ATOM      1  C   UNL     1       3.143 -13.767  -9.378  0.00  0.00    +0.020 A 
ATOM      2  C   UNL     1       4.024 -12.638  -9.191  0.00  0.00    +0.013 A 
ATOM      3  C   UNL     1       5.452 -12.835  -8.976  0.00  0.00    +0.019 A 
ATOM     38  C   UNL     1       5.960 -14.199  -8.957  0.00  0.00    +0.120 A 
ATOM     39  N   UNL     1       5.087 -15.267  -9.139  0.00  0.00    -0.263 NA
ATOM     40  C   UNL     1       3.711 -15.089  -9.345  0.00  0.00    +0.111 A 
ENDBRANCH   4   3
ENDBRANCH  10   9
BRANCH  12  13
ATOM     13  N   UNL     1      10.308  -6.810  -4.323  0.00  0.00    -0.281 N 
ATOM     14  C   UNL     1      10.450  -6.462  -2.990  0.00  0.00    +0.248 C 
ATOM     30  O   UNL     1       9.646  -5.787  -2.363  0.00  0.00    -0.270 OA
ATOM     31  H   UNL     1      11.134  -7.204  -4.774  0.00  0.00    +0.155 HD
BRANCH  14  15
ATOM     15  C   UNL     1      11.667  -6.916  -2.250  0.00  0.00    +0.037 A 
ATOM     16  C   UNL     1      11.905  -8.335  -1.978  0.00  0.00    +0.013 A 
ATOM     17  C   UNL     1      13.078  -8.745  -1.247  0.00  0.00    +0.005 A 
ATOM     18  C   UNL     1      14.024  -7.731  -0.785  0.00  0.00    -0.033 A 
ATOM     28  C   UNL     1      13.766  -6.330  -1.074  0.00  0.00    +0.005 A 
ATOM     29  C   UNL     1      12.616  -5.925  -1.789  0.00  0.00    +0.013 A 
BRANCH  18  19
ATOM     19  C   UNL     1      15.291  -8.075   0.020  0.00  0.00    +0.119 C 
BRANCH  19  20
ATOM     20  N   UNL     1      15.723  -9.505   0.038  0.00  0.00    -0.302 NA
ATOM     21  C   UNL     1      16.396  -9.885   1.359  0.00  0.00    +0.066 C 
ATOM     22  C   UNL     1      16.821 -11.389   1.369  0.00  0.00    -0.064 C 
ATOM     23  N   UNL     1      17.755 -11.661   0.188  0.00  0.00    +0.379 N 
ATOM     24  C   UNL     1      18.202 -13.061   0.228  0.00  0.00    -0.096 C 
ATOM     25  H   UNL     1      18.654 -11.014   0.313  0.00  0.00    -0.082 HD
ATOM     26  C   UNL     1      17.094 -11.283  -1.130  0.00  0.00    -0.064 C 
ATOM     27  C   UNL     1      16.649  -9.794  -1.118  0.00  0.00    +0.066 C 
ENDBRANCH  19  20
ENDBRANCH  18  19
ENDBRANCH  14  15
ENDBRANCH  12  13
TORSDOF 6
ENDMDL
