MODEL 1
REMARK VINA RESULT:      -8.9      0.000      0.000
REMARK  Name = C:\Users\Docking\Desktop\test protocol\1iep_ligandH.pdb
REMARK  8 active torsions:
REMARK  status: ('A' for Active; 'I' for Inactive)
REMARK    1  A    between atoms: _5  and  _11
REMARK    2  A    between atoms: _19  and  _21
REMARK    3  A    between atoms: _22  and  _66
REMARK    4  A    between atoms: _27  and  _30
REMARK    5  A    between atoms: _32  and  _33
REMARK    6  A    between atoms: _38  and  _43
REMARK    7  A    between atoms: _43  and  _46
REMARK    8  A    between atoms: _53  and  _55
REMARK                            x       y       z     vdW  Elec       q    Type
REMARK                         _______ _______ _______ _____ _____    ______ ____
ROOT
ATOM     10  C   UNL     1     -17.686  -1.584 -27.725  0.00  0.00    +0.038 A 
ATOM     11  C   UNL     1     -17.108  -1.123 -28.935  0.00  0.00    +0.047 A 
ATOM     12  C   UNL     1     -17.612   0.066 -29.605  0.00  0.00    +0.035 A 
ATOM     32  C   UNL     1     -18.706   0.762 -29.013  0.00  0.00    +0.024 A 
ATOM     33  C   UNL     1     -19.307   0.306 -27.784  0.00  0.00    +0.007 A 
ATOM     34  C   UNL     1     -18.815  -0.867 -27.120  0.00  0.00    -0.029 A 
ATOM     35  C   UNL     1     -19.502  -1.314 -25.809  0.00  0.00    +0.045 C 
ENDROOT
BRANCH  10   9
ATOM      4  C   UNL     1     -17.441  -6.348 -27.195  0.00  0.00    +0.077 A 
ATOM      5  C   UNL     1     -18.463  -6.570 -28.178  0.00  0.00    +0.048 A 
ATOM      6  C   UNL     1     -19.030  -5.431 -28.791  0.00  0.00    +0.116 A 
ATOM      7  N   UNL     1     -18.601  -4.169 -28.440  0.00  0.00    -0.223 NA
ATOM      8  C   UNL     1     -17.615  -3.991 -27.487  0.00  0.00    +0.220 A 
ATOM      9  N   UNL     1     -17.162  -2.731 -27.125  0.00  0.00    -0.283 N 
ATOM     36  H   UNL     1     -16.439  -2.642 -26.412  0.00  0.00    +0.155 HD
ATOM     37  N   UNL     1     -17.058  -5.062 -26.886  0.00  0.00    -0.214 NA
BRANCH   4   3
ATOM      1  C   UNL     1     -15.886  -9.816 -26.268  0.00  0.00    +0.020 A 
ATOM      2  C   UNL     1     -16.568  -8.786 -27.018  0.00  0.00    +0.013 A 
ATOM      3  C   UNL     1     -16.743  -7.451 -26.461  0.00  0.00    +0.019 A 
ATOM     38  C   UNL     1     -16.211  -7.187 -25.132  0.00  0.00    +0.120 A 
ATOM     39  N   UNL     1     -15.560  -8.198 -24.433  0.00  0.00    -0.263 NA
ATOM     40  C   UNL     1     -15.387  -9.488 -24.958  0.00  0.00    +0.111 A 
ENDBRANCH   4   3
ENDBRANCH  10   9
BRANCH  12  13
ATOM     13  N   UNL     1     -17.070   0.578 -30.839  0.00  0.00    -0.281 N 
ATOM     14  C   UNL     1     -15.979   1.415 -31.008  0.00  0.00    +0.248 C 
ATOM     30  O   UNL     1     -15.430   2.026 -30.103  0.00  0.00    -0.270 OA
ATOM     31  H   UNL     1     -17.548   0.288 -31.692  0.00  0.00    +0.155 HD
BRANCH  14  15
ATOM     15  C   UNL     1     -15.427   1.613 -32.382  0.00  0.00    +0.037 A 
ATOM     16  C   UNL     1     -13.992   1.813 -32.604  0.00  0.00    +0.013 A 
ATOM     17  C   UNL     1     -13.488   2.019 -33.939  0.00  0.00    +0.005 A 
ATOM     18  C   UNL     1     -14.421   2.025 -35.063  0.00  0.00    -0.033 A 
ATOM     28  C   UNL     1     -15.838   1.820 -34.816  0.00  0.00    +0.005 A 
ATOM     29  C   UNL     1     -16.336   1.618 -33.509  0.00  0.00    +0.013 A 
BRANCH  18  19
ATOM     19  C   UNL     1     -13.974   2.259 -36.519  0.00  0.00    +0.119 C 
BRANCH  19  20
ATOM     20  N   UNL     1     -13.968   1.076 -37.430  0.00  0.00    -0.302 NA
ATOM     21  C   UNL     1     -12.873   0.071 -37.061  0.00  0.00    +0.066 C 
ATOM     22  C   UNL     1     -12.896  -1.170 -38.011  0.00  0.00    -0.064 C 
ATOM     23  N   UNL     1     -12.737  -0.704 -39.459  0.00  0.00    +0.379 N 
ATOM     24  C   UNL     1     -12.700  -1.873 -40.349  0.00  0.00    -0.096 C 
ATOM     25  H   UNL     1     -11.754  -0.185 -39.541  0.00  0.00    -0.082 HD
ATOM     26  C   UNL     1     -13.821   0.297 -39.834  0.00  0.00    -0.064 C 
ATOM     27  C   UNL     1     -13.808   1.513 -38.866  0.00  0.00    +0.066 C 
ENDBRANCH  19  20
ENDBRANCH  18  19
ENDBRANCH  14  15
ENDBRANCH  12  13
TORSDOF 6
ENDMDL
MODEL 2
REMARK VINA RESULT:      -8.9      7.650     12.751
REMARK  Name = C:\Users\Docking\Desktop\test protocol\1iep_ligandH.pdb
REMARK  8 active torsions:
REMARK  status: ('A' for Active; 'I' for Inactive)
REMARK    1  A    between atoms: _5  and  _11
REMARK    2  A    between atoms: _19  and  _21
REMARK    3  A    between atoms: _22  and  _66
REMARK    4  A    between atoms: _27  and  _30
REMARK    5  A    between atoms: _32  and  _33
REMARK    6  A    between atoms: _38  and  _43
REMARK    7  A    between atoms: _43  and  _46
REMARK    8  A    between atoms: _53  and  _55
REMARK                            x       y       z     vdW  Elec       q    Type
REMARK                         _______ _______ _______ _____ _____    ______ ____
ROOT
ATOM     10  C   UNL     1     -18.503  -5.733 -26.620  0.00  0.00    +0.038 A 
ATOM     11  C   UNL     1     -18.269  -5.296 -25.291  0.00  0.00    +0.047 A 
ATOM     12  C   UNL     1     -18.491  -3.912 -24.904  0.00  0.00    +0.035 A 
ATOM     32  C   UNL     1     -18.955  -2.999 -25.896  0.00  0.00    +0.024 A 
ATOM     33  C   UNL     1     -19.197  -3.426 -27.252  0.00  0.00    +0.007 A 
ATOM     34  C   UNL     1     -18.977  -4.790 -27.640  0.00  0.00    -0.029 A 
ATOM     35  C   UNL     1     -19.247  -5.190 -29.109  0.00  0.00    +0.045 C 
ENDROOT
BRANCH  10   9
ATOM      4  C   UNL     1     -15.650  -9.311 -28.069  0.00  0.00    +0.077 A 
ATOM      5  C   UNL     1     -14.530  -8.429 -28.236  0.00  0.00    +0.048 A 
ATOM      6  C   UNL     1     -14.732  -7.061 -27.944  0.00  0.00    +0.116 A 
ATOM      7  N   UNL     1     -15.966  -6.619 -27.519  0.00  0.00    -0.223 NA
ATOM      8  C   UNL     1     -17.025  -7.495 -27.371  0.00  0.00    +0.220 A 
ATOM      9  N   UNL     1     -18.273  -7.074 -26.937  0.00  0.00    -0.283 N 
ATOM     36  H   UNL     1     -19.031  -7.750 -26.847  0.00  0.00    +0.155 HD
ATOM     37  N   UNL     1     -16.859  -8.806 -27.644  0.00  0.00    -0.214 NA
BRANCH   4   3
ATOM      1  C   UNL     1     -16.585 -12.942 -29.182  0.00  0.00    +0.020 A 
ATOM      2  C   UNL     1     -16.690 -11.520 -28.948  0.00  0.00    +0.013 A 
ATOM      3  C   UNL     1     -15.593 -10.783 -28.334  0.00  0.00    +0.019 A 
ATOM     38  C   UNL     1     -14.393 -11.520 -27.966  0.00  0.00    +0.120 A 
ATOM     39  N   UNL     1     -14.321 -12.889 -28.203  0.00  0.00    -0.263 NA
ATOM     40  C   UNL     1     -15.371 -13.609 -28.791  0.00  0.00    +0.111 A 
ENDBRANCH   4   3
ENDBRANCH  10   9
BRANCH  12  13
ATOM     13  N   UNL     1     -18.263  -3.408 -23.572  0.00  0.00    -0.281 N 
ATOM     14  C   UNL     1     -17.093  -3.457 -22.832  0.00  0.00    +0.248 C 
ATOM     30  O   UNL     1     -16.119  -4.135 -23.123  0.00  0.00    -0.270 OA
ATOM     31  H   UNL     1     -19.061  -2.962 -23.120  0.00  0.00    +0.155 HD
BRANCH  14  15
ATOM     15  C   UNL     1     -16.996  -2.647 -21.580  0.00  0.00    +0.037 A 
ATOM     16  C   UNL     1     -18.023  -2.732 -20.538  0.00  0.00    +0.013 A 
ATOM     17  C   UNL     1     -17.914  -1.927 -19.348  0.00  0.00    +0.005 A 
ATOM     18  C   UNL     1     -16.772  -1.029 -19.192  0.00  0.00    -0.033 A 
ATOM     28  C   UNL     1     -15.765  -0.968 -20.239  0.00  0.00    +0.005 A 
ATOM     29  C   UNL     1     -15.869  -1.755 -21.407  0.00  0.00    +0.013 A 
BRANCH  18  19
ATOM     19  C   UNL     1     -16.586  -0.118 -17.965  0.00  0.00    +0.119 C 
BRANCH  19  20
ATOM     20  N   UNL     1     -17.740   0.746 -17.573  0.00  0.00    -0.302 NA
ATOM     21  C   UNL     1     -17.356   2.227 -17.517  0.00  0.00    +0.066 C 
ATOM     22  C   UNL     1     -18.580   3.118 -17.127  0.00  0.00    -0.064 C 
ATOM     23  N   UNL     1     -19.139   2.652 -15.782  0.00  0.00    +0.379 N 
ATOM     24  C   UNL     1     -20.254   3.524 -15.385  0.00  0.00    -0.096 C 
ATOM     25  H   UNL     1     -18.331   2.768 -15.022  0.00  0.00    -0.082 HD
ATOM     26  C   UNL     1     -19.521   1.179 -15.828  0.00  0.00    -0.064 C 
ATOM     27  C   UNL     1     -18.304   0.306 -16.244  0.00  0.00    +0.066 C 
ENDBRANCH  19  20
ENDBRANCH  18  19
ENDBRANCH  14  15
ENDBRANCH  12  13
TORSDOF 6
ENDMDL
MODEL 3
REMARK VINA RESULT:      -8.9      7.410     10.092
REMARK  Name = C:\Users\Docking\Desktop\test protocol\1iep_ligandH.pdb
REMARK  8 active torsions:
REMARK  status: ('A' for Active; 'I' for Inactive)
REMARK    1  A    between atoms: _5  and  _11
REMARK    2  A    between atoms: _19  and  _21
REMARK    3  A    between atoms: _22  and  _66
REMARK    4  A    between atoms: _27  and  _30
REMARK    5  A    between atoms: _32  and  _33
REMARK    6  A    between atoms: _38  and  _43
REMARK    7  A    between atoms: _43  and  _46
REMARK    8  A    between atoms: _53  and  _55
REMARK                            x       y       z     vdW  Elec       q    Type
REMARK                         _______ _______ _______ _____ _____    ______ ____
ROOT
ATOM     10  C   UNL     1     -17.615  -3.836 -26.084  0.00  0.00    +0.038 A 
ATOM     11  C   UNL     1     -16.754  -4.913 -26.416  0.00  0.00    +0.047 A 
ATOM     12  C   UNL     1     -17.011  -5.751 -27.577  0.00  0.00    +0.035 A 
ATOM     32  C   UNL     1     -18.152  -5.462 -28.380  0.00  0.00    +0.024 A 
ATOM     33  C   UNL     1     -19.038  -4.371 -28.057  0.00  0.00    +0.007 A 
ATOM     34  C   UNL     1     -18.791  -3.542 -26.912  0.00  0.00    -0.029 A 
ATOM     35  C   UNL     1     -19.778  -2.391 -26.610  0.00  0.00    +0.045 C 
ENDROOT
BRANCH  10   9
ATOM      4  C   UNL     1     -17.757  -3.019 -21.357  0.00  0.00    +0.077 A 
ATOM      5  C   UNL     1     -18.504  -4.220 -21.112  0.00  0.00    +0.048 A 
ATOM      6  C   UNL     1     -18.838  -5.016 -22.231  0.00  0.00    +0.116 A 
ATOM      7  N   UNL     1     -18.448  -4.630 -23.495  0.00  0.00    -0.223 NA
ATOM      8  C   UNL     1     -17.730  -3.466 -23.696  0.00  0.00    +0.220 A 
ATOM      9  N   UNL     1     -17.321  -3.063 -24.958  0.00  0.00    -0.283 N 
ATOM     36  H   UNL     1     -16.799  -2.194 -25.066  0.00  0.00    +0.155 HD
ATOM     37  N   UNL     1     -17.400  -2.688 -22.645  0.00  0.00    -0.214 NA
BRANCH   4   3
ATOM      1  C   UNL     1     -17.723  -0.787 -18.145  0.00  0.00    +0.020 A 
ATOM      2  C   UNL     1     -18.188  -1.702 -19.162  0.00  0.00    +0.013 A 
ATOM      3  C   UNL     1     -17.327  -2.076 -20.277  0.00  0.00    +0.019 A 
ATOM     38  C   UNL     1     -15.991  -1.501 -20.334  0.00  0.00    +0.120 A 
ATOM     39  N   UNL     1     -15.572  -0.621 -19.341  0.00  0.00    -0.263 NA
ATOM     40  C   UNL     1     -16.392  -0.253 -18.264  0.00  0.00    +0.111 A 
ENDBRANCH   4   3
ENDBRANCH  10   9
BRANCH  12  13
ATOM     13  N   UNL     1     -16.177  -6.864 -27.958  0.00  0.00    -0.281 N 
ATOM     14  C   UNL     1     -16.032  -8.081 -27.311  0.00  0.00    +0.248 C 
ATOM     30  O   UNL     1     -16.438  -8.316 -26.183  0.00  0.00    -0.270 OA
ATOM     31  H   UNL     1     -15.627  -6.740 -28.808  0.00  0.00    +0.155 HD
BRANCH  14  15
ATOM     15  C   UNL     1     -15.320  -9.191 -28.014  0.00  0.00    +0.037 A 
ATOM     16  C   UNL     1     -14.103  -8.943 -28.791  0.00  0.00    +0.013 A 
ATOM     17  C   UNL     1     -13.446 -10.030 -29.473  0.00  0.00    +0.005 A 
ATOM     18  C   UNL     1     -14.005 -11.376 -29.379  0.00  0.00    -0.033 A 
ATOM     28  C   UNL     1     -15.210 -11.596 -28.597  0.00  0.00    +0.005 A 
ATOM     29  C   UNL     1     -15.857 -10.533 -27.928  0.00  0.00    +0.013 A 
BRANCH  18  19
ATOM     19  C   UNL     1     -13.382 -12.592 -30.091  0.00  0.00    +0.119 C 
BRANCH  19  20
ATOM     20  N   UNL     1     -13.545 -12.674 -31.573  0.00  0.00    -0.302 NA
ATOM     21  C   UNL     1     -12.435 -11.924 -32.315  0.00  0.00    +0.066 C 
ATOM     22  C   UNL     1     -12.609 -12.039 -33.865  0.00  0.00    -0.064 C 
ATOM     23  N   UNL     1     -13.985 -11.502 -34.262  0.00  0.00    +0.379 N 
ATOM     24  C   UNL     1     -14.128 -11.555 -35.724  0.00  0.00    -0.096 C 
ATOM     25  H   UNL     1     -14.031 -10.431 -33.956  0.00  0.00    -0.082 HD
ATOM     26  C   UNL     1     -15.094 -12.240 -33.526  0.00  0.00    -0.064 C 
ATOM     27  C   UNL     1     -14.896 -12.144 -31.988  0.00  0.00    +0.066 C 
ENDBRANCH  19  20
ENDBRANCH  18  19
ENDBRANCH  14  15
ENDBRANCH  12  13
TORSDOF 6
ENDMDL
MODEL 4
REMARK VINA RESULT:      -8.9      6.388     10.577
REMARK  Name = C:\Users\Docking\Desktop\test protocol\1iep_ligandH.pdb
REMARK  8 active torsions:
REMARK  status: ('A' for Active; 'I' for Inactive)
REMARK    1  A    between atoms: _5  and  _11
REMARK    2  A    between atoms: _19  and  _21
REMARK    3  A    between atoms: _22  and  _66
REMARK    4  A    between atoms: _27  and  _30
REMARK    5  A    between atoms: _32  and  _33
REMARK    6  A    between atoms: _38  and  _43
REMARK    7  A    between atoms: _43  and  _46
REMARK    8  A    between atoms: _53  and  _55
REMARK                            x       y       z     vdW  Elec       q    Type
REMARK                         _______ _______ _______ _____ _____    ______ ____
ROOT
ATOM     10  C   UNL     1     -17.600  -2.462 -27.362  0.00  0.00    +0.038 A 
ATOM     11  C   UNL     1     -17.044  -3.725 -27.692  0.00  0.00    +0.047 A 
ATOM     12  C   UNL     1     -17.847  -4.937 -27.643  0.00  0.00    +0.035 A 
ATOM     32  C   UNL     1     -19.215  -4.826 -27.258  0.00  0.00    +0.024 A 
ATOM     33  C   UNL     1     -19.796  -3.551 -26.919  0.00  0.00    +0.007 A 
ATOM     34  C   UNL     1     -19.008  -2.352 -26.962  0.00  0.00    -0.029 A 
ATOM     35  C   UNL     1     -19.683  -1.014 -26.582  0.00  0.00    +0.045 C 
ENDROOT
BRANCH  10   9
ATOM      4  C   UNL     1     -14.051   0.296 -25.679  0.00  0.00    +0.077 A 
ATOM      5  C   UNL     1     -13.822  -0.577 -24.564  0.00  0.00    +0.048 A 
ATOM      6  C   UNL     1     -14.644  -1.721 -24.456  0.00  0.00    +0.116 A 
ATOM      7  N   UNL     1     -15.619  -1.965 -25.399  0.00  0.00    -0.223 NA
ATOM      8  C   UNL     1     -15.814  -1.102 -26.461  0.00  0.00    +0.220 A 
ATOM      9  N   UNL     1     -16.784  -1.331 -27.426  0.00  0.00    -0.283 N 
ATOM     36  H   UNL     1     -16.901  -0.667 -28.190  0.00  0.00    +0.155 HD
ATOM     37  N   UNL     1     -15.044  -0.001 -26.586  0.00  0.00    -0.214 NA
BRANCH   4   3
ATOM      1  C   UNL     1     -11.793   3.450 -25.180  0.00  0.00    +0.020 A 
ATOM      2  C   UNL     1     -12.540   2.250 -24.882  0.00  0.00    +0.013 A 
ATOM      3  C   UNL     1     -13.262   1.543 -25.932  0.00  0.00    +0.019 A 
ATOM     38  C   UNL     1     -13.207   2.080 -27.283  0.00  0.00    +0.120 A 
ATOM     39  N   UNL     1     -12.481   3.238 -27.540  0.00  0.00    -0.263 NA
ATOM     40  C   UNL     1     -11.783   3.929 -26.537  0.00  0.00    +0.111 A 
ENDBRANCH   4   3
ENDBRANCH  10   9
BRANCH  12  13
ATOM     13  N   UNL     1     -17.334  -6.247 -27.959  0.00  0.00    -0.281 N 
ATOM     14  C   UNL     1     -16.920  -7.234 -27.080  0.00  0.00    +0.248 C 
ATOM     30  O   UNL     1     -16.725  -7.058 -25.886  0.00  0.00    -0.270 OA
ATOM     31  H   UNL     1     -17.270  -6.475 -28.951  0.00  0.00    +0.155 HD
BRANCH  14  15
ATOM     15  C   UNL     1     -16.671  -8.611 -27.605  0.00  0.00    +0.037 A 
ATOM     16  C   UNL     1     -15.310  -9.103 -27.832  0.00  0.00    +0.013 A 
ATOM     17  C   UNL     1     -15.099 -10.430 -28.355  0.00  0.00    +0.005 A 
ATOM     18  C   UNL     1     -16.253 -11.274 -28.654  0.00  0.00    -0.033 A 
ATOM     28  C   UNL     1     -17.592 -10.762 -28.414  0.00  0.00    +0.005 A 
ATOM     29  C   UNL     1     -17.803  -9.462 -27.902  0.00  0.00    +0.013 A 
BRANCH  18  19
ATOM     19  C   UNL     1     -16.123 -12.695 -29.234  0.00  0.00    +0.119 C 
BRANCH  19  20
ATOM     20  N   UNL     1     -15.891 -12.814 -30.705  0.00  0.00    -0.302 NA
ATOM     21  C   UNL     1     -14.605 -12.107 -31.143  0.00  0.00    +0.066 C 
ATOM     22  C   UNL     1     -14.366 -12.261 -32.680  0.00  0.00    -0.064 C 
ATOM     23  N   UNL     1     -15.573 -11.707 -33.439  0.00  0.00    +0.379 N 
ATOM     24  C   UNL     1     -15.327 -11.797 -34.885  0.00  0.00    -0.096 C 
ATOM     25  H   UNL     1     -15.669 -10.627 -33.178  0.00  0.00    -0.082 HD
ATOM     26  C   UNL     1     -16.857 -12.402 -33.007  0.00  0.00    -0.064 C 
ATOM     27  C   UNL     1     -17.069 -12.268 -31.473  0.00  0.00    +0.066 C 
ENDBRANCH  19  20
ENDBRANCH  18  19
ENDBRANCH  14  15
ENDBRANCH  12  13
TORSDOF 6
ENDMDL
MODEL 5
REMARK VINA RESULT:      -8.8      7.566     13.132
REMARK  Name = C:\Users\Docking\Desktop\test protocol\1iep_ligandH.pdb
REMARK  8 active torsions:
REMARK  status: ('A' for Active; 'I' for Inactive)
REMARK    1  A    between atoms: _5  and  _11
REMARK    2  A    between atoms: _19  and  _21
REMARK    3  A    between atoms: _22  and  _66
REMARK    4  A    between atoms: _27  and  _30
REMARK    5  A    between atoms: _32  and  _33
REMARK    6  A    between atoms: _38  and  _43
REMARK    7  A    between atoms: _43  and  _46
REMARK    8  A    between atoms: _53  and  _55
REMARK                            x       y       z     vdW  Elec       q    Type
REMARK                         _______ _______ _______ _____ _____    ______ ____
ROOT
ATOM     10  C   UNL     1     -18.579  -4.792 -25.776  0.00  0.00    +0.038 A 
ATOM     11  C   UNL     1     -18.337  -4.491 -24.411  0.00  0.00    +0.047 A 
ATOM     12  C   UNL     1     -18.316  -3.117 -23.935  0.00  0.00    +0.035 A 
ATOM     32  C   UNL     1     -18.548  -2.072 -24.877  0.00  0.00    +0.024 A 
ATOM     33  C   UNL     1     -18.795  -2.360 -26.268  0.00  0.00    +0.007 A 
ATOM     34  C   UNL     1     -18.814  -3.714 -26.744  0.00  0.00    -0.029 A 
ATOM     35  C   UNL     1     -19.078  -3.963 -28.247  0.00  0.00    +0.045 C 
ENDROOT
BRANCH  10   9
ATOM      4  C   UNL     1     -16.439  -8.671 -27.622  0.00  0.00    +0.077 A 
ATOM      5  C   UNL     1     -15.207  -7.966 -27.828  0.00  0.00    +0.048 A 
ATOM      6  C   UNL     1     -15.167  -6.605 -27.452  0.00  0.00    +0.116 A 
ATOM      7  N   UNL     1     -16.283  -6.003 -26.911  0.00  0.00    -0.223 NA
ATOM      8  C   UNL     1     -17.456  -6.712 -26.727  0.00  0.00    +0.220 A 
ATOM      9  N   UNL     1     -18.588  -6.129 -26.177  0.00  0.00    -0.283 N 
ATOM     36  H   UNL     1     -19.436  -6.684 -26.065  0.00  0.00    +0.155 HD
ATOM     37  N   UNL     1     -17.520  -8.013 -27.079  0.00  0.00    -0.214 NA
BRANCH   4   3
ATOM      1  C   UNL     1     -15.791 -12.467 -28.311  0.00  0.00    +0.020 A 
ATOM      2  C   UNL     1     -15.547 -11.084 -27.973  0.00  0.00    +0.013 A 
ATOM      3  C   UNL     1     -16.636 -10.115 -27.965  0.00  0.00    +0.019 A 
ATOM     38  C   UNL     1     -17.971 -10.582 -28.307  0.00  0.00    +0.120 A 
ATOM     39  N   UNL     1     -18.176 -11.920 -28.631  0.00  0.00    -0.263 NA
ATOM     40  C   UNL     1     -17.135 -12.861 -28.643  0.00  0.00    +0.111 A 
ENDBRANCH   4   3
ENDBRANCH  10   9
BRANCH  12  13
ATOM     13  N   UNL     1     -18.067  -2.750 -22.563  0.00  0.00    -0.281 N 
ATOM     14  C   UNL     1     -16.855  -2.427 -21.974  0.00  0.00    +0.248 C 
ATOM     30  O   UNL     1     -15.764  -2.613 -22.492  0.00  0.00    -0.270 OA
ATOM     31  H   UNL     1     -18.883  -2.726 -21.952  0.00  0.00    +0.155 HD
BRANCH  14  15
ATOM     15  C   UNL     1     -16.855  -1.824 -20.607  0.00  0.00    +0.037 A 
ATOM     16  C   UNL     1     -17.972  -2.037 -19.682  0.00  0.00    +0.013 A 
ATOM     17  C   UNL     1     -17.955  -1.430 -18.375  0.00  0.00    +0.005 A 
ATOM     18  C   UNL     1     -16.815  -0.604 -17.984  0.00  0.00    -0.033 A 
ATOM     28  C   UNL     1     -15.718  -0.413 -18.919  0.00  0.00    +0.005 A 
ATOM     29  C   UNL     1     -15.732  -1.006 -20.202  0.00  0.00    +0.013 A 
BRANCH  18  19
ATOM     19  C   UNL     1     -16.721   0.100 -16.618  0.00  0.00    +0.119 C 
BRANCH  19  20
ATOM     20  N   UNL     1     -17.821   1.046 -16.259  0.00  0.00    -0.302 NA
ATOM     21  C   UNL     1     -18.009   2.136 -17.317  0.00  0.00    +0.066 C 
ATOM     22  C   UNL     1     -19.178   3.103 -16.937  0.00  0.00    -0.064 C 
ATOM     23  N   UNL     1     -18.899   3.721 -15.566  0.00  0.00    +0.379 N 
ATOM     24  C   UNL     1     -19.967   4.674 -15.232  0.00  0.00    -0.096 C 
ATOM     25  H   UNL     1     -17.945   4.294 -15.641  0.00  0.00    -0.082 HD
ATOM     26  C   UNL     1     -18.708   2.643 -14.508  0.00  0.00    -0.064 C 
ATOM     27  C   UNL     1     -17.564   1.671 -14.910  0.00  0.00    +0.066 C 
ENDBRANCH  19  20
ENDBRANCH  18  19
ENDBRANCH  14  15
ENDBRANCH  12  13
TORSDOF 6
ENDMDL
