MODEL 1
REMARK VINA RESULT:     -10.2      0.000      0.000
REMARK  Name = C:\Users\Docking\Desktop\test protocol\1iep_ligandH.pdb
REMARK  8 active torsions:
REMARK  status: ('A' for Active; 'I' for Inactive)
REMARK    1  A    between atoms: _5  and  _11
REMARK    2  A    between atoms: _19  and  _21
REMARK    3  A    between atoms: _22  and  _66
REMARK    4  A    between atoms: _27  and  _30
REMARK    5  A    between atoms: _32  and  _33
REMARK    6  A    between atoms: _38  and  _43
REMARK    7  A    between atoms: _43  and  _46
REMARK    8  A    between atoms: _53  and  _55
REMARK                            x       y       z     vdW  Elec       q    Type
REMARK                         _______ _______ _______ _____ _____    ______ ____
ROOT
ATOM     10  C   UNL     1      16.050  62.887  10.476  0.00  0.00    +0.038 A 
ATOM     11  C   UNL     1      15.841  64.290  10.452  0.00  0.00    +0.047 A 
ATOM     12  C   UNL     1      16.893  65.201  10.030  0.00  0.00    +0.035 A 
ATOM     32  C   UNL     1      18.146  64.649   9.634  0.00  0.00    +0.024 A 
ATOM     33  C   UNL     1      18.377  63.225   9.652  0.00  0.00    +0.007 A 
ATOM     34  C   UNL     1      17.343  62.322  10.071  0.00  0.00    -0.029 A 
ATOM     35  C   UNL     1      17.648  60.806  10.077  0.00  0.00    +0.045 C 
ENDROOT
BRANCH  10   9
ATOM      4  C   UNL     1      13.632  60.500  13.865  0.00  0.00    +0.077 A 
ATOM      5  C   UNL     1      14.543  60.916  14.892  0.00  0.00    +0.048 A 
ATOM      6  C   UNL     1      15.625  61.738  14.505  0.00  0.00    +0.116 A 
ATOM      7  N   UNL     1      15.774  62.111  13.187  0.00  0.00    -0.223 NA
ATOM      8  C   UNL     1      14.879  61.690  12.221  0.00  0.00    +0.220 A 
ATOM      9  N   UNL     1      15.005  62.059  10.890  0.00  0.00    -0.283 N 
ATOM     36  H   UNL     1      14.328  61.722  10.207  0.00  0.00    +0.155 HD
ATOM     37  N   UNL     1      13.838  60.903  12.565  0.00  0.00    -0.214 NA
BRANCH   4   3
ATOM      1  C   UNL     1      10.943  58.268  15.623  0.00  0.00    +0.020 A 
ATOM      2  C   UNL     1      12.109  59.101  15.434  0.00  0.00    +0.013 A 
ATOM      3  C   UNL     1      12.438  59.632  14.117  0.00  0.00    +0.019 A 
ATOM     38  C   UNL     1      11.560  59.301  13.005  0.00  0.00    +0.120 A 
ATOM     39  N   UNL     1      10.446  58.495  13.217  0.00  0.00    -0.263 NA
ATOM     40  C   UNL     1      10.120  57.976  14.479  0.00  0.00    +0.111 A 
ENDBRANCH   4   3
ENDBRANCH  10   9
BRANCH  12  13
ATOM     13  N   UNL     1      16.741  66.634   9.993  0.00  0.00    -0.281 N 
ATOM     14  C   UNL     1      16.110  67.400   9.026  0.00  0.00    +0.248 C 
ATOM     30  O   UNL     1      15.764  66.982   7.931  0.00  0.00    -0.270 OA
ATOM     31  H   UNL     1      17.149  67.147  10.775  0.00  0.00    +0.155 HD
BRANCH  14  15
ATOM     15  C   UNL     1      15.837  68.841   9.311  0.00  0.00    +0.037 A 
ATOM     16  C   UNL     1      16.683  69.899   8.754  0.00  0.00    +0.013 A 
ATOM     17  C   UNL     1      16.408  71.281   9.058  0.00  0.00    +0.005 A 
ATOM     18  C   UNL     1      15.279  71.612   9.924  0.00  0.00    -0.033 A 
ATOM     28  C   UNL     1      14.452  70.543  10.459  0.00  0.00    +0.005 A 
ATOM     29  C   UNL     1      14.720  69.188  10.164  0.00  0.00    +0.013 A 
BRANCH  18  19
ATOM     19  C   UNL     1      14.924  73.058  10.319  0.00  0.00    +0.119 C 
BRANCH  19  20
ATOM     20  N   UNL     1      15.506  73.582  11.590  0.00  0.00    -0.302 NA
ATOM     21  C   UNL     1      16.953  73.124  11.791  0.00  0.00    +0.066 C 
ATOM     22  C   UNL     1      17.554  73.700  13.115  0.00  0.00    -0.064 C 
ATOM     23  N   UNL     1      16.681  73.272  14.296  0.00  0.00    +0.379 N 
ATOM     24  C   UNL     1      17.275  73.763  15.548  0.00  0.00    -0.096 C 
ATOM     25  H   UNL     1      16.685  72.158  14.334  0.00  0.00    -0.082 HD
ATOM     26  C   UNL     1      15.239  73.721  14.103  0.00  0.00    -0.064 C 
ATOM     27  C   UNL     1      14.662  73.168  12.771  0.00  0.00    +0.066 C 
ENDBRANCH  19  20
ENDBRANCH  18  19
ENDBRANCH  14  15
ENDBRANCH  12  13
TORSDOF 6
ENDMDL
MODEL 2
REMARK VINA RESULT:      -9.5      2.264      3.334
REMARK  Name = C:\Users\Docking\Desktop\test protocol\1iep_ligandH.pdb
REMARK  8 active torsions:
REMARK  status: ('A' for Active; 'I' for Inactive)
REMARK    1  A    between atoms: _5  and  _11
REMARK    2  A    between atoms: _19  and  _21
REMARK    3  A    between atoms: _22  and  _66
REMARK    4  A    between atoms: _27  and  _30
REMARK    5  A    between atoms: _32  and  _33
REMARK    6  A    between atoms: _38  and  _43
REMARK    7  A    between atoms: _43  and  _46
REMARK    8  A    between atoms: _53  and  _55
REMARK                            x       y       z     vdW  Elec       q    Type
REMARK                         _______ _______ _______ _____ _____    ______ ____
ROOT
ATOM     10  C   UNL     1      16.252  62.650  10.540  0.00  0.00    +0.038 A 
ATOM     11  C   UNL     1      16.112  64.060  10.475  0.00  0.00    +0.047 A 
ATOM     12  C   UNL     1      17.223  64.909  10.073  0.00  0.00    +0.035 A 
ATOM     32  C   UNL     1      18.462  64.287   9.743  0.00  0.00    +0.024 A 
ATOM     33  C   UNL     1      18.623  62.856   9.805  0.00  0.00    +0.007 A 
ATOM     34  C   UNL     1      17.531  62.014  10.203  0.00  0.00    -0.029 A 
ATOM     35  C   UNL     1      17.761  60.486  10.258  0.00  0.00    +0.045 C 
ENDROOT
BRANCH  10   9
ATOM      4  C   UNL     1      13.565  60.504  13.889  0.00  0.00    +0.077 A 
ATOM      5  C   UNL     1      14.441  60.923  14.945  0.00  0.00    +0.048 A 
ATOM      6  C   UNL     1      15.576  61.683  14.583  0.00  0.00    +0.116 A 
ATOM      7  N   UNL     1      15.807  61.996  13.261  0.00  0.00    -0.223 NA
ATOM      8  C   UNL     1      14.943  61.574  12.267  0.00  0.00    +0.220 A 
ATOM      9  N   UNL     1      15.152  61.883  10.932  0.00  0.00    -0.283 N 
ATOM     36  H   UNL     1      14.495  61.548  10.228  0.00  0.00    +0.155 HD
ATOM     37  N   UNL     1      13.853  60.846  12.587  0.00  0.00    -0.214 NA
BRANCH   4   3
ATOM      1  C   UNL     1      10.797  58.294  15.548  0.00  0.00    +0.020 A 
ATOM      2  C   UNL     1      12.010  59.061  15.385  0.00  0.00    +0.013 A 
ATOM      3  C   UNL     1      12.323  59.698  14.112  0.00  0.00    +0.019 A 
ATOM     38  C   UNL     1      11.380  59.538  13.015  0.00  0.00    +0.120 A 
ATOM     39  N   UNL     1      10.221  58.792  13.201  0.00  0.00    -0.263 NA
ATOM     40  C   UNL     1       9.909  58.173  14.421  0.00  0.00    +0.111 A 
ENDBRANCH   4   3
ENDBRANCH  10   9
BRANCH  12  13
ATOM     13  N   UNL     1      17.142  66.346   9.996  0.00  0.00    -0.281 N 
ATOM     14  C   UNL     1      17.569  67.169   8.967  0.00  0.00    +0.248 C 
ATOM     30  O   UNL     1      18.282  66.807   8.043  0.00  0.00    -0.270 OA
ATOM     31  H   UNL     1      16.720  66.814  10.798  0.00  0.00    +0.155 HD
BRANCH  14  15
ATOM     15  C   UNL     1      17.155  68.605   8.971  0.00  0.00    +0.037 A 
ATOM     16  C   UNL     1      18.136  69.680   8.800  0.00  0.00    +0.013 A 
ATOM     17  C   UNL     1      17.712  71.057   8.826  0.00  0.00    +0.005 A 
ATOM     18  C   UNL     1      16.298  71.368   9.022  0.00  0.00    -0.033 A 
ATOM     28  C   UNL     1      15.345  70.282   9.184  0.00  0.00    +0.005 A 
ATOM     29  C   UNL     1      15.757  68.931   9.161  0.00  0.00    +0.013 A 
BRANCH  18  19
ATOM     19  C   UNL     1      15.759  72.809   9.084  0.00  0.00    +0.119 C 
BRANCH  19  20
ATOM     20  N   UNL     1      14.548  73.122   8.269  0.00  0.00    -0.302 NA
ATOM     21  C   UNL     1      14.848  73.110   6.767  0.00  0.00    +0.066 C 
ATOM     22  C   UNL     1      13.565  73.418   5.928  0.00  0.00    -0.064 C 
ATOM     23  N   UNL     1      12.991  74.770   6.355  0.00  0.00    +0.379 N 
ATOM     24  C   UNL     1      11.818  75.088   5.529  0.00  0.00    -0.096 C 
ATOM     25  H   UNL     1      13.767  75.545   6.155  0.00  0.00    -0.082 HD
ATOM     26  C   UNL     1      12.693  74.791   7.848  0.00  0.00    -0.064 C 
ATOM     27  C   UNL     1      13.968  74.456   8.671  0.00  0.00    +0.066 C 
ENDBRANCH  19  20
ENDBRANCH  18  19
ENDBRANCH  14  15
ENDBRANCH  12  13
TORSDOF 6
ENDMDL
MODEL 3
REMARK VINA RESULT:      -8.9      3.889      7.052
REMARK  Name = C:\Users\Docking\Desktop\test protocol\1iep_ligandH.pdb
REMARK  8 active torsions:
REMARK  status: ('A' for Active; 'I' for Inactive)
REMARK    1  A    between atoms: _5  and  _11
REMARK    2  A    between atoms: _19  and  _21
REMARK    3  A    between atoms: _22  and  _66
REMARK    4  A    between atoms: _27  and  _30
REMARK    5  A    between atoms: _32  and  _33
REMARK    6  A    between atoms: _38  and  _43
REMARK    7  A    between atoms: _43  and  _46
REMARK    8  A    between atoms: _53  and  _55
REMARK                            x       y       z     vdW  Elec       q    Type
REMARK                         _______ _______ _______ _____ _____    ______ ____
ROOT
ATOM     10  C   UNL     1      18.018  69.391   8.099  0.00  0.00    +0.038 A 
ATOM     11  C   UNL     1      18.051  70.291   9.194  0.00  0.00    +0.047 A 
ATOM     12  C   UNL     1      17.912  71.725   8.994  0.00  0.00    +0.035 A 
ATOM     32  C   UNL     1      17.738  72.208   7.664  0.00  0.00    +0.024 A 
ATOM     33  C   UNL     1      17.703  71.307   6.539  0.00  0.00    +0.007 A 
ATOM     34  C   UNL     1      17.843  69.892   6.730  0.00  0.00    -0.029 A 
ATOM     35  C   UNL     1      17.804  68.974   5.486  0.00  0.00    +0.045 C 
ENDROOT
BRANCH  10   9
ATOM      4  C   UNL     1      16.425  65.233   9.891  0.00  0.00    +0.077 A 
ATOM      5  C   UNL     1      15.228  65.842  10.395  0.00  0.00    +0.048 A 
ATOM      6  C   UNL     1      15.063  67.228  10.179  0.00  0.00    +0.116 A 
ATOM      7  N   UNL     1      16.031  67.943   9.507  0.00  0.00    -0.223 NA
ATOM      8  C   UNL     1      17.174  67.326   9.034  0.00  0.00    +0.220 A 
ATOM      9  N   UNL     1      18.156  68.024   8.348  0.00  0.00    -0.283 N 
ATOM     36  H   UNL     1      18.989  67.534   8.022  0.00  0.00    +0.155 HD
ATOM     37  N   UNL     1      17.355  66.003   9.229  0.00  0.00    -0.214 NA
BRANCH   4   3
ATOM      1  C   UNL     1      16.075  61.367  10.370  0.00  0.00    +0.020 A 
ATOM      2  C   UNL     1      15.716  62.760  10.235  0.00  0.00    +0.013 A 
ATOM      3  C   UNL     1      16.741  63.777  10.037  0.00  0.00    +0.019 A 
ATOM     38  C   UNL     1      18.130  63.348   9.980  0.00  0.00    +0.120 A 
ATOM     39  N   UNL     1      18.446  62.000  10.115  0.00  0.00    -0.263 NA
ATOM     40  C   UNL     1      17.468  61.012  10.307  0.00  0.00    +0.111 A 
ENDBRANCH   4   3
ENDBRANCH  10   9
BRANCH  12  13
ATOM     13  N   UNL     1      17.945  72.688  10.067  0.00  0.00    -0.281 N 
ATOM     14  C   UNL     1      16.954  72.965  10.994  0.00  0.00    +0.248 C 
ATOM     30  O   UNL     1      15.800  72.572  10.910  0.00  0.00    -0.270 OA
ATOM     31  H   UNL     1      18.804  73.232  10.152  0.00  0.00    +0.155 HD
BRANCH  14  15
ATOM     15  C   UNL     1      17.290  73.811  12.180  0.00  0.00    +0.037 A 
ATOM     16  C   UNL     1      18.616  74.417  12.329  0.00  0.00    +0.013 A 
ATOM     17  C   UNL     1      18.919  75.214  13.491  0.00  0.00    +0.005 A 
ATOM     18  C   UNL     1      17.894  75.412  14.512  0.00  0.00    -0.033 A 
ATOM     28  C   UNL     1      16.585  74.803  14.336  0.00  0.00    +0.005 A 
ATOM     29  C   UNL     1      16.285  74.020  13.199  0.00  0.00    +0.013 A 
BRANCH  18  19
ATOM     19  C   UNL     1      18.136  76.230  15.794  0.00  0.00    +0.119 C 
BRANCH  19  20
ATOM     20  N   UNL     1      17.769  75.591  17.093  0.00  0.00    -0.302 NA
ATOM     21  C   UNL     1      17.963  76.543  18.277  0.00  0.00    +0.066 C 
ATOM     22  C   UNL     1      17.553  75.865  19.625  0.00  0.00    -0.064 C 
ATOM     23  N   UNL     1      18.369  74.586  19.819  0.00  0.00    +0.379 N 
ATOM     24  C   UNL     1      18.027  73.978  21.113  0.00  0.00    -0.096 C 
ATOM     25  H   UNL     1      19.445  74.874  19.854  0.00  0.00    -0.082 HD
ATOM     26  C   UNL     1      18.183  73.635  18.645  0.00  0.00    -0.064 C 
ATOM     27  C   UNL     1      18.566  74.328  17.307  0.00  0.00    +0.066 C 
ENDBRANCH  19  20
ENDBRANCH  18  19
ENDBRANCH  14  15
ENDBRANCH  12  13
TORSDOF 6
ENDMDL
MODEL 4
REMARK VINA RESULT:      -8.8      3.460      6.742
REMARK  Name = C:\Users\Docking\Desktop\test protocol\1iep_ligandH.pdb
REMARK  8 active torsions:
REMARK  status: ('A' for Active; 'I' for Inactive)
REMARK    1  A    between atoms: _5  and  _11
REMARK    2  A    between atoms: _19  and  _21
REMARK    3  A    between atoms: _22  and  _66
REMARK    4  A    between atoms: _27  and  _30
REMARK    5  A    between atoms: _32  and  _33
REMARK    6  A    between atoms: _38  and  _43
REMARK    7  A    between atoms: _43  and  _46
REMARK    8  A    between atoms: _53  and  _55
REMARK                            x       y       z     vdW  Elec       q    Type
REMARK                         _______ _______ _______ _____ _____    ______ ____
ROOT
ATOM     10  C   UNL     1      17.423  69.133   8.048  0.00  0.00    +0.038 A 
ATOM     11  C   UNL     1      17.568  69.990   9.169  0.00  0.00    +0.047 A 
ATOM     12  C   UNL     1      17.915  71.393   9.005  0.00  0.00    +0.035 A 
ATOM     32  C   UNL     1      18.105  71.891   7.683  0.00  0.00    +0.024 A 
ATOM     33  C   UNL     1      17.962  71.034   6.532  0.00  0.00    +0.007 A 
ATOM     34  C   UNL     1      17.622  69.649   6.688  0.00  0.00    -0.029 A 
ATOM     35  C   UNL     1      17.489  68.775   5.419  0.00  0.00    +0.045 C 
ENDROOT
BRANCH  10   9
ATOM      4  C   UNL     1      14.564  65.722   9.844  0.00  0.00    +0.077 A 
ATOM      5  C   UNL     1      13.676  66.688  10.423  0.00  0.00    +0.048 A 
ATOM      6  C   UNL     1      13.994  68.053  10.242  0.00  0.00    +0.116 A 
ATOM      7  N   UNL     1      15.119  68.413   9.533  0.00  0.00    -0.223 NA
ATOM      8  C   UNL     1      15.956  67.455   8.989  0.00  0.00    +0.220 A 
ATOM      9  N   UNL     1      17.088  67.794   8.265  0.00  0.00    -0.283 N 
ATOM     36  H   UNL     1      17.684  67.058   7.886  0.00  0.00    +0.155 HD
ATOM     37  N   UNL     1      15.674  66.145   9.149  0.00  0.00    -0.214 NA
BRANCH   4   3
ATOM      1  C   UNL     1      12.910  62.178   9.928  0.00  0.00    +0.020 A 
ATOM      2  C   UNL     1      13.052  63.612   9.822  0.00  0.00    +0.013 A 
ATOM      3  C   UNL     1      14.360  64.242   9.946  0.00  0.00    +0.019 A 
ATOM     38  C   UNL     1      15.514  63.386  10.178  0.00  0.00    +0.120 A 
ATOM     39  N   UNL     1      15.347  62.008  10.277  0.00  0.00    -0.263 NA
ATOM     40  C   UNL     1      14.092  61.391  10.161  0.00  0.00    +0.111 A 
ENDBRANCH   4   3
ENDBRANCH  10   9
BRANCH  12  13
ATOM     13  N   UNL     1      18.084  72.308  10.106  0.00  0.00    -0.281 N 
ATOM     14  C   UNL     1      17.101  72.985  10.809  0.00  0.00    +0.248 C 
ATOM     30  O   UNL     1      15.934  73.070  10.457  0.00  0.00    -0.270 OA
ATOM     31  H   UNL     1      19.045  72.478  10.403  0.00  0.00    +0.155 HD
BRANCH  14  15
ATOM     15  C   UNL     1      17.471  73.679  12.080  0.00  0.00    +0.037 A 
ATOM     16  C   UNL     1      18.526  74.696  12.111  0.00  0.00    +0.013 A 
ATOM     17  C   UNL     1      18.874  75.339  13.353  0.00  0.00    +0.005 A 
ATOM     18  C   UNL     1      18.166  74.966  14.576  0.00  0.00    -0.033 A 
ATOM     28  C   UNL     1      17.121  73.958  14.515  0.00  0.00    +0.005 A 
ATOM     29  C   UNL     1      16.777  73.325  13.300  0.00  0.00    +0.013 A 
BRANCH  18  19
ATOM     19  C   UNL     1      18.487  75.584  15.950  0.00  0.00    +0.119 C 
BRANCH  19  20
ATOM     20  N   UNL     1      17.781  75.016  17.137  0.00  0.00    -0.302 NA
ATOM     21  C   UNL     1      17.137  76.105  17.998  0.00  0.00    +0.066 C 
ATOM     22  C   UNL     1      16.384  75.491  19.223  0.00  0.00    -0.064 C 
ATOM     23  N   UNL     1      17.360  74.654  20.051  0.00  0.00    +0.379 N 
ATOM     24  C   UNL     1      16.670  74.123  21.235  0.00  0.00    -0.096 C 
ATOM     25  H   UNL     1      18.170  75.332  20.407  0.00  0.00    -0.082 HD
ATOM     26  C   UNL     1      18.008  73.570  19.201  0.00  0.00    -0.064 C 
ATOM     27  C   UNL     1      18.728  74.188  17.970  0.00  0.00    +0.066 C 
ENDBRANCH  19  20
ENDBRANCH  18  19
ENDBRANCH  14  15
ENDBRANCH  12  13
TORSDOF 6
ENDMDL
MODEL 5
REMARK VINA RESULT:      -8.5      1.913     12.004
REMARK  Name = C:\Users\Docking\Desktop\test protocol\1iep_ligandH.pdb
REMARK  8 active torsions:
REMARK  status: ('A' for Active; 'I' for Inactive)
REMARK    1  A    between atoms: _5  and  _11
REMARK    2  A    between atoms: _19  and  _21
REMARK    3  A    between atoms: _22  and  _66
REMARK    4  A    between atoms: _27  and  _30
REMARK    5  A    between atoms: _32  and  _33
REMARK    6  A    between atoms: _38  and  _43
REMARK    7  A    between atoms: _43  and  _46
REMARK    8  A    between atoms: _53  and  _55
REMARK                            x       y       z     vdW  Elec       q    Type
REMARK                         _______ _______ _______ _____ _____    ______ ____
ROOT
ATOM     10  C   UNL     1      14.426  71.912  11.322  0.00  0.00    +0.038 A 
ATOM     11  C   UNL     1      14.647  70.517  11.198  0.00  0.00    +0.047 A 
ATOM     12  C   UNL     1      14.139  69.773  10.057  0.00  0.00    +0.035 A 
ATOM     32  C   UNL     1      13.410  70.482   9.058  0.00  0.00    +0.024 A 
ATOM     33  C   UNL     1      13.175  71.900   9.168  0.00  0.00    +0.007 A 
ATOM     34  C   UNL     1      13.672  72.639  10.294  0.00  0.00    -0.029 A 
ATOM     35  C   UNL     1      13.384  74.157  10.364  0.00  0.00    +0.045 C 
ENDROOT
BRANCH  10   9
ATOM      4  C   UNL     1      17.884  74.362  13.575  0.00  0.00    +0.077 A 
ATOM      5  C   UNL     1      18.758  74.288  12.439  0.00  0.00    +0.048 A 
ATOM      6  C   UNL     1      18.282  73.605  11.297  0.00  0.00    +0.116 A 
ATOM      7  N   UNL     1      17.024  73.042  11.302  0.00  0.00    -0.223 NA
ATOM      8  C   UNL     1      16.208  73.129  12.415  0.00  0.00    +0.220 A 
ATOM      9  N   UNL     1      14.937  72.576  12.439  0.00  0.00    -0.283 N 
ATOM     36  H   UNL     1      14.368  72.656  13.282  0.00  0.00    +0.155 HD
ATOM     37  N   UNL     1      16.640  73.775  13.518  0.00  0.00    -0.214 NA
BRANCH   4   3
ATOM      1  C   UNL     1      18.489  75.124  17.363  0.00  0.00    +0.020 A 
ATOM      2  C   UNL     1      18.129  74.413  16.158  0.00  0.00    +0.013 A 
ATOM      3  C   UNL     1      18.243  75.052  14.854  0.00  0.00    +0.019 A 
ATOM     38  C   UNL     1      18.729  76.423  14.803  0.00  0.00    +0.120 A 
ATOM     39  N   UNL     1      19.066  77.084  15.980  0.00  0.00    -0.263 NA
ATOM     40  C   UNL     1      18.959  76.479  17.241  0.00  0.00    +0.111 A 
ENDBRANCH   4   3
ENDBRANCH  10   9
BRANCH  12  13
ATOM     13  N   UNL     1      14.325  68.354   9.881  0.00  0.00    -0.281 N 
ATOM     14  C   UNL     1      15.516  67.665   9.721  0.00  0.00    +0.248 C 
ATOM     30  O   UNL     1      16.594  68.192   9.490  0.00  0.00    -0.270 OA
ATOM     31  H   UNL     1      13.476  67.788   9.873  0.00  0.00    +0.155 HD
BRANCH  14  15
ATOM     15  C   UNL     1      15.507  66.173   9.817  0.00  0.00    +0.037 A 
ATOM     16  C   UNL     1      16.741  65.418  10.050  0.00  0.00    +0.013 A 
ATOM     17  C   UNL     1      16.705  63.979  10.122  0.00  0.00    +0.005 A 
ATOM     18  C   UNL     1      15.430  63.285   9.961  0.00  0.00    -0.033 A 
ATOM     28  C   UNL     1      14.220  64.059   9.737  0.00  0.00    +0.005 A 
ATOM     29  C   UNL     1      14.251  65.470   9.665  0.00  0.00    +0.013 A 
BRANCH  18  19
ATOM     19  C   UNL     1      15.302  61.751  10.002  0.00  0.00    +0.119 C 
BRANCH  19  20
ATOM     20  N   UNL     1      14.915  61.131  11.305  0.00  0.00    -0.302 NA
ATOM     21  C   UNL     1      13.395  61.049  11.473  0.00  0.00    +0.066 C 
ATOM     22  C   UNL     1      13.008  60.378  12.831  0.00  0.00    -0.064 C 
ATOM     23  N   UNL     1      13.639  61.163  13.982  0.00  0.00    +0.379 N 
ATOM     24  C   UNL     1      13.229  60.569  15.263  0.00  0.00    -0.096 C 
ATOM     25  H   UNL     1      13.233  62.201  13.946  0.00  0.00    -0.082 HD
ATOM     26  C   UNL     1      15.150  61.252  13.822  0.00  0.00    -0.064 C 
ATOM     27  C   UNL     1      15.524  61.893  12.456  0.00  0.00    +0.066 C 
ENDBRANCH  19  20
ENDBRANCH  18  19
ENDBRANCH  14  15
ENDBRANCH  12  13
TORSDOF 6
ENDMDL
