MODEL 1
REMARK VINA RESULT:      -8.6      0.000      0.000
REMARK  Name = C:\Users\Docking\Desktop\test protocol\1iep_ligandH.pdb
REMARK  8 active torsions:
REMARK  status: ('A' for Active; 'I' for Inactive)
REMARK    1  A    between atoms: _5  and  _11
REMARK    2  A    between atoms: _19  and  _21
REMARK    3  A    between atoms: _22  and  _66
REMARK    4  A    between atoms: _27  and  _30
REMARK    5  A    between atoms: _32  and  _33
REMARK    6  A    between atoms: _38  and  _43
REMARK    7  A    between atoms: _43  and  _46
REMARK    8  A    between atoms: _53  and  _55
REMARK                            x       y       z     vdW  Elec       q    Type
REMARK                         _______ _______ _______ _____ _____    ______ ____
ROOT
ATOM     10  C   UNL     1      10.277  23.847  16.426  0.00  0.00    +0.038 A 
ATOM     11  C   UNL     1      10.093  22.746  15.551  0.00  0.00    +0.047 A 
ATOM     12  C   UNL     1       9.527  21.493  16.026  0.00  0.00    +0.035 A 
ATOM     32  C   UNL     1       9.156  21.398  17.399  0.00  0.00    +0.024 A 
ATOM     33  C   UNL     1       9.337  22.507  18.303  0.00  0.00    +0.007 A 
ATOM     34  C   UNL     1       9.897  23.744  17.840  0.00  0.00    -0.029 A 
ATOM     35  C   UNL     1      10.074  24.897  18.855  0.00  0.00    +0.045 C 
ENDROOT
BRANCH  10   9
ATOM      4  C   UNL     1      13.987  26.778  15.599  0.00  0.00    +0.077 A 
ATOM      5  C   UNL     1      14.906  25.899  16.263  0.00  0.00    +0.048 A 
ATOM      6  C   UNL     1      14.382  24.706  16.810  0.00  0.00    +0.116 A 
ATOM      7  N   UNL     1      13.038  24.423  16.695  0.00  0.00    -0.223 NA
ATOM      8  C   UNL     1      12.179  25.294  16.050  0.00  0.00    +0.220 A 
ATOM      9  N   UNL     1      10.825  25.026  15.916  0.00  0.00    -0.283 N 
ATOM     36  H   UNL     1      10.223  25.697  15.439  0.00  0.00    +0.155 HD
ATOM     37  N   UNL     1      12.654  26.440  15.521  0.00  0.00    -0.214 NA
BRANCH   4   3
ATOM      1  C   UNL     1      15.500  30.339  15.022  0.00  0.00    +0.020 A 
ATOM      2  C   UNL     1      15.136  29.104  15.679  0.00  0.00    +0.013 A 
ATOM      3  C   UNL     1      14.388  28.075  14.968  0.00  0.00    +0.019 A 
ATOM     38  C   UNL     1      14.022  28.328  13.582  0.00  0.00    +0.120 A 
ATOM     39  N   UNL     1      14.384  29.527  12.977  0.00  0.00    -0.263 NA
ATOM     40  C   UNL     1      15.102  30.525  13.651  0.00  0.00    +0.111 A 
ENDBRANCH   4   3
ENDBRANCH  10   9
BRANCH  12  13
ATOM     13  N   UNL     1       9.324  20.339  15.186  0.00  0.00    -0.281 N 
ATOM     14  C   UNL     1       8.142  19.658  14.946  0.00  0.00    +0.248 C 
ATOM     30  O   UNL     1       7.114  19.810  15.589  0.00  0.00    -0.270 OA
ATOM     31  H   UNL     1      10.152  19.981  14.711  0.00  0.00    +0.155 HD
BRANCH  14  15
ATOM     15  C   UNL     1       8.100  18.651  13.842  0.00  0.00    +0.037 A 
ATOM     16  C   UNL     1       9.244  17.778  13.566  0.00  0.00    +0.013 A 
ATOM     17  C   UNL     1       9.183  16.828  12.483  0.00  0.00    +0.005 A 
ATOM     18  C   UNL     1       7.973  16.746  11.669  0.00  0.00    -0.033 A 
ATOM     28  C   UNL     1       6.852  17.621  11.968  0.00  0.00    +0.005 A 
ATOM     29  C   UNL     1       6.907  18.554  13.028  0.00  0.00    +0.013 A 
BRANCH  18  19
ATOM     19  C   UNL     1       7.829  15.776  10.481  0.00  0.00    +0.119 C 
BRANCH  19  20
ATOM     20  N   UNL     1       6.814  14.687  10.606  0.00  0.00    -0.302 NA
ATOM     21  C   UNL     1       7.015  13.859  11.879  0.00  0.00    +0.066 C 
ATOM     22  C   UNL     1       5.931  12.739  12.005  0.00  0.00    -0.064 C 
ATOM     23  N   UNL     1       5.978  11.846  10.765  0.00  0.00    +0.379 N 
ATOM     24  C   UNL     1       5.000  10.757  10.907  0.00  0.00    -0.096 C 
ATOM     25  H   UNL     1       6.993  11.386  10.718  0.00  0.00    -0.082 HD
ATOM     26  C   UNL     1       5.782  12.662   9.495  0.00  0.00    -0.064 C 
ATOM     27  C   UNL     1       6.846  13.791   9.393  0.00  0.00    +0.066 C 
ENDBRANCH  19  20
ENDBRANCH  18  19
ENDBRANCH  14  15
ENDBRANCH  12  13
TORSDOF 6
ENDMDL
MODEL 2
REMARK VINA RESULT:      -8.5      6.429     11.718
REMARK  Name = C:\Users\Docking\Desktop\test protocol\1iep_ligandH.pdb
REMARK  8 active torsions:
REMARK  status: ('A' for Active; 'I' for Inactive)
REMARK    1  A    between atoms: _5  and  _11
REMARK    2  A    between atoms: _19  and  _21
REMARK    3  A    between atoms: _22  and  _66
REMARK    4  A    between atoms: _27  and  _30
REMARK    5  A    between atoms: _32  and  _33
REMARK    6  A    between atoms: _38  and  _43
REMARK    7  A    between atoms: _43  and  _46
REMARK    8  A    between atoms: _53  and  _55
REMARK                            x       y       z     vdW  Elec       q    Type
REMARK                         _______ _______ _______ _____ _____    ______ ____
ROOT
ATOM     10  C   UNL     1      17.138  33.078  15.251  0.00  0.00    +0.038 A 
ATOM     11  C   UNL     1      16.593  31.819  15.612  0.00  0.00    +0.047 A 
ATOM     12  C   UNL     1      15.395  31.305  14.967  0.00  0.00    +0.035 A 
ATOM     32  C   UNL     1      14.779  32.098  13.956  0.00  0.00    +0.024 A 
ATOM     33  C   UNL     1      15.319  33.381  13.577  0.00  0.00    +0.007 A 
ATOM     34  C   UNL     1      16.499  33.894  14.212  0.00  0.00    -0.029 A 
ATOM     35  C   UNL     1      17.030  35.278  13.771  0.00  0.00    +0.045 C 
ENDROOT
BRANCH  10   9
ATOM      4  C   UNL     1      19.376  35.087  18.992  0.00  0.00    +0.077 A 
ATOM      5  C   UNL     1      18.143  35.292  19.695  0.00  0.00    +0.048 A 
ATOM      6  C   UNL     1      16.954  34.873  19.057  0.00  0.00    +0.116 A 
ATOM      7  N   UNL     1      17.007  34.293  17.808  0.00  0.00    -0.223 NA
ATOM      8  C   UNL     1      18.213  34.111  17.156  0.00  0.00    +0.220 A 
ATOM      9  N   UNL     1      18.291  33.523  15.903  0.00  0.00    -0.283 N 
ATOM     36  H   UNL     1      19.199  33.413  15.453  0.00  0.00    +0.155 HD
ATOM     37  N   UNL     1      19.362  34.504  17.744  0.00  0.00    -0.214 NA
BRANCH   4   3
ATOM      1  C   UNL     1      23.232  35.605  19.401  0.00  0.00    +0.020 A 
ATOM      2  C   UNL     1      21.964  35.211  18.831  0.00  0.00    +0.013 A 
ATOM      3  C   UNL     1      20.716  35.474  19.536  0.00  0.00    +0.019 A 
ATOM     38  C   UNL     1      20.786  36.144  20.826  0.00  0.00    +0.120 A 
ATOM     39  N   UNL     1      22.022  36.511  21.351  0.00  0.00    -0.263 NA
ATOM     40  C   UNL     1      23.229  36.261  20.682  0.00  0.00    +0.111 A 
ENDBRANCH   4   3
ENDBRANCH  10   9
BRANCH  12  13
ATOM     13  N   UNL     1      14.792  30.038  15.297  0.00  0.00    -0.281 N 
ATOM     14  C   UNL     1      14.743  28.890  14.523  0.00  0.00    +0.248 C 
ATOM     30  O   UNL     1      15.027  28.845  13.335  0.00  0.00    -0.270 OA
ATOM     31  H   UNL     1      14.347  29.980  16.213  0.00  0.00    +0.155 HD
BRANCH  14  15
ATOM     15  C   UNL     1      14.301  27.610  15.155  0.00  0.00    +0.037 A 
ATOM     16  C   UNL     1      15.237  26.774  15.911  0.00  0.00    +0.013 A 
ATOM     17  C   UNL     1      14.789  25.535  16.497  0.00  0.00    +0.005 A 
ATOM     18  C   UNL     1      13.396  25.127  16.330  0.00  0.00    -0.033 A 
ATOM     28  C   UNL     1      12.488  25.978  15.580  0.00  0.00    +0.005 A 
ATOM     29  C   UNL     1      12.924  27.192  15.004  0.00  0.00    +0.013 A 
BRANCH  18  19
ATOM     19  C   UNL     1      12.836  23.811  16.903  0.00  0.00    +0.119 C 
BRANCH  19  20
ATOM     20  N   UNL     1      11.351  23.682  16.994  0.00  0.00    -0.302 NA
ATOM     21  C   UNL     1      10.817  24.140  18.354  0.00  0.00    +0.066 C 
ATOM     22  C   UNL     1       9.260  24.020  18.424  0.00  0.00    -0.064 C 
ATOM     23  N   UNL     1       8.850  22.574  18.139  0.00  0.00    +0.379 N 
ATOM     24  C   UNL     1       7.390  22.445  18.261  0.00  0.00    -0.096 C 
ATOM     25  H   UNL     1       9.313  21.931  18.924  0.00  0.00    -0.082 HD
ATOM     26  C   UNL     1       9.379  22.109  16.790  0.00  0.00    -0.064 C 
ATOM     27  C   UNL     1      10.925  22.261  16.721  0.00  0.00    +0.066 C 
ENDBRANCH  19  20
ENDBRANCH  18  19
ENDBRANCH  14  15
ENDBRANCH  12  13
TORSDOF 6
ENDMDL
MODEL 3
REMARK VINA RESULT:      -8.4     12.960     16.046
REMARK  Name = C:\Users\Docking\Desktop\test protocol\1iep_ligandH.pdb
REMARK  8 active torsions:
REMARK  status: ('A' for Active; 'I' for Inactive)
REMARK    1  A    between atoms: _5  and  _11
REMARK    2  A    between atoms: _19  and  _21
REMARK    3  A    between atoms: _22  and  _66
REMARK    4  A    between atoms: _27  and  _30
REMARK    5  A    between atoms: _32  and  _33
REMARK    6  A    between atoms: _38  and  _43
REMARK    7  A    between atoms: _43  and  _46
REMARK    8  A    between atoms: _53  and  _55
REMARK                            x       y       z     vdW  Elec       q    Type
REMARK                         _______ _______ _______ _____ _____    ______ ____
ROOT
ATOM     10  C   UNL     1      17.151  31.591  19.288  0.00  0.00    +0.038 A 
ATOM     11  C   UNL     1      16.520  32.021  18.093  0.00  0.00    +0.047 A 
ATOM     12  C   UNL     1      16.853  31.424  16.809  0.00  0.00    +0.035 A 
ATOM     32  C   UNL     1      17.832  30.389  16.779  0.00  0.00    +0.024 A 
ATOM     33  C   UNL     1      18.484  29.940  17.984  0.00  0.00    +0.007 A 
ATOM     34  C   UNL     1      18.161  30.526  19.253  0.00  0.00    -0.029 A 
ATOM     35  C   UNL     1      18.896  30.010  20.512  0.00  0.00    +0.045 C 
ENDROOT
BRANCH  10   9
ATOM      4  C   UNL     1      17.448  35.163  22.480  0.00  0.00    +0.077 A 
ATOM      5  C   UNL     1      18.419  35.866  21.692  0.00  0.00    +0.048 A 
ATOM      6  C   UNL     1      18.821  35.270  20.475  0.00  0.00    +0.116 A 
ATOM      7  N   UNL     1      18.285  34.062  20.085  0.00  0.00    -0.223 NA
ATOM      8  C   UNL     1      17.351  33.410  20.870  0.00  0.00    +0.220 A 
ATOM      9  N   UNL     1      16.792  32.198  20.494  0.00  0.00    -0.283 N 
ATOM     36  H   UNL     1      16.112  31.746  21.104  0.00  0.00    +0.155 HD
ATOM     37  N   UNL     1      16.952  33.958  22.037  0.00  0.00    -0.214 NA
BRANCH   4   3
ATOM      1  C   UNL     1      16.688  35.551  26.297  0.00  0.00    +0.020 A 
ATOM      2  C   UNL     1      17.223  35.026  25.062  0.00  0.00    +0.013 A 
ATOM      3  C   UNL     1      16.921  35.666  23.788  0.00  0.00    +0.019 A 
ATOM     38  C   UNL     1      16.069  36.846  23.798  0.00  0.00    +0.120 A 
ATOM     39  N   UNL     1      15.568  37.328  25.003  0.00  0.00    -0.263 NA
ATOM     40  C   UNL     1      15.850  36.720  26.235  0.00  0.00    +0.111 A 
ENDBRANCH   4   3
ENDBRANCH  10   9
BRANCH  12  13
ATOM     13  N   UNL     1      16.251  31.826  15.562  0.00  0.00    -0.281 N 
ATOM     14  C   UNL     1      15.089  31.343  14.983  0.00  0.00    +0.248 C 
ATOM     30  O   UNL     1      14.501  30.336  15.348  0.00  0.00    -0.270 OA
ATOM     31  H   UNL     1      16.742  32.554  15.043  0.00  0.00    +0.155 HD
BRANCH  14  15
ATOM     15  C   UNL     1      14.503  32.077  13.820  0.00  0.00    +0.037 A 
ATOM     16  C   UNL     1      14.929  33.439  13.489  0.00  0.00    +0.013 A 
ATOM     17  C   UNL     1      14.335  34.131  12.372  0.00  0.00    +0.005 A 
ATOM     18  C   UNL     1      13.309  33.460  11.577  0.00  0.00    -0.033 A 
ATOM     28  C   UNL     1      12.910  32.106  11.925  0.00  0.00    +0.005 A 
ATOM     29  C   UNL     1      13.489  31.426  13.019  0.00  0.00    +0.013 A 
BRANCH  18  19
ATOM     19  C   UNL     1      12.607  34.130  10.381  0.00  0.00    +0.119 C 
BRANCH  19  20
ATOM     20  N   UNL     1      13.402  35.107   9.581  0.00  0.00    -0.302 NA
ATOM     21  C   UNL     1      12.737  35.427   8.239  0.00  0.00    +0.066 C 
ATOM     22  C   UNL     1      13.572  36.469   7.424  0.00  0.00    -0.064 C 
ATOM     23  N   UNL     1      14.987  35.930   7.212  0.00  0.00    +0.379 N 
ATOM     24  C   UNL     1      15.757  36.881   6.397  0.00  0.00    -0.096 C 
ATOM     25  H   UNL     1      14.905  34.980   6.635  0.00  0.00    -0.082 HD
ATOM     26  C   UNL     1      15.655  35.607   8.541  0.00  0.00    -0.064 C 
ATOM     27  C   UNL     1      14.803  34.594   9.356  0.00  0.00    +0.066 C 
ENDBRANCH  19  20
ENDBRANCH  18  19
ENDBRANCH  14  15
ENDBRANCH  12  13
TORSDOF 6
ENDMDL
MODEL 4
REMARK VINA RESULT:      -8.2      8.568     13.817
REMARK  Name = C:\Users\Docking\Desktop\test protocol\1iep_ligandH.pdb
REMARK  8 active torsions:
REMARK  status: ('A' for Active; 'I' for Inactive)
REMARK    1  A    between atoms: _5  and  _11
REMARK    2  A    between atoms: _19  and  _21
REMARK    3  A    between atoms: _22  and  _66
REMARK    4  A    between atoms: _27  and  _30
REMARK    5  A    between atoms: _32  and  _33
REMARK    6  A    between atoms: _38  and  _43
REMARK    7  A    between atoms: _43  and  _46
REMARK    8  A    between atoms: _53  and  _55
REMARK                            x       y       z     vdW  Elec       q    Type
REMARK                         _______ _______ _______ _____ _____    ______ ____
ROOT
ATOM     10  C   UNL     1       5.793  16.245  11.080  0.00  0.00    +0.038 A 
ATOM     11  C   UNL     1       6.696  15.921  10.036  0.00  0.00    +0.047 A 
ATOM     12  C   UNL     1       7.956  16.633   9.882  0.00  0.00    +0.035 A 
ATOM     32  C   UNL     1       8.265  17.667  10.812  0.00  0.00    +0.024 A 
ATOM     33  C   UNL     1       7.359  18.010  11.879  0.00  0.00    +0.007 A 
ATOM     34  C   UNL     1       6.114  17.314  12.035  0.00  0.00    -0.029 A 
ATOM     35  C   UNL     1       5.178  17.728  13.194  0.00  0.00    +0.045 C 
ENDROOT
BRANCH  10   9
ATOM      4  C   UNL     1       3.338  12.194  11.849  0.00  0.00    +0.077 A 
ATOM      5  C   UNL     1       4.538  11.432  12.038  0.00  0.00    +0.048 A 
ATOM      6  C   UNL     1       5.768  12.119  11.923  0.00  0.00    +0.116 A 
ATOM      7  N   UNL     1       5.783  13.467  11.639  0.00  0.00    -0.223 NA
ATOM      8  C   UNL     1       4.607  14.172  11.460  0.00  0.00    +0.220 A 
ATOM      9  N   UNL     1       4.598  15.530  11.181  0.00  0.00    -0.283 N 
ATOM     36  H   UNL     1       3.709  16.012  11.049  0.00  0.00    +0.155 HD
ATOM     37  N   UNL     1       3.420  13.538  11.564  0.00  0.00    -0.214 NA
BRANCH   4   3
ATOM      1  C   UNL     1       0.206   9.911  11.315  0.00  0.00    +0.020 A 
ATOM      2  C   UNL     1       1.547  10.434  11.188  0.00  0.00    +0.013 A 
ATOM      3  C   UNL     1       1.962  11.611  11.942  0.00  0.00    +0.019 A 
ATOM     38  C   UNL     1       0.988  12.238  12.823  0.00  0.00    +0.120 A 
ATOM     39  N   UNL     1      -0.296  11.713  12.923  0.00  0.00    -0.263 NA
ATOM     40  C   UNL     1      -0.707  10.582  12.201  0.00  0.00    +0.111 A 
ENDBRANCH   4   3
ENDBRANCH  10   9
BRANCH  12  13
ATOM     13  N   UNL     1       8.908  16.353   8.835  0.00  0.00    -0.281 N 
ATOM     14  C   UNL     1       9.741  15.254   8.714  0.00  0.00    +0.248 C 
ATOM     30  O   UNL     1       9.948  14.442   9.604  0.00  0.00    -0.270 OA
ATOM     31  H   UNL     1       8.976  17.051   8.094  0.00  0.00    +0.155 HD
BRANCH  14  15
ATOM     15  C   UNL     1      10.460  15.031   7.423  0.00  0.00    +0.037 A 
ATOM     16  C   UNL     1       9.806  15.284   6.136  0.00  0.00    +0.013 A 
ATOM     17  C   UNL     1      10.517  15.045   4.905  0.00  0.00    +0.005 A 
ATOM     18  C   UNL     1      11.891  14.552   4.955  0.00  0.00    -0.033 A 
ATOM     28  C   UNL     1      12.517  14.315   6.245  0.00  0.00    +0.005 A 
ATOM     29  C   UNL     1      11.824  14.547   7.454  0.00  0.00    +0.013 A 
BRANCH  18  19
ATOM     19  C   UNL     1      12.718  14.249   3.691  0.00  0.00    +0.119 C 
BRANCH  19  20
ATOM     20  N   UNL     1      12.236  13.146   2.807  0.00  0.00    -0.302 NA
ATOM     21  C   UNL     1      11.811  11.912   3.608  0.00  0.00    +0.066 C 
ATOM     22  C   UNL     1      11.290  10.776   2.669  0.00  0.00    -0.064 C 
ATOM     23  N   UNL     1      12.377  10.416   1.656  0.00  0.00    +0.379 N 
ATOM     24  C   UNL     1      11.911   9.308   0.809  0.00  0.00    -0.096 C 
ATOM     25  H   UNL     1      13.265  10.055   2.227  0.00  0.00    -0.082 HD
ATOM     26  C   UNL     1      12.808  11.638   0.857  0.00  0.00    -0.064 C 
ATOM     27  C   UNL     1      13.297  12.771   1.801  0.00  0.00    +0.066 C 
ENDBRANCH  19  20
ENDBRANCH  18  19
ENDBRANCH  14  15
ENDBRANCH  12  13
TORSDOF 6
ENDMDL
MODEL 5
REMARK VINA RESULT:      -8.1     10.132     14.813
REMARK  Name = C:\Users\Docking\Desktop\test protocol\1iep_ligandH.pdb
REMARK  8 active torsions:
REMARK  status: ('A' for Active; 'I' for Inactive)
REMARK    1  A    between atoms: _5  and  _11
REMARK    2  A    between atoms: _19  and  _21
REMARK    3  A    between atoms: _22  and  _66
REMARK    4  A    between atoms: _27  and  _30
REMARK    5  A    between atoms: _32  and  _33
REMARK    6  A    between atoms: _38  and  _43
REMARK    7  A    between atoms: _43  and  _46
REMARK    8  A    between atoms: _53  and  _55
REMARK                            x       y       z     vdW  Elec       q    Type
REMARK                         _______ _______ _______ _____ _____    ______ ____
ROOT
ATOM     10  C   UNL     1       6.135  14.188  11.042  0.00  0.00    +0.038 A 
ATOM     11  C   UNL     1       6.699  14.040   9.749  0.00  0.00    +0.047 A 
ATOM     12  C   UNL     1       8.121  14.238   9.520  0.00  0.00    +0.035 A 
ATOM     32  C   UNL     1       8.942  14.584  10.633  0.00  0.00    +0.024 A 
ATOM     33  C   UNL     1       8.386  14.740  11.954  0.00  0.00    +0.007 A 
ATOM     34  C   UNL     1       6.983  14.548  12.185  0.00  0.00    -0.029 A 
ATOM     35  C   UNL     1       6.441  14.735  13.621  0.00  0.00    +0.045 C 
ENDROOT
BRANCH  10   9
ATOM      4  C   UNL     1       2.306  11.338  11.540  0.00  0.00    +0.077 A 
ATOM      5  C   UNL     1       3.104  10.149  11.442  0.00  0.00    +0.048 A 
ATOM      6  C   UNL     1       4.495  10.315  11.257  0.00  0.00    +0.116 A 
ATOM      7  N   UNL     1       5.037  11.580  11.177  0.00  0.00    -0.223 NA
ATOM      8  C   UNL     1       4.238  12.705  11.274  0.00  0.00    +0.220 A 
ATOM      9  N   UNL     1       4.763  13.987  11.204  0.00  0.00    -0.283 N 
ATOM     36  H   UNL     1       4.140  14.791  11.272  0.00  0.00    +0.155 HD
ATOM     37  N   UNL     1       2.907  12.573  11.449  0.00  0.00    -0.214 NA
BRANCH   4   3
ATOM      1  C   UNL     1      -1.522  10.698  11.052  0.00  0.00    +0.020 A 
ATOM      2  C   UNL     1      -0.097  10.680  10.812  0.00  0.00    +0.013 A 
ATOM      3  C   UNL     1       0.822  11.326  11.740  0.00  0.00    +0.019 A 
ATOM     38  C   UNL     1       0.264  11.986  12.911  0.00  0.00    +0.120 A 
ATOM     39  N   UNL     1      -1.112  11.988  13.115  0.00  0.00    -0.263 NA
ATOM     40  C   UNL     1      -2.007  11.371  12.228  0.00  0.00    +0.111 A 
ENDBRANCH   4   3
ENDBRANCH  10   9
BRANCH  12  13
ATOM     13  N   UNL     1       8.748  14.108   8.228  0.00  0.00    -0.281 N 
ATOM     14  C   UNL     1       9.430  15.078   7.512  0.00  0.00    +0.248 C 
ATOM     30  O   UNL     1       9.420  16.271   7.780  0.00  0.00    -0.270 OA
ATOM     31  H   UNL     1       8.681  13.190   7.789  0.00  0.00    +0.155 HD
BRANCH  14  15
ATOM     15  C   UNL     1      10.226  14.666   6.316  0.00  0.00    +0.037 A 
ATOM     16  C   UNL     1      11.517  13.988   6.459  0.00  0.00    +0.013 A 
ATOM     17  C   UNL     1      12.273  13.617   5.289  0.00  0.00    +0.005 A 
ATOM     18  C   UNL     1      11.738  13.922   3.965  0.00  0.00    -0.033 A 
ATOM     28  C   UNL     1      10.453  14.591   3.851  0.00  0.00    +0.005 A 
ATOM     29  C   UNL     1       9.710  14.957   4.996  0.00  0.00    +0.013 A 
BRANCH  18  19
ATOM     19  C   UNL     1      12.486  13.582   2.662  0.00  0.00    +0.119 C 
BRANCH  19  20
ATOM     20  N   UNL     1      12.678  12.136   2.341  0.00  0.00    -0.302 NA
ATOM     21  C   UNL     1      13.201  11.927   0.918  0.00  0.00    +0.066 C 
ATOM     22  C   UNL     1      13.417  10.410   0.607  0.00  0.00    -0.064 C 
ATOM     23  N   UNL     1      12.102   9.658   0.816  0.00  0.00    +0.379 N 
ATOM     24  C   UNL     1      12.287   8.241   0.469  0.00  0.00    -0.096 C 
ATOM     25  H   UNL     1      11.352  10.084   0.110  0.00  0.00    -0.082 HD
ATOM     26  C   UNL     1      11.573   9.862   2.229  0.00  0.00    -0.064 C 
ATOM     27  C   UNL     1      11.390  11.374   2.538  0.00  0.00    +0.066 C 
ENDBRANCH  19  20
ENDBRANCH  18  19
ENDBRANCH  14  15
ENDBRANCH  12  13
TORSDOF 6
ENDMDL
