MODEL 1
REMARK VINA RESULT:     -10.2      0.000      0.000
REMARK  Name = C:\Users\Docking\Desktop\test protocol\1iep_ligandH.pdb
REMARK  8 active torsions:
REMARK  status: ('A' for Active; 'I' for Inactive)
REMARK    1  A    between atoms: _5  and  _11
REMARK    2  A    between atoms: _19  and  _21
REMARK    3  A    between atoms: _22  and  _66
REMARK    4  A    between atoms: _27  and  _30
REMARK    5  A    between atoms: _32  and  _33
REMARK    6  A    between atoms: _38  and  _43
REMARK    7  A    between atoms: _43  and  _46
REMARK    8  A    between atoms: _53  and  _55
REMARK                            x       y       z     vdW  Elec       q    Type
REMARK                         _______ _______ _______ _____ _____    ______ ____
ROOT
ATOM     10  C   UNL     1      24.837 193.560   2.089  0.00  0.00    +0.038 A 
ATOM     11  C   UNL     1      24.000 194.653   2.432  0.00  0.00    +0.047 A 
ATOM     12  C   UNL     1      23.424 195.511   1.408  0.00  0.00    +0.035 A 
ATOM     32  C   UNL     1      23.719 195.225   0.043  0.00  0.00    +0.024 A 
ATOM     33  C   UNL     1      24.568 194.119  -0.324  0.00  0.00    +0.007 A 
ATOM     34  C   UNL     1      25.141 193.271   0.682  0.00  0.00    -0.029 A 
ATOM     35  C   UNL     1      26.049 192.103   0.231  0.00  0.00    +0.045 C 
ENDROOT
BRANCH  10   9
ATOM      4  C   UNL     1      24.809 189.625   4.837  0.00  0.00    +0.077 A 
ATOM      5  C   UNL     1      23.631 189.115   4.197  0.00  0.00    +0.048 A 
ATOM      6  C   UNL     1      23.059 189.899   3.170  0.00  0.00    +0.116 A 
ATOM      7  N   UNL     1      23.631 191.102   2.818  0.00  0.00    -0.223 NA
ATOM      8  C   UNL     1      24.766 191.566   3.456  0.00  0.00    +0.220 A 
ATOM      9  N   UNL     1      25.363 192.769   3.112  0.00  0.00    -0.283 N 
ATOM     36  H   UNL     1      26.195 193.080   3.612  0.00  0.00    +0.155 HD
ATOM     37  N   UNL     1      25.331 190.837   4.441  0.00  0.00    -0.214 NA
BRANCH   4   3
ATOM      1  C   UNL     1      26.206 186.824   7.183  0.00  0.00    +0.020 A 
ATOM      2  C   UNL     1      25.490 187.464   6.104  0.00  0.00    +0.013 A 
ATOM      3  C   UNL     1      25.532 188.911   5.937  0.00  0.00    +0.019 A 
ATOM     38  C   UNL     1      26.315 189.688   6.886  0.00  0.00    +0.120 A 
ATOM     39  N   UNL     1      26.993 189.044   7.917  0.00  0.00    -0.263 NA
ATOM     40  C   UNL     1      26.958 187.652   8.088  0.00  0.00    +0.111 A 
ENDBRANCH   4   3
ENDBRANCH  10   9
BRANCH  12  13
ATOM     13  N   UNL     1      22.574 196.639   1.697  0.00  0.00    -0.281 N 
ATOM     14  C   UNL     1      22.531 197.861   1.046  0.00  0.00    +0.248 C 
ATOM     30  O   UNL     1      23.370 198.248   0.246  0.00  0.00    -0.270 OA
ATOM     31  H   UNL     1      21.927 196.523   2.477  0.00  0.00    +0.155 HD
BRANCH  14  15
ATOM     15  C   UNL     1      21.399 198.794   1.336  0.00  0.00    +0.037 A 
ATOM     16  C   UNL     1      20.759 199.566   0.269  0.00  0.00    +0.013 A 
ATOM     17  C   UNL     1      19.681 200.472   0.578  0.00  0.00    +0.005 A 
ATOM     18  C   UNL     1      19.235 200.608   1.963  0.00  0.00    -0.033 A 
ATOM     28  C   UNL     1      19.884 199.825   3.001  0.00  0.00    +0.005 A 
ATOM     29  C   UNL     1      20.942 198.937   2.702  0.00  0.00    +0.013 A 
BRANCH  18  19
ATOM     19  C   UNL     1      18.106 201.565   2.387  0.00  0.00    +0.119 C 
BRANCH  19  20
ATOM     20  N   UNL     1      17.723 201.573   3.831  0.00  0.00    -0.302 NA
ATOM     21  C   UNL     1      16.307 201.035   4.053  0.00  0.00    +0.066 C 
ATOM     22  C   UNL     1      15.931 201.030   5.571  0.00  0.00    -0.064 C 
ATOM     23  N   UNL     1      16.067 202.447   6.132  0.00  0.00    +0.379 N 
ATOM     24  C   UNL     1      15.659 202.456   7.544  0.00  0.00    -0.096 C 
ATOM     25  H   UNL     1      15.360 203.101   5.571  0.00  0.00    -0.082 HD
ATOM     26  C   UNL     1      17.472 202.990   5.913  0.00  0.00    -0.064 C 
ATOM     27  C   UNL     1      17.846 202.964   4.404  0.00  0.00    +0.066 C 
ENDBRANCH  19  20
ENDBRANCH  18  19
ENDBRANCH  14  15
ENDBRANCH  12  13
TORSDOF 6
ENDMDL
MODEL 2
REMARK VINA RESULT:     -10.1      1.324      1.839
REMARK  Name = C:\Users\Docking\Desktop\test protocol\1iep_ligandH.pdb
REMARK  8 active torsions:
REMARK  status: ('A' for Active; 'I' for Inactive)
REMARK    1  A    between atoms: _5  and  _11
REMARK    2  A    between atoms: _19  and  _21
REMARK    3  A    between atoms: _22  and  _66
REMARK    4  A    between atoms: _27  and  _30
REMARK    5  A    between atoms: _32  and  _33
REMARK    6  A    between atoms: _38  and  _43
REMARK    7  A    between atoms: _43  and  _46
REMARK    8  A    between atoms: _53  and  _55
REMARK                            x       y       z     vdW  Elec       q    Type
REMARK                         _______ _______ _______ _____ _____    ______ ____
ROOT
ATOM     10  C   UNL     1      24.819 193.327   1.965  0.00  0.00    +0.038 A 
ATOM     11  C   UNL     1      23.955 194.412   2.265  0.00  0.00    +0.047 A 
ATOM     12  C   UNL     1      23.371 195.223   1.207  0.00  0.00    +0.035 A 
ATOM     32  C   UNL     1      23.685 194.898  -0.145  0.00  0.00    +0.024 A 
ATOM     33  C   UNL     1      24.561 193.799  -0.467  0.00  0.00    +0.007 A 
ATOM     34  C   UNL     1      25.143 192.998   0.572  0.00  0.00    -0.029 A 
ATOM     35  C   UNL     1      26.081 191.837   0.168  0.00  0.00    +0.045 C 
ENDROOT
BRANCH  10   9
ATOM      4  C   UNL     1      24.820 189.512   4.877  0.00  0.00    +0.077 A 
ATOM      5  C   UNL     1      23.642 188.969   4.263  0.00  0.00    +0.048 A 
ATOM      6  C   UNL     1      23.063 189.706   3.206  0.00  0.00    +0.116 A 
ATOM      7  N   UNL     1      23.628 190.896   2.801  0.00  0.00    -0.223 NA
ATOM      8  C   UNL     1      24.763 191.392   3.416  0.00  0.00    +0.220 A 
ATOM      9  N   UNL     1      25.352 192.583   3.020  0.00  0.00    -0.283 N 
ATOM     36  H   UNL     1      26.184 192.919   3.504  0.00  0.00    +0.155 HD
ATOM     37  N   UNL     1      25.334 190.708   4.428  0.00  0.00    -0.214 NA
BRANCH   4   3
ATOM      1  C   UNL     1      26.272 186.814   7.309  0.00  0.00    +0.020 A 
ATOM      2  C   UNL     1      25.551 187.404   6.205  0.00  0.00    +0.013 A 
ATOM      3  C   UNL     1      25.549 188.848   6.003  0.00  0.00    +0.019 A 
ATOM     38  C   UNL     1      26.293 189.672   6.944  0.00  0.00    +0.120 A 
ATOM     39  N   UNL     1      26.977 189.075   7.999  0.00  0.00    -0.263 NA
ATOM     40  C   UNL     1      26.984 187.688   8.203  0.00  0.00    +0.111 A 
ENDBRANCH   4   3
ENDBRANCH  10   9
BRANCH  12  13
ATOM     13  N   UNL     1      22.494 196.341   1.451  0.00  0.00    -0.281 N 
ATOM     14  C   UNL     1      22.794 197.691   1.370  0.00  0.00    +0.248 C 
ATOM     30  O   UNL     1      23.925 198.144   1.284  0.00  0.00    -0.270 OA
ATOM     31  H   UNL     1      21.536 196.109   1.715  0.00  0.00    +0.155 HD
BRANCH  14  15
ATOM     15  C   UNL     1      21.675 198.682   1.406  0.00  0.00    +0.037 A 
ATOM     16  C   UNL     1      21.312 199.461   0.219  0.00  0.00    +0.013 A 
ATOM     17  C   UNL     1      20.241 200.423   0.285  0.00  0.00    +0.005 A 
ATOM     18  C   UNL     1      19.523 200.610   1.543  0.00  0.00    -0.033 A 
ATOM     28  C   UNL     1      19.900 199.820   2.704  0.00  0.00    +0.005 A 
ATOM     29  C   UNL     1      20.951 198.878   2.643  0.00  0.00    +0.013 A 
BRANCH  18  19
ATOM     19  C   UNL     1      18.380 201.629   1.711  0.00  0.00    +0.119 C 
BRANCH  19  20
ATOM     20  N   UNL     1      18.647 202.820   2.572  0.00  0.00    -0.302 NA
ATOM     21  C   UNL     1      20.095 203.302   2.453  0.00  0.00    +0.066 C 
ATOM     22  C   UNL     1      20.350 204.562   3.343  0.00  0.00    -0.064 C 
ATOM     23  N   UNL     1      20.006 204.234   4.797  0.00  0.00    +0.379 N 
ATOM     24  C   UNL     1      20.300 205.398   5.645  0.00  0.00    -0.096 C 
ATOM     25  H   UNL     1      20.672 203.401   5.123  0.00  0.00    -0.082 HD
ATOM     26  C   UNL     1      18.568 203.751   4.923  0.00  0.00    -0.064 C 
ATOM     27  C   UNL     1      18.317 202.517   4.013  0.00  0.00    +0.066 C 
ENDBRANCH  19  20
ENDBRANCH  18  19
ENDBRANCH  14  15
ENDBRANCH  12  13
TORSDOF 6
ENDMDL
MODEL 3
REMARK VINA RESULT:      -9.2      2.756      3.957
REMARK  Name = C:\Users\Docking\Desktop\test protocol\1iep_ligandH.pdb
REMARK  8 active torsions:
REMARK  status: ('A' for Active; 'I' for Inactive)
REMARK    1  A    between atoms: _5  and  _11
REMARK    2  A    between atoms: _19  and  _21
REMARK    3  A    between atoms: _22  and  _66
REMARK    4  A    between atoms: _27  and  _30
REMARK    5  A    between atoms: _32  and  _33
REMARK    6  A    between atoms: _38  and  _43
REMARK    7  A    between atoms: _43  and  _46
REMARK    8  A    between atoms: _53  and  _55
REMARK                            x       y       z     vdW  Elec       q    Type
REMARK                         _______ _______ _______ _____ _____    ______ ____
ROOT
ATOM     10  C   UNL     1      25.099 193.699   1.718  0.00  0.00    +0.038 A 
ATOM     11  C   UNL     1      24.289 194.863   1.742  0.00  0.00    +0.047 A 
ATOM     12  C   UNL     1      23.567 195.301   0.557  0.00  0.00    +0.035 A 
ATOM     32  C   UNL     1      23.691 194.529  -0.634  0.00  0.00    +0.024 A 
ATOM     33  C   UNL     1      24.511 193.343  -0.676  0.00  0.00    +0.007 A 
ATOM     34  C   UNL     1      25.227 192.907   0.488  0.00  0.00    -0.029 A 
ATOM     35  C   UNL     1      26.096 191.632   0.384  0.00  0.00    +0.045 C 
ENDROOT
BRANCH  10   9
ATOM      4  C   UNL     1      25.778 190.758   5.450  0.00  0.00    +0.077 A 
ATOM      5  C   UNL     1      24.687 189.913   5.059  0.00  0.00    +0.048 A 
ATOM      6  C   UNL     1      23.972 190.274   3.895  0.00  0.00    +0.116 A 
ATOM      7  N   UNL     1      24.331 191.398   3.183  0.00  0.00    -0.223 NA
ATOM      8  C   UNL     1      25.387 192.193   3.589  0.00  0.00    +0.220 A 
ATOM      9  N   UNL     1      25.770 193.323   2.884  0.00  0.00    -0.283 N 
ATOM     36  H   UNL     1      26.550 193.887   3.221  0.00  0.00    +0.155 HD
ATOM     37  N   UNL     1      26.085 191.870   4.698  0.00  0.00    -0.214 NA
BRANCH   4   3
ATOM      1  C   UNL     1      28.591 191.030   8.155  0.00  0.00    +0.020 A 
ATOM      2  C   UNL     1      27.801 191.314   6.979  0.00  0.00    +0.013 A 
ATOM      3  C   UNL     1      26.631 190.507   6.655  0.00  0.00    +0.019 A 
ATOM     38  C   UNL     1      26.285 189.412   7.548  0.00  0.00    +0.120 A 
ATOM     39  N   UNL     1      27.065 189.161   8.673  0.00  0.00    -0.263 NA
ATOM     40  C   UNL     1      28.194 189.930   8.994  0.00  0.00    +0.111 A 
ENDBRANCH   4   3
ENDBRANCH  10   9
BRANCH  12  13
ATOM     13  N   UNL     1      22.737 196.479   0.519  0.00  0.00    -0.281 N 
ATOM     14  C   UNL     1      22.056 197.076   1.568  0.00  0.00    +0.248 C 
ATOM     30  O   UNL     1      21.885 196.560   2.663  0.00  0.00    -0.270 OA
ATOM     31  H   UNL     1      22.639 196.928  -0.392  0.00  0.00    +0.155 HD
BRANCH  14  15
ATOM     15  C   UNL     1      21.467 198.435   1.367  0.00  0.00    +0.037 A 
ATOM     16  C   UNL     1      20.944 199.211   2.494  0.00  0.00    +0.013 A 
ATOM     17  C   UNL     1      20.366 200.512   2.270  0.00  0.00    +0.005 A 
ATOM     18  C   UNL     1      20.310 201.046   0.912  0.00  0.00    -0.033 A 
ATOM     28  C   UNL     1      20.840 200.257  -0.188  0.00  0.00    +0.005 A 
ATOM     29  C   UNL     1      21.406 198.981   0.028  0.00  0.00    +0.013 A 
BRANCH  18  19
ATOM     19  C   UNL     1      19.691 202.417   0.577  0.00  0.00    +0.119 C 
BRANCH  19  20
ATOM     20  N   UNL     1      20.616 203.588   0.516  0.00  0.00    -0.302 NA
ATOM     21  C   UNL     1      21.699 203.409  -0.551  0.00  0.00    +0.066 C 
ATOM     22  C   UNL     1      22.644 204.653  -0.616  0.00  0.00    -0.064 C 
ATOM     23  N   UNL     1      23.272 204.886   0.759  0.00  0.00    +0.379 N 
ATOM     24  C   UNL     1      24.205 206.019   0.686  0.00  0.00    -0.096 C 
ATOM     25  H   UNL     1      23.863 203.977   1.019  0.00  0.00    -0.082 HD
ATOM     26  C   UNL     1      22.202 205.062   1.827  0.00  0.00    -0.064 C 
ATOM     27  C   UNL     1      21.250 203.833   1.863  0.00  0.00    +0.066 C 
ENDBRANCH  19  20
ENDBRANCH  18  19
ENDBRANCH  14  15
ENDBRANCH  12  13
TORSDOF 6
ENDMDL
MODEL 4
REMARK VINA RESULT:      -9.0      1.925      3.297
REMARK  Name = C:\Users\Docking\Desktop\test protocol\1iep_ligandH.pdb
REMARK  8 active torsions:
REMARK  status: ('A' for Active; 'I' for Inactive)
REMARK    1  A    between atoms: _5  and  _11
REMARK    2  A    between atoms: _19  and  _21
REMARK    3  A    between atoms: _22  and  _66
REMARK    4  A    between atoms: _27  and  _30
REMARK    5  A    between atoms: _32  and  _33
REMARK    6  A    between atoms: _38  and  _43
REMARK    7  A    between atoms: _43  and  _46
REMARK    8  A    between atoms: _53  and  _55
REMARK                            x       y       z     vdW  Elec       q    Type
REMARK                         _______ _______ _______ _____ _____    ______ ____
ROOT
ATOM     10  C   UNL     1      22.858 195.493   0.769  0.00  0.00    +0.038 A 
ATOM     11  C   UNL     1      22.437 196.708   1.368  0.00  0.00    +0.047 A 
ATOM     12  C   UNL     1      22.258 197.915   0.576  0.00  0.00    +0.035 A 
ATOM     32  C   UNL     1      22.514 197.848  -0.824  0.00  0.00    +0.024 A 
ATOM     33  C   UNL     1      22.944 196.622  -1.449  0.00  0.00    +0.007 A 
ATOM     34  C   UNL     1      23.124 195.429  -0.673  0.00  0.00    -0.029 A 
ATOM     35  C   UNL     1      23.593 194.144  -1.395  0.00  0.00    +0.045 C 
ENDROOT
BRANCH  10   9
ATOM      4  C   UNL     1      25.522 192.566   3.484  0.00  0.00    +0.077 A 
ATOM      5  C   UNL     1      26.711 193.335   3.251  0.00  0.00    +0.048 A 
ATOM      6  C   UNL     1      26.595 194.472   2.421  0.00  0.00    +0.116 A 
ATOM      7  N   UNL     1      25.377 194.807   1.871  0.00  0.00    -0.223 NA
ATOM      8  C   UNL     1      24.250 194.042   2.114  0.00  0.00    +0.220 A 
ATOM      9  N   UNL     1      23.013 194.364   1.577  0.00  0.00    -0.283 N 
ATOM     36  H   UNL     1      22.208 193.771   1.775  0.00  0.00    +0.155 HD
ATOM     37  N   UNL     1      24.335 192.950   2.902  0.00  0.00    -0.214 NA
BRANCH   4   3
ATOM      1  C   UNL     1      24.750 188.975   4.828  0.00  0.00    +0.020 A 
ATOM      2  C   UNL     1      24.755 190.133   3.965  0.00  0.00    +0.013 A 
ATOM      3  C   UNL     1      25.483 191.339   4.341  0.00  0.00    +0.019 A 
ATOM     38  C   UNL     1      26.201 191.339   5.606  0.00  0.00    +0.120 A 
ATOM     39  N   UNL     1      26.176 190.209   6.418  0.00  0.00    -0.263 NA
ATOM     40  C   UNL     1      25.478 189.044   6.068  0.00  0.00    +0.111 A 
ENDBRANCH   4   3
ENDBRANCH  10   9
BRANCH  12  13
ATOM     13  N   UNL     1      21.840 199.179   1.131  0.00  0.00    -0.281 N 
ATOM     14  C   UNL     1      20.679 199.885   0.861  0.00  0.00    +0.248 C 
ATOM     30  O   UNL     1      19.919 199.638  -0.063  0.00  0.00    -0.270 OA
ATOM     31  H   UNL     1      22.478 199.605   1.803  0.00  0.00    +0.155 HD
BRANCH  14  15
ATOM     15  C   UNL     1      20.318 201.041   1.737  0.00  0.00    +0.037 A 
ATOM     16  C   UNL     1      19.537 202.169   1.222  0.00  0.00    +0.013 A 
ATOM     17  C   UNL     1      19.216 203.279   2.083  0.00  0.00    +0.005 A 
ATOM     18  C   UNL     1      19.677 203.267   3.470  0.00  0.00    -0.033 A 
ATOM     28  C   UNL     1      20.445 202.133   3.956  0.00  0.00    +0.005 A 
ATOM     29  C   UNL     1      20.762 201.043   3.114  0.00  0.00    +0.013 A 
BRANCH  18  19
ATOM     19  C   UNL     1      19.399 204.419   4.454  0.00  0.00    +0.119 C 
BRANCH  19  20
ATOM     20  N   UNL     1      18.013 204.535   4.997  0.00  0.00    -0.302 NA
ATOM     21  C   UNL     1      17.863 205.734   5.937  0.00  0.00    +0.066 C 
ATOM     22  C   UNL     1      16.402 205.854   6.478  0.00  0.00    -0.064 C 
ATOM     23  N   UNL     1      16.016 204.556   7.190  0.00  0.00    +0.379 N 
ATOM     24  C   UNL     1      14.663 204.687   7.750  0.00  0.00    -0.096 C 
ATOM     25  H   UNL     1      16.722 204.415   8.041  0.00  0.00    -0.082 HD
ATOM     26  C   UNL     1      16.165 203.358   6.263  0.00  0.00    -0.064 C 
ATOM     27  C   UNL     1      17.613 203.265   5.708  0.00  0.00    +0.066 C 
ENDBRANCH  19  20
ENDBRANCH  18  19
ENDBRANCH  14  15
ENDBRANCH  12  13
TORSDOF 6
ENDMDL
MODEL 5
REMARK VINA RESULT:      -9.0      1.377      2.253
REMARK  Name = C:\Users\Docking\Desktop\test protocol\1iep_ligandH.pdb
REMARK  8 active torsions:
REMARK  status: ('A' for Active; 'I' for Inactive)
REMARK    1  A    between atoms: _5  and  _11
REMARK    2  A    between atoms: _19  and  _21
REMARK    3  A    between atoms: _22  and  _66
REMARK    4  A    between atoms: _27  and  _30
REMARK    5  A    between atoms: _32  and  _33
REMARK    6  A    between atoms: _38  and  _43
REMARK    7  A    between atoms: _43  and  _46
REMARK    8  A    between atoms: _53  and  _55
REMARK                            x       y       z     vdW  Elec       q    Type
REMARK                         _______ _______ _______ _____ _____    ______ ____
ROOT
ATOM     10  C   UNL     1      23.377 194.204   0.904  0.00  0.00    +0.038 A 
ATOM     11  C   UNL     1      22.878 195.394   1.491  0.00  0.00    +0.047 A 
ATOM     12  C   UNL     1      22.664 196.593   0.696  0.00  0.00    +0.035 A 
ATOM     32  C   UNL     1      22.967 196.544  -0.696  0.00  0.00    +0.024 A 
ATOM     33  C   UNL     1      23.476 195.342  -1.309  0.00  0.00    +0.007 A 
ATOM     34  C   UNL     1      23.691 194.157  -0.529  0.00  0.00    -0.029 A 
ATOM     35  C   UNL     1      24.245 192.899  -1.238  0.00  0.00    +0.045 C 
ENDROOT
BRANCH  10   9
ATOM      4  C   UNL     1      25.608 191.873   4.458  0.00  0.00    +0.077 A 
ATOM      5  C   UNL     1      26.495 192.973   4.702  0.00  0.00    +0.048 A 
ATOM      6  C   UNL     1      26.349 194.118   3.887  0.00  0.00    +0.116 A 
ATOM      7  N   UNL     1      25.384 194.149   2.904  0.00  0.00    -0.223 NA
ATOM      8  C   UNL     1      24.546 193.069   2.693  0.00  0.00    +0.220 A 
ATOM      9  N   UNL     1      23.563 193.082   1.715  0.00  0.00    -0.283 N 
ATOM     36  H   UNL     1      22.970 192.262   1.586  0.00  0.00    +0.155 HD
ATOM     37  N   UNL     1      24.666 191.964   3.457  0.00  0.00    -0.214 NA
BRANCH   4   3
ATOM      1  C   UNL     1      25.031 188.170   5.579  0.00  0.00    +0.020 A 
ATOM      2  C   UNL     1      24.973 189.378   4.788  0.00  0.00    +0.013 A 
ATOM      3  C   UNL     1      25.636 190.595   5.238  0.00  0.00    +0.019 A 
ATOM     38  C   UNL     1      26.355 190.557   6.502  0.00  0.00    +0.120 A 
ATOM     39  N   UNL     1      26.393 189.380   7.243  0.00  0.00    -0.263 NA
ATOM     40  C   UNL     1      25.757 188.203   6.822  0.00  0.00    +0.111 A 
ENDBRANCH   4   3
ENDBRANCH  10   9
BRANCH  12  13
ATOM     13  N   UNL     1      22.167 197.833   1.239  0.00  0.00    -0.281 N 
ATOM     14  C   UNL     1      21.406 198.798   0.600  0.00  0.00    +0.248 C 
ATOM     30  O   UNL     1      21.216 198.842  -0.607  0.00  0.00    -0.270 OA
ATOM     31  H   UNL     1      22.405 198.022   2.213  0.00  0.00    +0.155 HD
BRANCH  14  15
ATOM     15  C   UNL     1      20.777 199.880   1.417  0.00  0.00    +0.037 A 
ATOM     16  C   UNL     1      20.097 201.013   0.784  0.00  0.00    +0.013 A 
ATOM     17  C   UNL     1      19.514 202.052   1.596  0.00  0.00    +0.005 A 
ATOM     18  C   UNL     1      19.606 201.961   3.051  0.00  0.00    -0.033 A 
ATOM     28  C   UNL     1      20.282 200.823   3.653  0.00  0.00    +0.005 A 
ATOM     29  C   UNL     1      20.856 199.804   2.860  0.00  0.00    +0.013 A 
BRANCH  18  19
ATOM     19  C   UNL     1      19.031 203.033   3.994  0.00  0.00    +0.119 C 
BRANCH  19  20
ATOM     20  N   UNL     1      17.674 202.784   4.566  0.00  0.00    -0.302 NA
ATOM     21  C   UNL     1      17.649 202.966   6.086  0.00  0.00    +0.066 C 
ATOM     22  C   UNL     1      16.217 202.724   6.665  0.00  0.00    -0.064 C 
ATOM     23  N   UNL     1      15.745 201.321   6.280  0.00  0.00    +0.379 N 
ATOM     24  C   UNL     1      14.423 201.069   6.871  0.00  0.00    -0.096 C 
ATOM     25  H   UNL     1      16.460 200.590   6.724  0.00  0.00    -0.082 HD
ATOM     26  C   UNL     1      15.769 201.131   4.770  0.00  0.00    -0.064 C 
ATOM     27  C   UNL     1      17.190 201.403   4.201  0.00  0.00    +0.066 C 
ENDBRANCH  19  20
ENDBRANCH  18  19
ENDBRANCH  14  15
ENDBRANCH  12  13
TORSDOF 6
ENDMDL
