MODEL 1
REMARK VINA RESULT:      -8.1      0.000      0.000
REMARK  Name = C:\Users\Docking\Desktop\test protocol\1iep_ligandH.pdb
REMARK  8 active torsions:
REMARK  status: ('A' for Active; 'I' for Inactive)
REMARK    1  A    between atoms: _5  and  _11
REMARK    2  A    between atoms: _19  and  _21
REMARK    3  A    between atoms: _22  and  _66
REMARK    4  A    between atoms: _27  and  _30
REMARK    5  A    between atoms: _32  and  _33
REMARK    6  A    between atoms: _38  and  _43
REMARK    7  A    between atoms: _43  and  _46
REMARK    8  A    between atoms: _53  and  _55
REMARK                            x       y       z     vdW  Elec       q    Type
REMARK                         _______ _______ _______ _____ _____    ______ ____
ROOT
ATOM     10  C   UNL     1     -10.933 -15.808   6.886  0.00  0.00    +0.038 A 
ATOM     11  C   UNL     1     -10.885 -17.154   7.332  0.00  0.00    +0.047 A 
ATOM     12  C   UNL     1     -10.626 -17.475   8.727  0.00  0.00    +0.035 A 
ATOM     32  C   UNL     1     -10.423 -16.401   9.642  0.00  0.00    +0.024 A 
ATOM     33  C   UNL     1     -10.468 -15.027   9.205  0.00  0.00    +0.007 A 
ATOM     34  C   UNL     1     -10.721 -14.704   7.830  0.00  0.00    -0.029 A 
ATOM     35  C   UNL     1     -10.752 -13.214   7.417  0.00  0.00    +0.045 C 
ENDROOT
BRANCH  10   9
ATOM      4  C   UNL     1      -9.553 -15.570   2.295  0.00  0.00    +0.077 A 
ATOM      5  C   UNL     1      -8.209 -15.952   2.618  0.00  0.00    +0.048 A 
ATOM      6  C   UNL     1      -7.911 -16.194   3.978  0.00  0.00    +0.116 A 
ATOM      7  N   UNL     1      -8.894 -16.061   4.935  0.00  0.00    -0.223 NA
ATOM      8  C   UNL     1     -10.180 -15.689   4.590  0.00  0.00    +0.220 A 
ATOM      9  N   UNL     1     -11.186 -15.557   5.536  0.00  0.00    -0.283 N 
ATOM     36  H   UNL     1     -12.120 -15.274   5.242  0.00  0.00    +0.155 HD
ATOM     37  N   UNL     1     -10.489 -15.451   3.299  0.00  0.00    -0.214 NA
BRANCH   4   3
ATOM      1  C   UNL     1      -9.721 -15.277  -1.602  0.00  0.00    +0.020 A 
ATOM      2  C   UNL     1      -9.220 -15.573  -0.279  0.00  0.00    +0.013 A 
ATOM      3  C   UNL     1     -10.023 -15.283   0.903  0.00  0.00    +0.019 A 
ATOM     38  C   UNL     1     -11.338 -14.691   0.710  0.00  0.00    +0.120 A 
ATOM     39  N   UNL     1     -11.793 -14.416  -0.575  0.00  0.00    -0.263 NA
ATOM     40  C   UNL     1     -11.029 -14.688  -1.720  0.00  0.00    +0.111 A 
ENDBRANCH   4   3
ENDBRANCH  10   9
BRANCH  12  13
ATOM     13  N   UNL     1     -10.556 -18.822   9.237  0.00  0.00    -0.281 N 
ATOM     14  C   UNL     1      -9.436 -19.512   9.671  0.00  0.00    +0.248 C 
ATOM     30  O   UNL     1      -8.285 -19.147   9.486  0.00  0.00    -0.270 OA
ATOM     31  H   UNL     1     -11.441 -19.329   9.283  0.00  0.00    +0.155 HD
BRANCH  14  15
ATOM     15  C   UNL     1      -9.622 -20.802  10.404  0.00  0.00    +0.037 A 
ATOM     16  C   UNL     1      -9.717 -22.076   9.687  0.00  0.00    +0.013 A 
ATOM     17  C   UNL     1      -9.913 -23.303  10.418  0.00  0.00    +0.005 A 
ATOM     18  C   UNL     1     -10.013 -23.262  11.874  0.00  0.00    -0.033 A 
ATOM     28  C   UNL     1      -9.909 -21.984  12.560  0.00  0.00    +0.005 A 
ATOM     29  C   UNL     1      -9.719 -20.779  11.848  0.00  0.00    +0.013 A 
BRANCH  18  19
ATOM     19  C   UNL     1     -10.243 -24.519  12.733  0.00  0.00    +0.119 C 
BRANCH  19  20
ATOM     20  N   UNL     1      -9.923 -24.421  14.189  0.00  0.00    -0.302 NA
ATOM     21  C   UNL     1      -8.790 -25.370  14.593  0.00  0.00    +0.066 C 
ATOM     22  C   UNL     1      -8.453 -25.238  16.114  0.00  0.00    -0.064 C 
ATOM     23  N   UNL     1      -9.711 -25.515  16.938  0.00  0.00    +0.379 N 
ATOM     24  C   UNL     1      -9.384 -25.449  18.370  0.00  0.00    -0.096 C 
ATOM     25  H   UNL     1     -10.040 -26.556  16.714  0.00  0.00    -0.082 HD
ATOM     26  C   UNL     1     -10.843 -24.578  16.541  0.00  0.00    -0.064 C 
ATOM     27  C   UNL     1     -11.151 -24.695  15.022  0.00  0.00    +0.066 C 
ENDBRANCH  19  20
ENDBRANCH  18  19
ENDBRANCH  14  15
ENDBRANCH  12  13
TORSDOF 6
ENDMDL
MODEL 2
REMARK VINA RESULT:      -8.0      8.393     14.827
REMARK  Name = C:\Users\Docking\Desktop\test protocol\1iep_ligandH.pdb
REMARK  8 active torsions:
REMARK  status: ('A' for Active; 'I' for Inactive)
REMARK    1  A    between atoms: _5  and  _11
REMARK    2  A    between atoms: _19  and  _21
REMARK    3  A    between atoms: _22  and  _66
REMARK    4  A    between atoms: _27  and  _30
REMARK    5  A    between atoms: _32  and  _33
REMARK    6  A    between atoms: _38  and  _43
REMARK    7  A    between atoms: _43  and  _46
REMARK    8  A    between atoms: _53  and  _55
REMARK                            x       y       z     vdW  Elec       q    Type
REMARK                         _______ _______ _______ _____ _____    ______ ____
ROOT
ATOM     10  C   UNL     1      -5.311 -14.096   4.767  0.00  0.00    +0.038 A 
ATOM     11  C   UNL     1      -6.014 -13.903   3.550  0.00  0.00    +0.047 A 
ATOM     12  C   UNL     1      -7.318 -14.509   3.330  0.00  0.00    +0.035 A 
ATOM     32  C   UNL     1      -7.878 -15.304   4.372  0.00  0.00    +0.024 A 
ATOM     33  C   UNL     1      -7.177 -15.512   5.614  0.00  0.00    +0.007 A 
ATOM     34  C   UNL     1      -5.890 -14.919   5.837  0.00  0.00    -0.029 A 
ATOM     35  C   UNL     1      -5.181 -15.181   7.186  0.00  0.00    +0.045 C 
ENDROOT
BRANCH  10   9
ATOM      4  C   UNL     1      -2.525 -10.442   6.152  0.00  0.00    +0.077 A 
ATOM      5  C   UNL     1      -3.654  -9.663   6.571  0.00  0.00    +0.048 A 
ATOM      6  C   UNL     1      -4.935 -10.235   6.406  0.00  0.00    +0.116 A 
ATOM      7  N   UNL     1      -5.065 -11.495   5.863  0.00  0.00    -0.223 NA
ATOM      8  C   UNL     1      -3.956 -12.219   5.467  0.00  0.00    +0.220 A 
ATOM      9  N   UNL     1      -4.063 -13.491   4.925  0.00  0.00    -0.283 N 
ATOM     36  H   UNL     1      -3.221 -13.990   4.639  0.00  0.00    +0.155 HD
ATOM     37  N   UNL     1      -2.721 -11.694   5.612  0.00  0.00    -0.214 NA
BRANCH   4   3
ATOM      1  C   UNL     1       0.651  -8.169   6.377  0.00  0.00    +0.020 A 
ATOM      2  C   UNL     1      -0.734  -8.566   6.266  0.00  0.00    +0.013 A 
ATOM      3  C   UNL     1      -1.106  -9.976   6.264  0.00  0.00    +0.019 A 
ATOM     38  C   UNL     1      -0.046 -10.965   6.378  0.00  0.00    +0.120 A 
ATOM     39  N   UNL     1       1.279 -10.553   6.482  0.00  0.00    -0.263 NA
ATOM     40  C   UNL     1       1.650  -9.199   6.483  0.00  0.00    +0.111 A 
ENDBRANCH   4   3
ENDBRANCH  10   9
BRANCH  12  13
ATOM     13  N   UNL     1      -8.075 -14.355   2.112  0.00  0.00    -0.281 N 
ATOM     14  C   UNL     1      -8.707 -15.340   1.372  0.00  0.00    +0.248 C 
ATOM     30  O   UNL     1      -8.537 -16.540   1.530  0.00  0.00    -0.270 OA
ATOM     31  H   UNL     1      -8.154 -13.403   1.752  0.00  0.00    +0.155 HD
BRANCH  14  15
ATOM     15  C   UNL     1      -9.654 -14.934   0.289  0.00  0.00    +0.037 A 
ATOM     16  C   UNL     1      -9.335 -15.158  -1.123  0.00  0.00    +0.013 A 
ATOM     17  C   UNL     1     -10.259 -14.741  -2.148  0.00  0.00    +0.005 A 
ATOM     18  C   UNL     1     -11.512 -14.097  -1.764  0.00  0.00    -0.033 A 
ATOM     28  C   UNL     1     -11.806 -13.892  -0.355  0.00  0.00    +0.005 A 
ATOM     29  C   UNL     1     -10.903 -14.298   0.653  0.00  0.00    +0.013 A 
BRANCH  18  19
ATOM     19  C   UNL     1     -12.547 -13.600  -2.791  0.00  0.00    +0.119 C 
BRANCH  19  20
ATOM     20  N   UNL     1     -12.126 -12.500  -3.709  0.00  0.00    -0.302 NA
ATOM     21  C   UNL     1     -11.559 -11.300  -2.946  0.00  0.00    +0.066 C 
ATOM     22  C   UNL     1     -11.102 -10.168  -3.923  0.00  0.00    -0.064 C 
ATOM     23  N   UNL     1     -12.284  -9.745  -4.796  0.00  0.00    +0.379 N 
ATOM     24  C   UNL     1     -11.874  -8.641  -5.676  0.00  0.00    -0.096 C 
ATOM     25  H   UNL     1     -13.083  -9.360  -4.120  0.00  0.00    -0.082 HD
ATOM     26  C   UNL     1     -12.856 -10.933  -5.557  0.00  0.00    -0.064 C 
ATOM     27  C   UNL     1     -13.280 -12.064  -4.578  0.00  0.00    +0.066 C 
ENDBRANCH  19  20
ENDBRANCH  18  19
ENDBRANCH  14  15
ENDBRANCH  12  13
TORSDOF 6
ENDMDL
MODEL 3
REMARK VINA RESULT:      -7.9      3.127      4.722
REMARK  Name = C:\Users\Docking\Desktop\test protocol\1iep_ligandH.pdb
REMARK  8 active torsions:
REMARK  status: ('A' for Active; 'I' for Inactive)
REMARK    1  A    between atoms: _5  and  _11
REMARK    2  A    between atoms: _19  and  _21
REMARK    3  A    between atoms: _22  and  _66
REMARK    4  A    between atoms: _27  and  _30
REMARK    5  A    between atoms: _32  and  _33
REMARK    6  A    between atoms: _38  and  _43
REMARK    7  A    between atoms: _43  and  _46
REMARK    8  A    between atoms: _53  and  _55
REMARK                            x       y       z     vdW  Elec       q    Type
REMARK                         _______ _______ _______ _____ _____    ______ ____
ROOT
ATOM     10  C   UNL     1      -6.605 -13.617   4.533  0.00  0.00    +0.038 A 
ATOM     11  C   UNL     1      -7.096 -14.637   5.387  0.00  0.00    +0.047 A 
ATOM     12  C   UNL     1      -6.355 -15.052   6.568  0.00  0.00    +0.035 A 
ATOM     32  C   UNL     1      -5.117 -14.403   6.851  0.00  0.00    +0.024 A 
ATOM     33  C   UNL     1      -4.602 -13.365   5.993  0.00  0.00    +0.007 A 
ATOM     34  C   UNL     1      -5.328 -12.954   4.825  0.00  0.00    -0.029 A 
ATOM     35  C   UNL     1      -4.725 -11.840   3.938  0.00  0.00    +0.045 C 
ENDROOT
BRANCH  10   9
ATOM      4  C   UNL     1      -9.317 -14.714   0.728  0.00  0.00    +0.077 A 
ATOM      5  C   UNL     1      -9.201 -16.122   0.978  0.00  0.00    +0.048 A 
ATOM      6  C   UNL     1      -8.429 -16.523   2.091  0.00  0.00    +0.116 A 
ATOM      7  N   UNL     1      -7.823 -15.577   2.889  0.00  0.00    -0.223 NA
ATOM      8  C   UNL     1      -7.953 -14.227   2.619  0.00  0.00    +0.220 A 
ATOM      9  N   UNL     1      -7.358 -13.258   3.413  0.00  0.00    -0.283 N 
ATOM     36  H   UNL     1      -7.472 -12.273   3.176  0.00  0.00    +0.155 HD
ATOM     37  N   UNL     1      -8.683 -13.819   1.561  0.00  0.00    -0.214 NA
BRANCH   4   3
ATOM      1  C   UNL     1     -10.857 -14.098  -2.814  0.00  0.00    +0.020 A 
ATOM      2  C   UNL     1     -10.081 -14.696  -1.753  0.00  0.00    +0.013 A 
ATOM      3  C   UNL     1     -10.101 -14.135  -0.408  0.00  0.00    +0.019 A 
ATOM     38  C   UNL     1     -10.924 -12.959  -0.169  0.00  0.00    +0.120 A 
ATOM     39  N   UNL     1     -11.660 -12.404  -1.211  0.00  0.00    -0.263 NA
ATOM     40  C   UNL     1     -11.647 -12.934  -2.510  0.00  0.00    +0.111 A 
ENDBRANCH   4   3
ENDBRANCH  10   9
BRANCH  12  13
ATOM     13  N   UNL     1      -6.799 -16.087   7.467  0.00  0.00    -0.281 N 
ATOM     14  C   UNL     1      -8.041 -16.218   8.069  0.00  0.00    +0.248 C 
ATOM     30  O   UNL     1      -8.893 -15.342   8.092  0.00  0.00    -0.270 OA
ATOM     31  H   UNL     1      -6.116 -16.812   7.688  0.00  0.00    +0.155 HD
BRANCH  14  15
ATOM     15  C   UNL     1      -8.379 -17.501   8.756  0.00  0.00    +0.037 A 
ATOM     16  C   UNL     1      -9.763 -17.838   9.099  0.00  0.00    +0.013 A 
ATOM     17  C   UNL     1     -10.059 -19.075   9.777  0.00  0.00    +0.005 A 
ATOM     18  C   UNL     1      -8.968 -19.986  10.115  0.00  0.00    -0.033 A 
ATOM     28  C   UNL     1      -7.605 -19.630   9.758  0.00  0.00    +0.005 A 
ATOM     29  C   UNL     1      -7.310 -18.418   9.094  0.00  0.00    +0.013 A 
BRANCH  18  19
ATOM     19  C   UNL     1      -9.190 -21.317  10.857  0.00  0.00    +0.119 C 
BRANCH  19  20
ATOM     20  N   UNL     1     -10.502 -22.002  10.656  0.00  0.00    -0.302 NA
ATOM     21  C   UNL     1     -10.860 -22.913  11.833  0.00  0.00    +0.066 C 
ATOM     22  C   UNL     1     -12.246 -23.604  11.617  0.00  0.00    -0.064 C 
ATOM     23  N   UNL     1     -12.220 -24.395  10.308  0.00  0.00    +0.379 N 
ATOM     24  C   UNL     1     -13.502 -25.092  10.130  0.00  0.00    -0.096 C 
ATOM     25  H   UNL     1     -11.423 -25.169  10.396  0.00  0.00    -0.082 HD
ATOM     26  C   UNL     1     -11.862 -23.496   9.132  0.00  0.00    -0.064 C 
ATOM     27  C   UNL     1     -10.497 -22.792   9.371  0.00  0.00    +0.066 C 
ENDBRANCH  19  20
ENDBRANCH  18  19
ENDBRANCH  14  15
ENDBRANCH  12  13
TORSDOF 6
ENDMDL
MODEL 4
REMARK VINA RESULT:      -7.9      9.230     13.990
REMARK  Name = C:\Users\Docking\Desktop\test protocol\1iep_ligandH.pdb
REMARK  8 active torsions:
REMARK  status: ('A' for Active; 'I' for Inactive)
REMARK    1  A    between atoms: _5  and  _11
REMARK    2  A    between atoms: _19  and  _21
REMARK    3  A    between atoms: _22  and  _66
REMARK    4  A    between atoms: _27  and  _30
REMARK    5  A    between atoms: _32  and  _33
REMARK    6  A    between atoms: _38  and  _43
REMARK    7  A    between atoms: _43  and  _46
REMARK    8  A    between atoms: _53  and  _55
REMARK                            x       y       z     vdW  Elec       q    Type
REMARK                         _______ _______ _______ _____ _____    ______ ____
ROOT
ATOM     10  C   UNL     1      -2.404 -11.665   6.535  0.00  0.00    +0.038 A 
ATOM     11  C   UNL     1      -3.284 -12.064   5.497  0.00  0.00    +0.047 A 
ATOM     12  C   UNL     1      -4.411 -12.944   5.762  0.00  0.00    +0.035 A 
ATOM     32  C   UNL     1      -4.614 -13.398   7.097  0.00  0.00    +0.024 A 
ATOM     33  C   UNL     1      -3.729 -13.004   8.165  0.00  0.00    +0.007 A 
ATOM     34  C   UNL     1      -2.614 -12.137   7.909  0.00  0.00    -0.029 A 
ATOM     35  C   UNL     1      -1.695 -11.751   9.091  0.00  0.00    +0.045 C 
ENDROOT
BRANCH  10   9
ATOM      4  C   UNL     1      -0.533  -7.302   5.825  0.00  0.00    +0.077 A 
ATOM      5  C   UNL     1      -1.792  -6.658   6.067  0.00  0.00    +0.048 A 
ATOM      6  C   UNL     1      -2.898  -7.486   6.364  0.00  0.00    +0.116 A 
ATOM      7  N   UNL     1      -2.745  -8.854   6.413  0.00  0.00    -0.223 NA
ATOM      8  C   UNL     1      -1.517  -9.443   6.173  0.00  0.00    +0.220 A 
ATOM      9  N   UNL     1      -1.338 -10.817   6.225  0.00  0.00    -0.283 N 
ATOM     36  H   UNL     1      -0.418 -11.214   6.034  0.00  0.00    +0.155 HD
ATOM     37  N   UNL     1      -0.446  -8.675   5.885  0.00  0.00    -0.214 NA
BRANCH   4   3
ATOM      1  C   UNL     1       2.129  -4.468   5.403  0.00  0.00    +0.020 A 
ATOM      2  C   UNL     1       0.890  -5.133   5.732  0.00  0.00    +0.013 A 
ATOM      3  C   UNL     1       0.728  -6.563   5.502  0.00  0.00    +0.019 A 
ATOM     38  C   UNL     1       1.849  -7.297   4.933  0.00  0.00    +0.120 A 
ATOM     39  N   UNL     1       3.030  -6.629   4.625  0.00  0.00    -0.263 NA
ATOM     40  C   UNL     1       3.196  -5.253   4.841  0.00  0.00    +0.111 A 
ENDBRANCH   4   3
ENDBRANCH  10   9
BRANCH  12  13
ATOM     13  N   UNL     1      -5.332 -13.390   4.746  0.00  0.00    -0.281 N 
ATOM     14  C   UNL     1      -5.378 -14.624   4.119  0.00  0.00    +0.248 C 
ATOM     30  O   UNL     1      -4.494 -15.465   4.184  0.00  0.00    -0.270 OA
ATOM     31  H   UNL     1      -6.037 -12.712   4.454  0.00  0.00    +0.155 HD
BRANCH  14  15
ATOM     15  C   UNL     1      -6.571 -14.968   3.287  0.00  0.00    +0.037 A 
ATOM     16  C   UNL     1      -6.909 -16.361   2.983  0.00  0.00    +0.013 A 
ATOM     17  C   UNL     1      -8.056 -16.664   2.164  0.00  0.00    +0.005 A 
ATOM     18  C   UNL     1      -8.875 -15.572   1.645  0.00  0.00    -0.033 A 
ATOM     28  C   UNL     1      -8.520 -14.199   1.967  0.00  0.00    +0.005 A 
ATOM     29  C   UNL     1      -7.396 -13.898   2.768  0.00  0.00    +0.013 A 
BRANCH  18  19
ATOM     19  C   UNL     1     -10.104 -15.802   0.747  0.00  0.00    +0.119 C 
BRANCH  19  20
ATOM     20  N   UNL     1     -10.677 -14.609   0.053  0.00  0.00    -0.302 NA
ATOM     21  C   UNL     1     -11.905 -14.056   0.781  0.00  0.00    +0.066 C 
ATOM     22  C   UNL     1     -12.478 -12.796   0.054  0.00  0.00    -0.064 C 
ATOM     23  N   UNL     1     -12.822 -13.157  -1.392  0.00  0.00    +0.379 N 
ATOM     24  C   UNL     1     -13.414 -11.990  -2.062  0.00  0.00    -0.096 C 
ATOM     25  H   UNL     1     -13.594 -13.960  -1.366  0.00  0.00    -0.082 HD
ATOM     26  C   UNL     1     -11.606 -13.710  -2.123  0.00  0.00    -0.064 C 
ATOM     27  C   UNL     1     -11.027 -14.945  -1.376  0.00  0.00    +0.066 C 
ENDBRANCH  19  20
ENDBRANCH  18  19
ENDBRANCH  14  15
ENDBRANCH  12  13
TORSDOF 6
ENDMDL
MODEL 5
REMARK VINA RESULT:      -7.8      8.808     16.561
REMARK  Name = C:\Users\Docking\Desktop\test protocol\1iep_ligandH.pdb
REMARK  8 active torsions:
REMARK  status: ('A' for Active; 'I' for Inactive)
REMARK    1  A    between atoms: _5  and  _11
REMARK    2  A    between atoms: _19  and  _21
REMARK    3  A    between atoms: _22  and  _66
REMARK    4  A    between atoms: _27  and  _30
REMARK    5  A    between atoms: _32  and  _33
REMARK    6  A    between atoms: _38  and  _43
REMARK    7  A    between atoms: _43  and  _46
REMARK    8  A    between atoms: _53  and  _55
REMARK                            x       y       z     vdW  Elec       q    Type
REMARK                         _______ _______ _______ _____ _____    ______ ____
ROOT
ATOM     10  C   UNL     1      -8.603 -14.498   2.562  0.00  0.00    +0.038 A 
ATOM     11  C   UNL     1      -9.119 -13.729   1.487  0.00  0.00    +0.047 A 
ATOM     12  C   UNL     1      -9.711 -14.366   0.322  0.00  0.00    +0.035 A 
ATOM     32  C   UNL     1      -9.765 -15.790   0.285  0.00  0.00    +0.024 A 
ATOM     33  C   UNL     1      -9.245 -16.587   1.368  0.00  0.00    +0.007 A 
ATOM     34  C   UNL     1      -8.657 -15.964   2.519  0.00  0.00    -0.029 A 
ATOM     35  C   UNL     1      -8.109 -16.868   3.648  0.00  0.00    +0.045 C 
ENDROOT
BRANCH  10   9
ATOM      4  C   UNL     1      -4.838 -12.913   5.082  0.00  0.00    +0.077 A 
ATOM      5  C   UNL     1      -3.903 -13.480   4.154  0.00  0.00    +0.048 A 
ATOM      6  C   UNL     1      -4.432 -14.178   3.045  0.00  0.00    +0.116 A 
ATOM      7  N   UNL     1      -5.796 -14.294   2.886  0.00  0.00    -0.223 NA
ATOM      8  C   UNL     1      -6.670 -13.736   3.801  0.00  0.00    +0.220 A 
ATOM      9  N   UNL     1      -8.045 -13.833   3.656  0.00  0.00    -0.283 N 
ATOM     36  H   UNL     1      -8.657 -13.414   4.357  0.00  0.00    +0.155 HD
ATOM     37  N   UNL     1      -6.190 -13.066   4.869  0.00  0.00    -0.214 NA
BRANCH   4   3
ATOM      1  C   UNL     1      -2.708 -11.103   7.818  0.00  0.00    +0.020 A 
ATOM      2  C   UNL     1      -3.045 -11.850   6.628  0.00  0.00    +0.013 A 
ATOM      3  C   UNL     1      -4.434 -12.144   6.301  0.00  0.00    +0.019 A 
ATOM     38  C   UNL     1      -5.467 -11.664   7.206  0.00  0.00    +0.120 A 
ATOM     39  N   UNL     1      -5.113 -10.948   8.346  0.00  0.00    -0.263 NA
ATOM     40  C   UNL     1      -3.779 -10.660   8.671  0.00  0.00    +0.111 A 
ENDBRANCH   4   3
ENDBRANCH  10   9
BRANCH  12  13
ATOM     13  N   UNL     1     -10.244 -13.638  -0.803  0.00  0.00    -0.281 N 
ATOM     14  C   UNL     1     -11.439 -12.941  -0.878  0.00  0.00    +0.248 C 
ATOM     30  O   UNL     1     -12.336 -13.018  -0.052  0.00  0.00    -0.270 OA
ATOM     31  H   UNL     1      -9.670 -13.635  -1.646  0.00  0.00    +0.155 HD
BRANCH  14  15
ATOM     15  C   UNL     1     -11.677 -12.040  -2.046  0.00  0.00    +0.037 A 
ATOM     16  C   UNL     1     -12.377 -12.516  -3.242  0.00  0.00    +0.013 A 
ATOM     17  C   UNL     1     -12.579 -11.631  -4.362  0.00  0.00    +0.005 A 
ATOM     18  C   UNL     1     -12.081 -10.260  -4.290  0.00  0.00    -0.033 A 
ATOM     28  C   UNL     1     -11.394  -9.812  -3.089  0.00  0.00    +0.005 A 
ATOM     29  C   UNL     1     -11.194 -10.677  -1.990  0.00  0.00    +0.013 A 
BRANCH  18  19
ATOM     19  C   UNL     1     -12.233  -9.253  -5.446  0.00  0.00    +0.119 C 
BRANCH  19  20
ATOM     20  N   UNL     1     -11.190  -8.190  -5.568  0.00  0.00    -0.302 NA
ATOM     21  C   UNL     1     -11.789  -6.784  -5.471  0.00  0.00    +0.066 C 
ATOM     22  C   UNL     1     -10.682  -5.686  -5.579  0.00  0.00    -0.064 C 
ATOM     23  N   UNL     1      -9.920  -5.860  -6.894  0.00  0.00    +0.379 N 
ATOM     24  C   UNL     1      -8.917  -4.793  -7.025  0.00  0.00    -0.096 C 
ATOM     25  H   UNL     1     -10.652  -5.741  -7.727  0.00  0.00    -0.082 HD
ATOM     26  C   UNL     1      -9.324  -7.257  -7.000  0.00  0.00    -0.064 C 
ATOM     27  C   UNL     1     -10.428  -8.341  -6.862  0.00  0.00    +0.066 C 
ENDBRANCH  19  20
ENDBRANCH  18  19
ENDBRANCH  14  15
ENDBRANCH  12  13
TORSDOF 6
ENDMDL
