MODEL 1
REMARK VINA RESULT:      -8.5      0.000      0.000
REMARK  Name = C:\Users\Docking\Desktop\test protocol\1iep_ligandH.pdb
REMARK  8 active torsions:
REMARK  status: ('A' for Active; 'I' for Inactive)
REMARK    1  A    between atoms: _5  and  _11
REMARK    2  A    between atoms: _19  and  _21
REMARK    3  A    between atoms: _22  and  _66
REMARK    4  A    between atoms: _27  and  _30
REMARK    5  A    between atoms: _32  and  _33
REMARK    6  A    between atoms: _38  and  _43
REMARK    7  A    between atoms: _43  and  _46
REMARK    8  A    between atoms: _53  and  _55
REMARK                            x       y       z     vdW  Elec       q    Type
REMARK                         _______ _______ _______ _____ _____    ______ ____
ROOT
ATOM     10  C   UNL     1     116.987  55.198  18.167  0.00  0.00    +0.038 A 
ATOM     11  C   UNL     1     116.815  54.163  17.213  0.00  0.00    +0.047 A 
ATOM     12  C   UNL     1     117.121  54.376  15.807  0.00  0.00    +0.035 A 
ATOM     32  C   UNL     1     117.603  55.657  15.408  0.00  0.00    +0.024 A 
ATOM     33  C   UNL     1     117.782  56.721  16.364  0.00  0.00    +0.007 A 
ATOM     34  C   UNL     1     117.480  56.517  17.752  0.00  0.00    -0.029 A 
ATOM     35  C   UNL     1     117.685  57.696  18.732  0.00  0.00    +0.045 C 
ENDROOT
BRANCH  10   9
ATOM      4  C   UNL     1     118.124  53.556  22.532  0.00  0.00    +0.077 A 
ATOM      5  C   UNL     1     119.436  53.160  22.106  0.00  0.00    +0.048 A 
ATOM      6  C   UNL     1     119.776  53.389  20.754  0.00  0.00    +0.116 A 
ATOM      7  N   UNL     1     118.864  53.973  19.900  0.00  0.00    -0.223 NA
ATOM      8  C   UNL     1     117.608  54.342  20.343  0.00  0.00    +0.220 A 
ATOM      9  N   UNL     1     116.678  54.937  19.504  0.00  0.00    -0.283 N 
ATOM     36  H   UNL     1     115.759  55.188  19.868  0.00  0.00    +0.155 HD
ATOM     37  N   UNL     1     117.258  54.132  21.629  0.00  0.00    -0.214 NA
BRANCH   4   3
ATOM      1  C   UNL     1     116.002  53.882  25.801  0.00  0.00    +0.020 A 
ATOM      2  C   UNL     1     116.449  54.086  24.443  0.00  0.00    +0.013 A 
ATOM      3  C   UNL     1     117.619  53.383  23.930  0.00  0.00    +0.019 A 
ATOM     38  C   UNL     1     118.318  52.473  24.825  0.00  0.00    +0.120 A 
ATOM     39  N   UNL     1     117.865  52.298  26.129  0.00  0.00    -0.263 NA
ATOM     40  C   UNL     1     116.742  52.971  26.634  0.00  0.00    +0.111 A 
ENDBRANCH   4   3
ENDBRANCH  10   9
BRANCH  12  13
ATOM     13  N   UNL     1     116.959  53.366  14.792  0.00  0.00    -0.281 N 
ATOM     14  C   UNL     1     117.944  52.750  14.038  0.00  0.00    +0.248 C 
ATOM     30  O   UNL     1     119.103  53.132  13.972  0.00  0.00    -0.270 OA
ATOM     31  H   UNL     1     116.001  53.067  14.607  0.00  0.00    +0.155 HD
BRANCH  14  15
ATOM     15  C   UNL     1     117.588  51.545  13.229  0.00  0.00    +0.037 A 
ATOM     16  C   UNL     1     116.200  51.271  12.845  0.00  0.00    +0.013 A 
ATOM     17  C   UNL     1     115.882  50.092  12.079  0.00  0.00    +0.005 A 
ATOM     18  C   UNL     1     116.954  49.179  11.690  0.00  0.00    -0.033 A 
ATOM     28  C   UNL     1     118.322  49.479  12.079  0.00  0.00    +0.005 A 
ATOM     29  C   UNL     1     118.638  50.632  12.831  0.00  0.00    +0.013 A 
BRANCH  18  19
ATOM     19  C   UNL     1     116.703  47.887  10.890  0.00  0.00    +0.119 C 
BRANCH  19  20
ATOM     20  N   UNL     1     117.364  46.641  11.380  0.00  0.00    -0.302 NA
ATOM     21  C   UNL     1     117.095  45.448  10.458  0.00  0.00    +0.066 C 
ATOM     22  C   UNL     1     117.813  44.158  10.973  0.00  0.00    -0.064 C 
ATOM     23  N   UNL     1     117.351  43.855  12.399  0.00  0.00    +0.379 N 
ATOM     24  C   UNL     1     117.980  42.610  12.865  0.00  0.00    -0.096 C 
ATOM     25  H   UNL     1     116.250  43.687  12.369  0.00  0.00    -0.082 HD
ATOM     26  C   UNL     1     117.612  45.037  13.322  0.00  0.00    -0.064 C 
ATOM     27  C   UNL     1     116.919  46.321  12.785  0.00  0.00    +0.066 C 
ENDBRANCH  19  20
ENDBRANCH  18  19
ENDBRANCH  14  15
ENDBRANCH  12  13
TORSDOF 6
ENDMDL
MODEL 2
REMARK VINA RESULT:      -8.4      1.315      1.837
REMARK  Name = C:\Users\Docking\Desktop\test protocol\1iep_ligandH.pdb
REMARK  8 active torsions:
REMARK  status: ('A' for Active; 'I' for Inactive)
REMARK    1  A    between atoms: _5  and  _11
REMARK    2  A    between atoms: _19  and  _21
REMARK    3  A    between atoms: _22  and  _66
REMARK    4  A    between atoms: _27  and  _30
REMARK    5  A    between atoms: _32  and  _33
REMARK    6  A    between atoms: _38  and  _43
REMARK    7  A    between atoms: _43  and  _46
REMARK    8  A    between atoms: _53  and  _55
REMARK                            x       y       z     vdW  Elec       q    Type
REMARK                         _______ _______ _______ _____ _____    ______ ____
ROOT
ATOM     10  C   UNL     1     116.963  55.146  18.236  0.00  0.00    +0.038 A 
ATOM     11  C   UNL     1     116.869  54.079  17.307  0.00  0.00    +0.047 A 
ATOM     12  C   UNL     1     117.179  54.277  15.899  0.00  0.00    +0.035 A 
ATOM     32  C   UNL     1     117.586  55.575  15.474  0.00  0.00    +0.024 A 
ATOM     33  C   UNL     1     117.686  56.672  16.405  0.00  0.00    +0.007 A 
ATOM     34  C   UNL     1     117.378  56.483  17.793  0.00  0.00    -0.029 A 
ATOM     35  C   UNL     1     117.497  57.696  18.746  0.00  0.00    +0.045 C 
ENDROOT
BRANCH  10   9
ATOM      4  C   UNL     1     118.091  53.537  22.615  0.00  0.00    +0.077 A 
ATOM      5  C   UNL     1     119.399  53.128  22.192  0.00  0.00    +0.048 A 
ATOM      6  C   UNL     1     119.740  53.343  20.838  0.00  0.00    +0.116 A 
ATOM      7  N   UNL     1     118.833  53.925  19.980  0.00  0.00    -0.223 NA
ATOM      8  C   UNL     1     117.579  54.306  20.419  0.00  0.00    +0.220 A 
ATOM      9  N   UNL     1     116.653  54.900  19.575  0.00  0.00    -0.283 N 
ATOM     36  H   UNL     1     115.735  55.160  19.937  0.00  0.00    +0.155 HD
ATOM     37  N   UNL     1     117.228  54.110  21.708  0.00  0.00    -0.214 NA
BRANCH   4   3
ATOM      1  C   UNL     1     115.965  53.898  25.879  0.00  0.00    +0.020 A 
ATOM      2  C   UNL     1     116.413  54.086  24.518  0.00  0.00    +0.013 A 
ATOM      3  C   UNL     1     117.585  53.380  24.015  0.00  0.00    +0.019 A 
ATOM     38  C   UNL     1     118.285  52.483  24.922  0.00  0.00    +0.120 A 
ATOM     39  N   UNL     1     117.832  52.323  26.227  0.00  0.00    -0.263 NA
ATOM     40  C   UNL     1     116.707  52.999  26.723  0.00  0.00    +0.111 A 
ENDBRANCH   4   3
ENDBRANCH  10   9
BRANCH  12  13
ATOM     13  N   UNL     1     117.094  53.233  14.908  0.00  0.00    -0.281 N 
ATOM     14  C   UNL     1     118.054  52.292  14.578  0.00  0.00    +0.248 C 
ATOM     30  O   UNL     1     119.221  52.338  14.940  0.00  0.00    -0.270 OA
ATOM     31  H   UNL     1     116.219  53.183  14.387  0.00  0.00    +0.155 HD
BRANCH  14  15
ATOM     15  C   UNL     1     117.667  51.139  13.709  0.00  0.00    +0.037 A 
ATOM     16  C   UNL     1     116.496  51.209  12.831  0.00  0.00    +0.013 A 
ATOM     17  C   UNL     1     116.135  50.076  12.016  0.00  0.00    +0.005 A 
ATOM     18  C   UNL     1     116.947  48.864  12.074  0.00  0.00    -0.033 A 
ATOM     28  C   UNL     1     118.107  48.823  12.950  0.00  0.00    +0.005 A 
ATOM     29  C   UNL     1     118.463  49.931  13.751  0.00  0.00    +0.013 A 
BRANCH  18  19
ATOM     19  C   UNL     1     116.624  47.600  11.255  0.00  0.00    +0.119 C 
BRANCH  19  20
ATOM     20  N   UNL     1     117.549  47.256  10.135  0.00  0.00    -0.302 NA
ATOM     21  C   UNL     1     116.800  47.031   8.819  0.00  0.00    +0.066 C 
ATOM     22  C   UNL     1     117.786  46.693   7.653  0.00  0.00    -0.064 C 
ATOM     23  N   UNL     1     118.608  45.459   8.026  0.00  0.00    +0.379 N 
ATOM     24  C   UNL     1     119.495  45.105   6.908  0.00  0.00    -0.096 C 
ATOM     25  H   UNL     1     117.899  44.612   8.176  0.00  0.00    -0.082 HD
ATOM     26  C   UNL     1     119.355  45.673   9.335  0.00  0.00    -0.064 C 
ATOM     27  C   UNL     1     118.369  46.036  10.480  0.00  0.00    +0.066 C 
ENDBRANCH  19  20
ENDBRANCH  18  19
ENDBRANCH  14  15
ENDBRANCH  12  13
TORSDOF 6
ENDMDL
MODEL 3
REMARK VINA RESULT:      -8.2     21.207     23.098
REMARK  Name = C:\Users\Docking\Desktop\test protocol\1iep_ligandH.pdb
REMARK  8 active torsions:
REMARK  status: ('A' for Active; 'I' for Inactive)
REMARK    1  A    between atoms: _5  and  _11
REMARK    2  A    between atoms: _19  and  _21
REMARK    3  A    between atoms: _22  and  _66
REMARK    4  A    between atoms: _27  and  _30
REMARK    5  A    between atoms: _32  and  _33
REMARK    6  A    between atoms: _38  and  _43
REMARK    7  A    between atoms: _43  and  _46
REMARK    8  A    between atoms: _53  and  _55
REMARK                            x       y       z     vdW  Elec       q    Type
REMARK                         _______ _______ _______ _____ _____    ______ ____
ROOT
ATOM     10  C   UNL     1     126.311  70.469   5.292  0.00  0.00    +0.038 A 
ATOM     11  C   UNL     1     124.956  70.098   5.097  0.00  0.00    +0.047 A 
ATOM     12  C   UNL     1     124.235  70.485   3.894  0.00  0.00    +0.035 A 
ATOM     32  C   UNL     1     124.927  71.248   2.908  0.00  0.00    +0.024 A 
ATOM     33  C   UNL     1     126.304  71.635   3.091  0.00  0.00    +0.007 A 
ATOM     34  C   UNL     1     127.019  71.258   4.277  0.00  0.00    -0.029 A 
ATOM     35  C   UNL     1     128.492  71.706   4.422  0.00  0.00    +0.045 C 
ENDROOT
BRANCH  10   9
ATOM      4  C   UNL     1     127.865  71.296   9.757  0.00  0.00    +0.077 A 
ATOM      5  C   UNL     1     127.378  72.646   9.740  0.00  0.00    +0.048 A 
ATOM      6  C   UNL     1     126.740  73.090   8.561  0.00  0.00    +0.116 A 
ATOM      7  N   UNL     1     126.604  72.240   7.485  0.00  0.00    -0.223 NA
ATOM      8  C   UNL     1     127.087  70.945   7.533  0.00  0.00    +0.220 A 
ATOM      9  N   UNL     1     126.954  70.071   6.466  0.00  0.00    -0.283 N 
ATOM     36  H   UNL     1     127.330  69.126   6.539  0.00  0.00    +0.155 HD
ATOM     37  N   UNL     1     127.701  70.497   8.648  0.00  0.00    -0.214 NA
BRANCH   4   3
ATOM      1  C   UNL     1     129.346  70.702  13.328  0.00  0.00    +0.020 A 
ATOM      2  C   UNL     1     128.666  71.342  12.226  0.00  0.00    +0.013 A 
ATOM      3  C   UNL     1     128.559  70.680  10.932  0.00  0.00    +0.019 A 
ATOM     38  C   UNL     1     129.154  69.360  10.786  0.00  0.00    +0.120 A 
ATOM     39  N   UNL     1     129.805  68.769  11.865  0.00  0.00    -0.263 NA
ATOM     40  C   UNL     1     129.916  69.398  13.114  0.00  0.00    +0.111 A 
ENDBRANCH   4   3
ENDBRANCH  10   9
BRANCH  12  13
ATOM     13  N   UNL     1     122.857  70.144   3.644  0.00  0.00    -0.281 N 
ATOM     14  C   UNL     1     122.338  68.917   3.266  0.00  0.00    +0.248 C 
ATOM     30  O   UNL     1     123.010  67.974   2.875  0.00  0.00    -0.270 OA
ATOM     31  H   UNL     1     122.181  70.900   3.761  0.00  0.00    +0.155 HD
BRANCH  14  15
ATOM     15  C   UNL     1     120.858  68.712   3.315  0.00  0.00    +0.037 A 
ATOM     16  C   UNL     1     120.243  67.852   4.330  0.00  0.00    +0.013 A 
ATOM     17  C   UNL     1     118.815  67.658   4.344  0.00  0.00    +0.005 A 
ATOM     18  C   UNL     1     117.991  68.328   3.340  0.00  0.00    -0.033 A 
ATOM     28  C   UNL     1     118.627  69.180   2.349  0.00  0.00    +0.005 A 
ATOM     29  C   UNL     1     120.027  69.371   2.331  0.00  0.00    +0.013 A 
BRANCH  18  19
ATOM     19  C   UNL     1     116.462  68.162   3.267  0.00  0.00    +0.119 C 
BRANCH  19  20
ATOM     20  N   UNL     1     115.825  68.276   1.921  0.00  0.00    -0.302 NA
ATOM     21  C   UNL     1     114.329  67.952   1.964  0.00  0.00    +0.066 C 
ATOM     22  C   UNL     1     113.674  68.099   0.552  0.00  0.00    -0.064 C 
ATOM     23  N   UNL     1     114.398  67.186  -0.440  0.00  0.00    +0.379 N 
ATOM     24  C   UNL     1     113.748  67.278  -1.755  0.00  0.00    -0.096 C 
ATOM     25  H   UNL     1     114.285  66.138  -0.079  0.00  0.00    -0.082 HD
ATOM     26  C   UNL     1     115.887  67.500  -0.487  0.00  0.00    -0.064 C 
ATOM     27  C   UNL     1     116.522  67.380   0.927  0.00  0.00    +0.066 C 
ENDBRANCH  19  20
ENDBRANCH  18  19
ENDBRANCH  14  15
ENDBRANCH  12  13
TORSDOF 6
ENDMDL
MODEL 4
REMARK VINA RESULT:      -8.1      5.375     12.143
REMARK  Name = C:\Users\Docking\Desktop\test protocol\1iep_ligandH.pdb
REMARK  8 active torsions:
REMARK  status: ('A' for Active; 'I' for Inactive)
REMARK    1  A    between atoms: _5  and  _11
REMARK    2  A    between atoms: _19  and  _21
REMARK    3  A    between atoms: _22  and  _66
REMARK    4  A    between atoms: _27  and  _30
REMARK    5  A    between atoms: _32  and  _33
REMARK    6  A    between atoms: _38  and  _43
REMARK    7  A    between atoms: _43  and  _46
REMARK    8  A    between atoms: _53  and  _55
REMARK                            x       y       z     vdW  Elec       q    Type
REMARK                         _______ _______ _______ _____ _____    ______ ____
ROOT
ATOM     10  C   UNL     1     118.718  53.036  17.590  0.00  0.00    +0.038 A 
ATOM     11  C   UNL     1     119.179  54.287  17.105  0.00  0.00    +0.047 A 
ATOM     12  C   UNL     1     119.226  55.457  17.967  0.00  0.00    +0.035 A 
ATOM     32  C   UNL     1     118.798  55.317  19.319  0.00  0.00    +0.024 A 
ATOM     33  C   UNL     1     118.326  54.054  19.829  0.00  0.00    +0.007 A 
ATOM     34  C   UNL     1     118.275  52.896  18.982  0.00  0.00    -0.029 A 
ATOM     35  C   UNL     1     117.753  51.569  19.580  0.00  0.00    +0.045 C 
ENDROOT
BRANCH  10   9
ATOM      4  C   UNL     1     117.489  50.960  13.440  0.00  0.00    +0.077 A 
ATOM      5  C   UNL     1     116.814  52.140  12.982  0.00  0.00    +0.048 A 
ATOM      6  C   UNL     1     116.800  53.257  13.847  0.00  0.00    +0.116 A 
ATOM      7  N   UNL     1     117.418  53.188  15.076  0.00  0.00    -0.223 NA
ATOM      8  C   UNL     1     118.059  52.034  15.489  0.00  0.00    +0.220 A 
ATOM      9  N   UNL     1     118.694  51.945  16.718  0.00  0.00    -0.283 N 
ATOM     36  H   UNL     1     119.149  51.073  16.988  0.00  0.00    +0.155 HD
ATOM     37  N   UNL     1     118.085  50.953  14.682  0.00  0.00    -0.214 NA
BRANCH   4   3
ATOM      1  C   UNL     1     116.734  48.065  10.920  0.00  0.00    +0.020 A 
ATOM      2  C   UNL     1     116.585  49.292  11.668  0.00  0.00    +0.013 A 
ATOM      3  C   UNL     1     117.593  49.699  12.640  0.00  0.00    +0.019 A 
ATOM     38  C   UNL     1     118.747  48.835  12.832  0.00  0.00    +0.120 A 
ATOM     39  N   UNL     1     118.863  47.658  12.098  0.00  0.00    -0.263 NA
ATOM     40  C   UNL     1     117.899  47.256  11.162  0.00  0.00    +0.111 A 
ENDBRANCH   4   3
ENDBRANCH  10   9
BRANCH  12  13
ATOM     13  N   UNL     1     119.676  56.755  17.528  0.00  0.00    -0.281 N 
ATOM     14  C   UNL     1     120.958  57.132  17.162  0.00  0.00    +0.248 C 
ATOM     30  O   UNL     1     121.960  56.461  17.362  0.00  0.00    -0.270 OA
ATOM     31  H   UNL     1     118.964  57.483  17.482  0.00  0.00    +0.155 HD
BRANCH  14  15
ATOM     15  C   UNL     1     121.158  58.452  16.490  0.00  0.00    +0.037 A 
ATOM     16  C   UNL     1     122.075  58.597  15.357  0.00  0.00    +0.013 A 
ATOM     17  C   UNL     1     122.262  59.885  14.738  0.00  0.00    +0.005 A 
ATOM     18  C   UNL     1     121.528  61.039  15.250  0.00  0.00    -0.033 A 
ATOM     28  C   UNL     1     120.620  60.866  16.372  0.00  0.00    +0.005 A 
ATOM     29  C   UNL     1     120.435  59.606  16.983  0.00  0.00    +0.013 A 
BRANCH  18  19
ATOM     19  C   UNL     1     121.682  62.455  14.665  0.00  0.00    +0.119 C 
BRANCH  19  20
ATOM     20  N   UNL     1     122.280  62.570  13.301  0.00  0.00    -0.302 NA
ATOM     21  C   UNL     1     123.248  63.752  13.196  0.00  0.00    +0.066 C 
ATOM     22  C   UNL     1     123.882  63.844  11.770  0.00  0.00    -0.064 C 
ATOM     23  N   UNL     1     122.769  63.961  10.727  0.00  0.00    +0.379 N 
ATOM     24  C   UNL     1     123.364  64.106   9.390  0.00  0.00    -0.096 C 
ATOM     25  H   UNL     1     122.198  64.893  10.946  0.00  0.00    -0.082 HD
ATOM     26  C   UNL     1     121.801  62.791  10.826  0.00  0.00    -0.064 C 
ATOM     27  C   UNL     1     121.199  62.691  12.256  0.00  0.00    +0.066 C 
ENDBRANCH  19  20
ENDBRANCH  18  19
ENDBRANCH  14  15
ENDBRANCH  12  13
TORSDOF 6
ENDMDL
MODEL 5
REMARK VINA RESULT:      -8.1      5.190     12.809
REMARK  Name = C:\Users\Docking\Desktop\test protocol\1iep_ligandH.pdb
REMARK  8 active torsions:
REMARK  status: ('A' for Active; 'I' for Inactive)
REMARK    1  A    between atoms: _5  and  _11
REMARK    2  A    between atoms: _19  and  _21
REMARK    3  A    between atoms: _22  and  _66
REMARK    4  A    between atoms: _27  and  _30
REMARK    5  A    between atoms: _32  and  _33
REMARK    6  A    between atoms: _38  and  _43
REMARK    7  A    between atoms: _43  and  _46
REMARK    8  A    between atoms: _53  and  _55
REMARK                            x       y       z     vdW  Elec       q    Type
REMARK                         _______ _______ _______ _____ _____    ______ ____
ROOT
ATOM     10  C   UNL     1     118.646  52.929  18.098  0.00  0.00    +0.038 A 
ATOM     11  C   UNL     1     119.013  54.238  17.693  0.00  0.00    +0.047 A 
ATOM     12  C   UNL     1     119.090  55.328  18.652  0.00  0.00    +0.035 A 
ATOM     32  C   UNL     1     118.790  55.049  20.018  0.00  0.00    +0.024 A 
ATOM     33  C   UNL     1     118.415  53.725  20.446  0.00  0.00    +0.007 A 
ATOM     34  C   UNL     1     118.334  52.646  19.504  0.00  0.00    -0.029 A 
ATOM     35  C   UNL     1     117.921  51.247  20.018  0.00  0.00    +0.045 C 
ENDROOT
BRANCH  10   9
ATOM      4  C   UNL     1     117.457  51.297  13.743  0.00  0.00    +0.077 A 
ATOM      5  C   UNL     1     116.879  52.554  13.365  0.00  0.00    +0.048 A 
ATOM      6  C   UNL     1     116.901  53.593  14.323  0.00  0.00    +0.116 A 
ATOM      7  N   UNL     1     117.463  53.379  15.563  0.00  0.00    -0.223 NA
ATOM      8  C   UNL     1     118.011  52.154  15.896  0.00  0.00    +0.220 A 
ATOM      9  N   UNL     1     118.588  51.919  17.134  0.00  0.00    -0.283 N 
ATOM     36  H   UNL     1     118.975  50.999  17.344  0.00  0.00    +0.155 HD
ATOM     37  N   UNL     1     118.001  51.146  14.999  0.00  0.00    -0.214 NA
BRANCH   4   3
ATOM      1  C   UNL     1     116.517  48.561  11.111  0.00  0.00    +0.020 A 
ATOM      2  C   UNL     1     116.412  49.722  11.964  0.00  0.00    +0.013 A 
ATOM      3  C   UNL     1     117.513  50.104  12.840  0.00  0.00    +0.019 A 
ATOM     38  C   UNL     1     118.715  49.285  12.828  0.00  0.00    +0.120 A 
ATOM     39  N   UNL     1     118.787  48.171  11.996  0.00  0.00    -0.263 NA
ATOM     40  C   UNL     1     117.734  47.793  11.150  0.00  0.00    +0.111 A 
ENDBRANCH   4   3
ENDBRANCH  10   9
BRANCH  12  13
ATOM     13  N   UNL     1     119.448  56.679  18.299  0.00  0.00    -0.281 N 
ATOM     14  C   UNL     1     118.634  57.800  18.282  0.00  0.00    +0.248 C 
ATOM     30  O   UNL     1     117.415  57.770  18.365  0.00  0.00    -0.270 OA
ATOM     31  H   UNL     1     120.420  56.828  18.027  0.00  0.00    +0.155 HD
BRANCH  14  15
ATOM     15  C   UNL     1     119.263  59.148  18.139  0.00  0.00    +0.037 A 
ATOM     16  C   UNL     1     120.240  59.422  17.082  0.00  0.00    +0.013 A 
ATOM     17  C   UNL     1     120.845  60.726  16.977  0.00  0.00    +0.005 A 
ATOM     18  C   UNL     1     120.473  61.767  17.932  0.00  0.00    -0.033 A 
ATOM     28  C   UNL     1     119.498  61.470  18.968  0.00  0.00    +0.005 A 
ATOM     29  C   UNL     1     118.903  60.192  19.075  0.00  0.00    +0.013 A 
BRANCH  18  19
ATOM     19  C   UNL     1     121.084  63.181  17.908  0.00  0.00    +0.119 C 
BRANCH  19  20
ATOM     20  N   UNL     1     121.981  63.519  16.763  0.00  0.00    -0.302 NA
ATOM     21  C   UNL     1     123.395  63.876  17.227  0.00  0.00    +0.066 C 
ATOM     22  C   UNL     1     124.326  64.205  16.015  0.00  0.00    -0.064 C 
ATOM     23  N   UNL     1     123.717  65.351  15.204  0.00  0.00    +0.379 N 
ATOM     24  C   UNL     1     124.619  65.701  14.097  0.00  0.00    -0.096 C 
ATOM     25  H   UNL     1     123.644  66.238  15.875  0.00  0.00    -0.082 HD
ATOM     26  C   UNL     1     122.309  65.005  14.741  0.00  0.00    -0.064 C 
ATOM     27  C   UNL     1     121.400  64.651  15.951  0.00  0.00    +0.066 C 
ENDBRANCH  19  20
ENDBRANCH  18  19
ENDBRANCH  14  15
ENDBRANCH  12  13
TORSDOF 6
ENDMDL
