MODEL 1
REMARK VINA RESULT:      -8.7      0.000      0.000
REMARK  Name = C:\Users\Docking\Desktop\test protocol\1iep_ligandH.pdb
REMARK  8 active torsions:
REMARK  status: ('A' for Active; 'I' for Inactive)
REMARK    1  A    between atoms: _5  and  _11
REMARK    2  A    between atoms: _19  and  _21
REMARK    3  A    between atoms: _22  and  _66
REMARK    4  A    between atoms: _27  and  _30
REMARK    5  A    between atoms: _32  and  _33
REMARK    6  A    between atoms: _38  and  _43
REMARK    7  A    between atoms: _43  and  _46
REMARK    8  A    between atoms: _53  and  _55
REMARK                            x       y       z     vdW  Elec       q    Type
REMARK                         _______ _______ _______ _____ _____    ______ ____
ROOT
ATOM     10  C   UNL     1       4.768  14.505   2.931  0.00  0.00    +0.038 A 
ATOM     11  C   UNL     1       5.658  14.199   1.870  0.00  0.00    +0.047 A 
ATOM     12  C   UNL     1       6.859  14.987   1.644  0.00  0.00    +0.035 A 
ATOM     32  C   UNL     1       7.125  16.079   2.520  0.00  0.00    +0.024 A 
ATOM     33  C   UNL     1       6.231  16.405   3.603  0.00  0.00    +0.007 A 
ATOM     34  C   UNL     1       5.043  15.633   3.829  0.00  0.00    -0.029 A 
ATOM     35  C   UNL     1       4.117  16.033   5.001  0.00  0.00    +0.045 C 
ENDROOT
BRANCH  10   9
ATOM      4  C   UNL     1       2.452  10.785   4.889  0.00  0.00    +0.077 A 
ATOM      5  C   UNL     1       3.617  10.365   5.612  0.00  0.00    +0.048 A 
ATOM      6  C   UNL     1       4.794  11.128   5.447  0.00  0.00    +0.116 A 
ATOM      7  N   UNL     1       4.794  12.229   4.619  0.00  0.00    -0.223 NA
ATOM      8  C   UNL     1       3.653  12.607   3.934  0.00  0.00    +0.220 A 
ATOM      9  N   UNL     1       3.629  13.715   3.102  0.00  0.00    -0.283 N 
ATOM     36  H   UNL     1       2.769  13.957   2.609  0.00  0.00    +0.155 HD
ATOM     37  N   UNL     1       2.517  11.893   4.074  0.00  0.00    -0.214 NA
BRANCH   4   3
ATOM      1  C   UNL     1      -1.391  10.060   4.971  0.00  0.00    +0.020 A 
ATOM      2  C   UNL     1      -0.144  10.785   4.896  0.00  0.00    +0.013 A 
ATOM      3  C   UNL     1       1.131  10.083   4.962  0.00  0.00    +0.019 A 
ATOM     38  C   UNL     1       1.110   8.635   5.103  0.00  0.00    +0.120 A 
ATOM     39  N   UNL     1      -0.107   7.963   5.174  0.00  0.00    -0.263 NA
ATOM     40  C   UNL     1      -1.340   8.629   5.114  0.00  0.00    +0.111 A 
ENDBRANCH   4   3
ENDBRANCH  10   9
BRANCH  12  13
ATOM     13  N   UNL     1       7.795  14.728   0.578  0.00  0.00    -0.281 N 
ATOM     14  C   UNL     1       8.864  13.847   0.579  0.00  0.00    +0.248 C 
ATOM     30  O   UNL     1       9.309  13.300   1.578  0.00  0.00    -0.270 OA
ATOM     31  H   UNL     1       7.653  15.259  -0.281  0.00  0.00    +0.155 HD
BRANCH  14  15
ATOM     15  C   UNL     1       9.548  13.540  -0.714  0.00  0.00    +0.037 A 
ATOM     16  C   UNL     1       9.281  14.327  -1.920  0.00  0.00    +0.013 A 
ATOM     17  C   UNL     1       9.941  13.998  -3.159  0.00  0.00    +0.005 A 
ATOM     18  C   UNL     1      10.877  12.877  -3.197  0.00  0.00    -0.033 A 
ATOM     28  C   UNL     1      11.127  12.116  -1.984  0.00  0.00    +0.005 A 
ATOM     29  C   UNL     1      10.481  12.435  -0.768  0.00  0.00    +0.013 A 
BRANCH  18  19
ATOM     19  C   UNL     1      11.610  12.442  -4.479  0.00  0.00    +0.119 C 
BRANCH  19  20
ATOM     20  N   UNL     1      10.777  11.896  -5.592  0.00  0.00    -0.302 NA
ATOM     21  C   UNL     1      10.586  10.381  -5.476  0.00  0.00    +0.066 C 
ATOM     22  C   UNL     1       9.693   9.830  -6.635  0.00  0.00    -0.064 C 
ATOM     23  N   UNL     1      10.324  10.195  -7.979  0.00  0.00    +0.379 N 
ATOM     24  C   UNL     1       9.518   9.628  -9.070  0.00  0.00    -0.096 C 
ATOM     25  H   UNL     1      11.331   9.719  -8.020  0.00  0.00    -0.082 HD
ATOM     26  C   UNL     1      10.520  11.700  -8.102  0.00  0.00    -0.064 C 
ATOM     27  C   UNL     1      11.384  12.242  -6.929  0.00  0.00    +0.066 C 
ENDBRANCH  19  20
ENDBRANCH  18  19
ENDBRANCH  14  15
ENDBRANCH  12  13
TORSDOF 6
ENDMDL
MODEL 2
REMARK VINA RESULT:      -8.5      0.679      1.163
REMARK  Name = C:\Users\Docking\Desktop\test protocol\1iep_ligandH.pdb
REMARK  8 active torsions:
REMARK  status: ('A' for Active; 'I' for Inactive)
REMARK    1  A    between atoms: _5  and  _11
REMARK    2  A    between atoms: _19  and  _21
REMARK    3  A    between atoms: _22  and  _66
REMARK    4  A    between atoms: _27  and  _30
REMARK    5  A    between atoms: _32  and  _33
REMARK    6  A    between atoms: _38  and  _43
REMARK    7  A    between atoms: _43  and  _46
REMARK    8  A    between atoms: _53  and  _55
REMARK                            x       y       z     vdW  Elec       q    Type
REMARK                         _______ _______ _______ _____ _____    ______ ____
ROOT
ATOM     10  C   UNL     1       4.795  14.485   2.865  0.00  0.00    +0.038 A 
ATOM     11  C   UNL     1       5.653  14.137   1.791  0.00  0.00    +0.047 A 
ATOM     12  C   UNL     1       6.866  14.893   1.522  0.00  0.00    +0.035 A 
ATOM     32  C   UNL     1       7.177  15.997   2.370  0.00  0.00    +0.024 A 
ATOM     33  C   UNL     1       6.315  16.365   3.466  0.00  0.00    +0.007 A 
ATOM     34  C   UNL     1       5.115  15.624   3.734  0.00  0.00    -0.029 A 
ATOM     35  C   UNL     1       4.225  16.068   4.918  0.00  0.00    +0.045 C 
ENDROOT
BRANCH  10   9
ATOM      4  C   UNL     1       2.474  10.782   4.849  0.00  0.00    +0.077 A 
ATOM      5  C   UNL     1       3.663  10.306   5.495  0.00  0.00    +0.048 A 
ATOM      6  C   UNL     1       4.853  11.039   5.286  0.00  0.00    +0.116 A 
ATOM      7  N   UNL     1       4.842  12.163   4.488  0.00  0.00    -0.223 NA
ATOM      8  C   UNL     1       3.678  12.593   3.878  0.00  0.00    +0.220 A 
ATOM      9  N   UNL     1       3.643  13.725   3.078  0.00  0.00    -0.283 N 
ATOM     36  H   UNL     1       2.766  14.005   2.640  0.00  0.00    +0.155 HD
ATOM     37  N   UNL     1       2.529  11.910   4.061  0.00  0.00    -0.214 NA
BRANCH   4   3
ATOM      1  C   UNL     1      -1.383  10.158   5.030  0.00  0.00    +0.020 A 
ATOM      2  C   UNL     1      -0.120  10.848   4.902  0.00  0.00    +0.013 A 
ATOM      3  C   UNL     1       1.138  10.117   4.976  0.00  0.00    +0.019 A 
ATOM     38  C   UNL     1       1.084   8.678   5.183  0.00  0.00    +0.120 A 
ATOM     39  N   UNL     1      -0.147   8.041   5.305  0.00  0.00    -0.263 NA
ATOM     40  C   UNL     1      -1.365   8.734   5.236  0.00  0.00    +0.111 A 
ENDBRANCH   4   3
ENDBRANCH  10   9
BRANCH  12  13
ATOM     13  N   UNL     1       7.772  14.592   0.442  0.00  0.00    -0.281 N 
ATOM     14  C   UNL     1       8.900  13.788   0.474  0.00  0.00    +0.248 C 
ATOM     30  O   UNL     1       9.424  13.374   1.498  0.00  0.00    -0.270 OA
ATOM     31  H   UNL     1       7.555  15.024  -0.457  0.00  0.00    +0.155 HD
BRANCH  14  15
ATOM     15  C   UNL     1       9.547  13.399  -0.816  0.00  0.00    +0.037 A 
ATOM     16  C   UNL     1      10.360  12.185  -0.922  0.00  0.00    +0.013 A 
ATOM     17  C   UNL     1      10.987  11.842  -2.174  0.00  0.00    +0.005 A 
ATOM     18  C   UNL     1      10.802  12.715  -3.330  0.00  0.00    -0.033 A 
ATOM     28  C   UNL     1       9.986  13.911  -3.198  0.00  0.00    +0.005 A 
ATOM     29  C   UNL     1       9.371  14.251  -1.973  0.00  0.00    +0.013 A 
BRANCH  18  19
ATOM     19  C   UNL     1      11.451  12.439  -4.700  0.00  0.00    +0.119 C 
BRANCH  19  20
ATOM     20  N   UNL     1      11.146  11.129  -5.349  0.00  0.00    -0.302 NA
ATOM     21  C   UNL     1      12.340  10.589  -6.141  0.00  0.00    +0.066 C 
ATOM     22  C   UNL     1      12.010   9.207  -6.795  0.00  0.00    -0.064 C 
ATOM     23  N   UNL     1      10.783   9.353  -7.697  0.00  0.00    +0.379 N 
ATOM     24  C   UNL     1      10.505   8.070  -8.359  0.00  0.00    -0.096 C 
ATOM     25  H   UNL     1      11.032  10.096  -8.490  0.00  0.00    -0.082 HD
ATOM     26  C   UNL     1       9.592   9.893  -6.918  0.00  0.00    -0.064 C 
ATOM     27  C   UNL     1       9.940  11.251  -6.247  0.00  0.00    +0.066 C 
ENDBRANCH  19  20
ENDBRANCH  18  19
ENDBRANCH  14  15
ENDBRANCH  12  13
TORSDOF 6
ENDMDL
MODEL 3
REMARK VINA RESULT:      -8.2      1.467      2.258
REMARK  Name = C:\Users\Docking\Desktop\test protocol\1iep_ligandH.pdb
REMARK  8 active torsions:
REMARK  status: ('A' for Active; 'I' for Inactive)
REMARK    1  A    between atoms: _5  and  _11
REMARK    2  A    between atoms: _19  and  _21
REMARK    3  A    between atoms: _22  and  _66
REMARK    4  A    between atoms: _27  and  _30
REMARK    5  A    between atoms: _32  and  _33
REMARK    6  A    between atoms: _38  and  _43
REMARK    7  A    between atoms: _43  and  _46
REMARK    8  A    between atoms: _53  and  _55
REMARK                            x       y       z     vdW  Elec       q    Type
REMARK                         _______ _______ _______ _____ _____    ______ ____
ROOT
ATOM     10  C   UNL     1       4.816  14.493   2.822  0.00  0.00    +0.038 A 
ATOM     11  C   UNL     1       5.666  14.125   1.748  0.00  0.00    +0.047 A 
ATOM     12  C   UNL     1       6.885  14.866   1.465  0.00  0.00    +0.035 A 
ATOM     32  C   UNL     1       7.211  15.975   2.300  0.00  0.00    +0.024 A 
ATOM     33  C   UNL     1       6.358  16.364   3.395  0.00  0.00    +0.007 A 
ATOM     34  C   UNL     1       5.153  15.638   3.677  0.00  0.00    -0.029 A 
ATOM     35  C   UNL     1       4.273  16.104   4.861  0.00  0.00    +0.045 C 
ENDROOT
BRANCH  10   9
ATOM      4  C   UNL     1       2.476  10.811   4.823  0.00  0.00    +0.077 A 
ATOM      5  C   UNL     1       3.669  10.316   5.449  0.00  0.00    +0.048 A 
ATOM      6  C   UNL     1       4.865  11.035   5.225  0.00  0.00    +0.116 A 
ATOM      7  N   UNL     1       4.857  12.162   4.433  0.00  0.00    -0.223 NA
ATOM      8  C   UNL     1       3.690  12.611   3.842  0.00  0.00    +0.220 A 
ATOM      9  N   UNL     1       3.657  13.747   3.048  0.00  0.00    -0.283 N 
ATOM     36  H   UNL     1       2.778  14.041   2.625  0.00  0.00    +0.155 HD
ATOM     37  N   UNL     1       2.535  11.942   4.039  0.00  0.00    -0.214 NA
BRANCH   4   3
ATOM      1  C   UNL     1      -1.386  10.238   5.061  0.00  0.00    +0.020 A 
ATOM      2  C   UNL     1      -0.116  10.911   4.917  0.00  0.00    +0.013 A 
ATOM      3  C   UNL     1       1.134  10.163   4.966  0.00  0.00    +0.019 A 
ATOM     38  C   UNL     1       1.064   8.723   5.163  0.00  0.00    +0.120 A 
ATOM     39  N   UNL     1      -0.174   8.102   5.300  0.00  0.00    -0.263 NA
ATOM     40  C   UNL     1      -1.383   8.812   5.256  0.00  0.00    +0.111 A 
ENDBRANCH   4   3
ENDBRANCH  10   9
BRANCH  12  13
ATOM     13  N   UNL     1       7.783  14.544   0.384  0.00  0.00    -0.281 N 
ATOM     14  C   UNL     1       8.950  13.800   0.438  0.00  0.00    +0.248 C 
ATOM     30  O   UNL     1       9.516  13.476   1.472  0.00  0.00    -0.270 OA
ATOM     31  H   UNL     1       7.526  14.909  -0.534  0.00  0.00    +0.155 HD
BRANCH  14  15
ATOM     15  C   UNL     1       9.590  13.366  -0.841  0.00  0.00    +0.037 A 
ATOM     16  C   UNL     1       9.496  14.182  -2.054  0.00  0.00    +0.013 A 
ATOM     17  C   UNL     1      10.108  13.732  -3.279  0.00  0.00    +0.005 A 
ATOM     18  C   UNL     1      10.820  12.457  -3.296  0.00  0.00    -0.033 A 
ATOM     28  C   UNL     1      10.903  11.669  -2.077  0.00  0.00    +0.005 A 
ATOM     29  C   UNL     1      10.303  12.107  -0.875  0.00  0.00    +0.013 A 
BRANCH  18  19
ATOM     19  C   UNL     1      11.485  11.887  -4.563  0.00  0.00    +0.119 C 
BRANCH  19  20
ATOM     20  N   UNL     1      12.513  12.736  -5.236  0.00  0.00    -0.302 NA
ATOM     21  C   UNL     1      12.760  12.300  -6.683  0.00  0.00    +0.066 C 
ATOM     22  C   UNL     1      13.822  13.213  -7.379  0.00  0.00    -0.064 C 
ATOM     23  N   UNL     1      15.123  13.182  -6.575  0.00  0.00    +0.379 N 
ATOM     24  C   UNL     1      16.142  13.992  -7.257  0.00  0.00    -0.096 C 
ATOM     25  H   UNL     1      15.485  12.127  -6.558  0.00  0.00    -0.082 HD
ATOM     26  C   UNL     1      14.886  13.611  -5.134  0.00  0.00    -0.064 C 
ATOM     27  C   UNL     1      13.808  12.716  -4.461  0.00  0.00    +0.066 C 
ENDBRANCH  19  20
ENDBRANCH  18  19
ENDBRANCH  14  15
ENDBRANCH  12  13
TORSDOF 6
ENDMDL
MODEL 4
REMARK VINA RESULT:      -8.0      1.768      2.351
REMARK  Name = C:\Users\Docking\Desktop\test protocol\1iep_ligandH.pdb
REMARK  8 active torsions:
REMARK  status: ('A' for Active; 'I' for Inactive)
REMARK    1  A    between atoms: _5  and  _11
REMARK    2  A    between atoms: _19  and  _21
REMARK    3  A    between atoms: _22  and  _66
REMARK    4  A    between atoms: _27  and  _30
REMARK    5  A    between atoms: _32  and  _33
REMARK    6  A    between atoms: _38  and  _43
REMARK    7  A    between atoms: _43  and  _46
REMARK    8  A    between atoms: _53  and  _55
REMARK                            x       y       z     vdW  Elec       q    Type
REMARK                         _______ _______ _______ _____ _____    ______ ____
ROOT
ATOM     10  C   UNL     1       5.489  13.990   4.327  0.00  0.00    +0.038 A 
ATOM     11  C   UNL     1       6.221  13.585   3.182  0.00  0.00    +0.047 A 
ATOM     12  C   UNL     1       6.491  14.513   2.094  0.00  0.00    +0.035 A 
ATOM     32  C   UNL     1       6.002  15.847   2.208  0.00  0.00    +0.024 A 
ATOM     33  C   UNL     1       5.255  16.275   3.365  0.00  0.00    +0.007 A 
ATOM     34  C   UNL     1       4.984  15.363   4.440  0.00  0.00    -0.029 A 
ATOM     35  C   UNL     1       4.173  15.875   5.653  0.00  0.00    +0.045 C 
ENDROOT
BRANCH  10   9
ATOM      4  C   UNL     1       2.989  10.387   6.278  0.00  0.00    +0.077 A 
ATOM      5  C   UNL     1       2.044  10.380   5.199  0.00  0.00    +0.048 A 
ATOM      6  C   UNL     1       2.233  11.324   4.164  0.00  0.00    +0.116 A 
ATOM      7  N   UNL     1       3.292  12.204   4.216  0.00  0.00    -0.223 NA
ATOM      8  C   UNL     1       4.184  12.186   5.273  0.00  0.00    +0.220 A 
ATOM      9  N   UNL     1       5.260  13.057   5.341  0.00  0.00    -0.283 N 
ATOM     36  H   UNL     1       5.891  13.017   6.141  0.00  0.00    +0.155 HD
ATOM     37  N   UNL     1       4.024  11.295   6.273  0.00  0.00    -0.214 NA
BRANCH   4   3
ATOM      1  C   UNL     1       3.325   8.857   9.862  0.00  0.00    +0.020 A 
ATOM      2  C   UNL     1       3.411   9.800   8.771  0.00  0.00    +0.013 A 
ATOM      3  C   UNL     1       2.925   9.448   7.443  0.00  0.00    +0.019 A 
ATOM     38  C   UNL     1       2.354   8.124   7.250  0.00  0.00    +0.120 A 
ATOM     39  N   UNL     1       2.286   7.236   8.320  0.00  0.00    -0.263 NA
ATOM     40  C   UNL     1       2.752   7.563   9.602  0.00  0.00    +0.111 A 
ENDBRANCH   4   3
ENDBRANCH  10   9
BRANCH  12  13
ATOM     13  N   UNL     1       7.221  14.157   0.903  0.00  0.00    -0.281 N 
ATOM     14  C   UNL     1       8.308  14.809   0.344  0.00  0.00    +0.248 C 
ATOM     30  O   UNL     1       8.687  15.925   0.668  0.00  0.00    -0.270 OA
ATOM     31  H   UNL     1       6.897  13.324   0.412  0.00  0.00    +0.155 HD
BRANCH  14  15
ATOM     15  C   UNL     1       9.078  14.128  -0.741  0.00  0.00    +0.037 A 
ATOM     16  C   UNL     1       9.142  14.689  -2.093  0.00  0.00    +0.013 A 
ATOM     17  C   UNL     1       9.877  14.003  -3.126  0.00  0.00    +0.005 A 
ATOM     18  C   UNL     1      10.557  12.749  -2.810  0.00  0.00    -0.033 A 
ATOM     28  C   UNL     1      10.481  12.218  -1.459  0.00  0.00    +0.005 A 
ATOM     29  C   UNL     1       9.761  12.887  -0.444  0.00  0.00    +0.013 A 
BRANCH  18  19
ATOM     19  C   UNL     1      11.347  11.939  -3.855  0.00  0.00    +0.119 C 
BRANCH  19  20
ATOM     20  N   UNL     1      10.624  11.538  -5.098  0.00  0.00    -0.302 NA
ATOM     21  C   UNL     1      10.777  10.043  -5.395  0.00  0.00    +0.066 C 
ATOM     22  C   UNL     1       9.995   9.636  -6.686  0.00  0.00    -0.064 C 
ATOM     23  N   UNL     1      10.492  10.476  -7.865  0.00  0.00    +0.379 N 
ATOM     24  C   UNL     1       9.800  10.055  -9.092  0.00  0.00    -0.096 C 
ATOM     25  H   UNL     1      11.578  10.262  -7.998  0.00  0.00    -0.082 HD
ATOM     26  C   UNL     1      10.346  11.963  -7.577  0.00  0.00    -0.064 C 
ATOM     27  C   UNL     1      11.101  12.352  -6.276  0.00  0.00    +0.066 C 
ENDBRANCH  19  20
ENDBRANCH  18  19
ENDBRANCH  14  15
ENDBRANCH  12  13
TORSDOF 6
ENDMDL
MODEL 5
REMARK VINA RESULT:      -7.9      2.019      2.587
REMARK  Name = C:\Users\Docking\Desktop\test protocol\1iep_ligandH.pdb
REMARK  8 active torsions:
REMARK  status: ('A' for Active; 'I' for Inactive)
REMARK    1  A    between atoms: _5  and  _11
REMARK    2  A    between atoms: _19  and  _21
REMARK    3  A    between atoms: _22  and  _66
REMARK    4  A    between atoms: _27  and  _30
REMARK    5  A    between atoms: _32  and  _33
REMARK    6  A    between atoms: _38  and  _43
REMARK    7  A    between atoms: _43  and  _46
REMARK    8  A    between atoms: _53  and  _55
REMARK                            x       y       z     vdW  Elec       q    Type
REMARK                         _______ _______ _______ _____ _____    ______ ____
ROOT
ATOM     10  C   UNL     1       6.985  14.111   3.306  0.00  0.00    +0.038 A 
ATOM     11  C   UNL     1       7.566  13.719   2.073  0.00  0.00    +0.047 A 
ATOM     12  C   UNL     1       8.071  14.705   1.131  0.00  0.00    +0.035 A 
ATOM     32  C   UNL     1       7.970  16.084   1.478  0.00  0.00    +0.024 A 
ATOM     33  C   UNL     1       7.381  16.501   2.726  0.00  0.00    +0.007 A 
ATOM     34  C   UNL     1       6.879  15.532   3.658  0.00  0.00    -0.029 A 
ATOM     35  C   UNL     1       6.251  16.037   4.978  0.00  0.00    +0.045 C 
ENDROOT
BRANCH  10   9
ATOM      4  C   UNL     1       3.576  11.107   4.853  0.00  0.00    +0.077 A 
ATOM      5  C   UNL     1       2.640  11.567   3.867  0.00  0.00    +0.048 A 
ATOM      6  C   UNL     1       3.073  12.583   2.986  0.00  0.00    +0.116 A 
ATOM      7  N   UNL     1       4.349  13.093   3.091  0.00  0.00    -0.223 NA
ATOM      8  C   UNL     1       5.226  12.628   4.054  0.00  0.00    +0.220 A 
ATOM      9  N   UNL     1       6.516  13.121   4.173  0.00  0.00    -0.283 N 
ATOM     36  H   UNL     1       7.130  12.757   4.901  0.00  0.00    +0.155 HD
ATOM     37  N   UNL     1       4.836  11.660   4.908  0.00  0.00    -0.214 NA
BRANCH   4   3
ATOM      1  C   UNL     1       2.451   7.735   6.485  0.00  0.00    +0.020 A 
ATOM      2  C   UNL     1       2.730   8.734   5.480  0.00  0.00    +0.013 A 
ATOM      3  C   UNL     1       3.268  10.037   5.853  0.00  0.00    +0.019 A 
ATOM     38  C   UNL     1       3.514  10.298   7.263  0.00  0.00    +0.120 A 
ATOM     39  N   UNL     1       3.234   9.317   8.209  0.00  0.00    -0.263 NA
ATOM     40  C   UNL     1       2.715   8.061   7.862  0.00  0.00    +0.111 A 
ENDBRANCH   4   3
ENDBRANCH  10   9
BRANCH  12  13
ATOM     13  N   UNL     1       8.665  14.367  -0.139  0.00  0.00    -0.281 N 
ATOM     14  C   UNL     1      10.000  14.437  -0.500  0.00  0.00    +0.248 C 
ATOM     30  O   UNL     1      10.863  15.008   0.150  0.00  0.00    -0.270 OA
ATOM     31  H   UNL     1       8.022  14.035  -0.858  0.00  0.00    +0.155 HD
BRANCH  14  15
ATOM     15  C   UNL     1      10.437  13.792  -1.776  0.00  0.00    +0.037 A 
ATOM     16  C   UNL     1       9.707  14.010  -3.027  0.00  0.00    +0.013 A 
ATOM     17  C   UNL     1      10.140  13.363  -4.240  0.00  0.00    +0.005 A 
ATOM     18  C   UNL     1      11.312  12.492  -4.207  0.00  0.00    -0.033 A 
ATOM     28  C   UNL     1      12.022  12.297  -2.954  0.00  0.00    +0.005 A 
ATOM     29  C   UNL     1      11.599  12.929  -1.763  0.00  0.00    +0.013 A 
BRANCH  18  19
ATOM     19  C   UNL     1      11.833  11.744  -5.449  0.00  0.00    +0.119 C 
BRANCH  19  20
ATOM     20  N   UNL     1      11.532  12.341  -6.784  0.00  0.00    -0.302 NA
ATOM     21  C   UNL     1      10.870  11.333  -7.728  0.00  0.00    +0.066 C 
ATOM     22  C   UNL     1      10.541  11.982  -9.112  0.00  0.00    -0.064 C 
ATOM     23  N   UNL     1      11.825  12.540  -9.729  0.00  0.00    +0.379 N 
ATOM     24  C   UNL     1      11.529  13.099 -11.056  0.00  0.00    -0.096 C 
ATOM     25  H   UNL     1      12.531  11.689  -9.870  0.00  0.00    -0.082 HD
ATOM     26  C   UNL     1      12.490  13.541  -8.795  0.00  0.00    -0.064 C 
ATOM     27  C   UNL     1      12.786  12.895  -7.413  0.00  0.00    +0.066 C 
ENDBRANCH  19  20
ENDBRANCH  18  19
ENDBRANCH  14  15
ENDBRANCH  12  13
TORSDOF 6
ENDMDL
