MODEL 1
REMARK VINA RESULT:      -7.7      0.000      0.000
REMARK  Name = C:\Users\Docking\Desktop\test protocol\1iep_ligandH.pdb
REMARK  8 active torsions:
REMARK  status: ('A' for Active; 'I' for Inactive)
REMARK    1  A    between atoms: _5  and  _11
REMARK    2  A    between atoms: _19  and  _21
REMARK    3  A    between atoms: _22  and  _66
REMARK    4  A    between atoms: _27  and  _30
REMARK    5  A    between atoms: _32  and  _33
REMARK    6  A    between atoms: _38  and  _43
REMARK    7  A    between atoms: _43  and  _46
REMARK    8  A    between atoms: _53  and  _55
REMARK                            x       y       z     vdW  Elec       q    Type
REMARK                         _______ _______ _______ _____ _____    ______ ____
ROOT
ATOM     10  C   UNL     1      41.587  41.944   3.796  0.00  0.00    +0.038 A 
ATOM     11  C   UNL     1      41.994  41.134   4.886  0.00  0.00    +0.047 A 
ATOM     12  C   UNL     1      42.267  39.716   4.710  0.00  0.00    +0.035 A 
ATOM     32  C   UNL     1      42.118  39.156   3.407  0.00  0.00    +0.024 A 
ATOM     33  C   UNL     1      41.703  39.964   2.288  0.00  0.00    +0.007 A 
ATOM     34  C   UNL     1      41.430  41.363   2.456  0.00  0.00    -0.029 A 
ATOM     35  C   UNL     1      40.982  42.180   1.222  0.00  0.00    +0.045 C 
ENDROOT
BRANCH  10   9
ATOM      4  C   UNL     1      38.637  45.597   4.794  0.00  0.00    +0.077 A 
ATOM      5  C   UNL     1      37.491  44.735   4.842  0.00  0.00    +0.048 A 
ATOM      6  C   UNL     1      37.702  43.360   4.597  0.00  0.00    +0.116 A 
ATOM      7  N   UNL     1      38.970  42.892   4.326  0.00  0.00    -0.223 NA
ATOM      8  C   UNL     1      40.053  43.750   4.285  0.00  0.00    +0.220 A 
ATOM      9  N   UNL     1      41.338  43.299   4.022  0.00  0.00    -0.283 N 
ATOM     36  H   UNL     1      42.109  43.965   3.993  0.00  0.00    +0.155 HD
ATOM     37  N   UNL     1      39.878  45.068   4.514  0.00  0.00    -0.214 NA
BRANCH   4   3
ATOM      1  C   UNL     1      37.319  49.232   5.380  0.00  0.00    +0.020 A 
ATOM      2  C   UNL     1      37.322  47.806   5.147  0.00  0.00    +0.013 A 
ATOM      3  C   UNL     1      38.577  47.073   5.034  0.00  0.00    +0.019 A 
ATOM     38  C   UNL     1      39.820  47.818   5.162  0.00  0.00    +0.120 A 
ATOM     39  N   UNL     1      39.785  49.191   5.384  0.00  0.00    -0.263 NA
ATOM     40  C   UNL     1      38.584  49.908   5.494  0.00  0.00    +0.111 A 
ENDBRANCH   4   3
ENDBRANCH  10   9
BRANCH  12  13
ATOM     13  N   UNL     1      42.677  38.842   5.781  0.00  0.00    -0.281 N 
ATOM     14  C   UNL     1      41.897  38.324   6.803  0.00  0.00    +0.248 C 
ATOM     30  O   UNL     1      40.769  38.708   7.074  0.00  0.00    -0.270 OA
ATOM     31  H   UNL     1      43.661  38.572   5.787  0.00  0.00    +0.155 HD
BRANCH  14  15
ATOM     15  C   UNL     1      42.458  37.233   7.656  0.00  0.00    +0.037 A 
ATOM     16  C   UNL     1      41.637  36.090   8.064  0.00  0.00    +0.013 A 
ATOM     17  C   UNL     1      42.197  35.059   8.901  0.00  0.00    +0.005 A 
ATOM     18  C   UNL     1      43.588  35.166   9.335  0.00  0.00    -0.033 A 
ATOM     28  C   UNL     1      44.381  36.308   8.912  0.00  0.00    +0.005 A 
ATOM     29  C   UNL     1      43.835  37.321   8.092  0.00  0.00    +0.013 A 
BRANCH  18  19
ATOM     19  C   UNL     1      44.262  34.124  10.247  0.00  0.00    +0.119 C 
BRANCH  19  20
ATOM     20  N   UNL     1      44.421  32.742   9.704  0.00  0.00    -0.302 NA
ATOM     21  C   UNL     1      45.224  31.843  10.649  0.00  0.00    +0.066 C 
ATOM     22  C   UNL     1      45.362  30.395  10.076  0.00  0.00    -0.064 C 
ATOM     23  N   UNL     1      46.019  30.455   8.696  0.00  0.00    +0.379 N 
ATOM     24  C   UNL     1      46.203  29.091   8.180  0.00  0.00    -0.096 C 
ATOM     25  H   UNL     1      47.030  30.908   8.823  0.00  0.00    -0.082 HD
ATOM     26  C   UNL     1      45.228  31.349   7.752  0.00  0.00    -0.064 C 
ATOM     27  C   UNL     1      45.072  32.778   8.344  0.00  0.00    +0.066 C 
ENDBRANCH  19  20
ENDBRANCH  18  19
ENDBRANCH  14  15
ENDBRANCH  12  13
TORSDOF 6
ENDMDL
MODEL 2
REMARK VINA RESULT:      -7.7      5.266     11.768
REMARK  Name = C:\Users\Docking\Desktop\test protocol\1iep_ligandH.pdb
REMARK  8 active torsions:
REMARK  status: ('A' for Active; 'I' for Inactive)
REMARK    1  A    between atoms: _5  and  _11
REMARK    2  A    between atoms: _19  and  _21
REMARK    3  A    between atoms: _22  and  _66
REMARK    4  A    between atoms: _27  and  _30
REMARK    5  A    between atoms: _32  and  _33
REMARK    6  A    between atoms: _38  and  _43
REMARK    7  A    between atoms: _43  and  _46
REMARK    8  A    between atoms: _53  and  _55
REMARK                            x       y       z     vdW  Elec       q    Type
REMARK                         _______ _______ _______ _____ _____    ______ ____
ROOT
ATOM     10  C   UNL     1      45.100  40.382   9.323  0.00  0.00    +0.038 A 
ATOM     11  C   UNL     1      44.409  39.989   8.149  0.00  0.00    +0.047 A 
ATOM     12  C   UNL     1      43.557  40.922   7.428  0.00  0.00    +0.035 A 
ATOM     32  C   UNL     1      43.434  42.250   7.931  0.00  0.00    +0.024 A 
ATOM     33  C   UNL     1      44.128  42.667   9.124  0.00  0.00    +0.007 A 
ATOM     34  C   UNL     1      44.967  41.750   9.840  0.00  0.00    -0.029 A 
ATOM     35  C   UNL     1      45.682  42.249  11.117  0.00  0.00    +0.045 C 
ENDROOT
BRANCH  10   9
ATOM      4  C   UNL     1      45.762  36.877  12.535  0.00  0.00    +0.077 A 
ATOM      5  C   UNL     1      44.396  36.936  12.969  0.00  0.00    +0.048 A 
ATOM      6  C   UNL     1      43.558  37.887  12.345  0.00  0.00    +0.116 A 
ATOM      7  N   UNL     1      44.058  38.713  11.362  0.00  0.00    -0.223 NA
ATOM      8  C   UNL     1      45.381  38.631  10.968  0.00  0.00    +0.220 A 
ATOM      9  N   UNL     1      45.904  39.445   9.975  0.00  0.00    -0.283 N 
ATOM     36  H   UNL     1      46.887  39.359   9.718  0.00  0.00    +0.155 HD
ATOM     37  N   UNL     1      46.203  37.732  11.549  0.00  0.00    -0.214 NA
BRANCH   4   3
ATOM      1  C   UNL     1      48.146  33.810  12.997  0.00  0.00    +0.020 A 
ATOM      2  C   UNL     1      47.167  34.698  12.412  0.00  0.00    +0.013 A 
ATOM      3  C   UNL     1      46.770  35.923  13.095  0.00  0.00    +0.019 A 
ATOM     38  C   UNL     1      47.388  36.223  14.378  0.00  0.00    +0.120 A 
ATOM     39  N   UNL     1      48.327  35.349  14.917  0.00  0.00    -0.263 NA
ATOM     40  C   UNL     1      48.715  34.167  14.270  0.00  0.00    +0.111 A 
ENDBRANCH   4   3
ENDBRANCH  10   9
BRANCH  12  13
ATOM     13  N   UNL     1      42.825  40.577   6.235  0.00  0.00    -0.281 N 
ATOM     14  C   UNL     1      43.082  40.975   4.933  0.00  0.00    +0.248 C 
ATOM     30  O   UNL     1      43.860  41.866   4.623  0.00  0.00    -0.270 OA
ATOM     31  H   UNL     1      42.020  39.965   6.365  0.00  0.00    +0.155 HD
BRANCH  14  15
ATOM     15  C   UNL     1      42.361  40.295   3.814  0.00  0.00    +0.037 A 
ATOM     16  C   UNL     1      42.045  38.866   3.872  0.00  0.00    +0.013 A 
ATOM     17  C   UNL     1      41.364  38.231   2.771  0.00  0.00    +0.005 A 
ATOM     18  C   UNL     1      40.993  39.027   1.604  0.00  0.00    -0.033 A 
ATOM     28  C   UNL     1      41.314  40.444   1.575  0.00  0.00    +0.005 A 
ATOM     29  C   UNL     1      41.983  41.069   2.651  0.00  0.00    +0.013 A 
BRANCH  18  19
ATOM     19  C   UNL     1      40.282  38.428   0.375  0.00  0.00    +0.119 C 
BRANCH  19  20
ATOM     20  N   UNL     1      38.796  38.303   0.438  0.00  0.00    -0.302 NA
ATOM     21  C   UNL     1      38.357  36.995   1.104  0.00  0.00    +0.066 C 
ATOM     22  C   UNL     1      36.799  36.891   1.183  0.00  0.00    -0.064 C 
ATOM     23  N   UNL     1      36.212  37.005  -0.225  0.00  0.00    +0.379 N 
ATOM     24  C   UNL     1      34.751  36.849  -0.162  0.00  0.00    -0.096 C 
ATOM     25  H   UNL     1      36.617  36.160  -0.830  0.00  0.00    -0.082 HD
ATOM     26  C   UNL     1      36.645  38.301  -0.896  0.00  0.00    -0.064 C 
ATOM     27  C   UNL     1      38.195  38.409  -0.942  0.00  0.00    +0.066 C 
ENDBRANCH  19  20
ENDBRANCH  18  19
ENDBRANCH  14  15
ENDBRANCH  12  13
TORSDOF 6
ENDMDL
MODEL 3
REMARK VINA RESULT:      -7.7      8.649     12.325
REMARK  Name = C:\Users\Docking\Desktop\test protocol\1iep_ligandH.pdb
REMARK  8 active torsions:
REMARK  status: ('A' for Active; 'I' for Inactive)
REMARK    1  A    between atoms: _5  and  _11
REMARK    2  A    between atoms: _19  and  _21
REMARK    3  A    between atoms: _22  and  _66
REMARK    4  A    between atoms: _27  and  _30
REMARK    5  A    between atoms: _32  and  _33
REMARK    6  A    between atoms: _38  and  _43
REMARK    7  A    between atoms: _43  and  _46
REMARK    8  A    between atoms: _53  and  _55
REMARK                            x       y       z     vdW  Elec       q    Type
REMARK                         _______ _______ _______ _____ _____    ______ ____
ROOT
ATOM     10  C   UNL     1      33.848  37.973  -2.724  0.00  0.00    +0.038 A 
ATOM     11  C   UNL     1      34.942  38.328  -1.894  0.00  0.00    +0.047 A 
ATOM     12  C   UNL     1      35.396  37.447  -0.829  0.00  0.00    +0.035 A 
ATOM     32  C   UNL     1      34.714  36.209  -0.640  0.00  0.00    +0.024 A 
ATOM     33  C   UNL     1      33.599  35.833  -1.474  0.00  0.00    +0.007 A 
ATOM     34  C   UNL     1      33.146  36.700  -2.524  0.00  0.00    -0.029 A 
ATOM     35  C   UNL     1      31.942  36.248  -3.384  0.00  0.00    +0.045 C 
ENDROOT
BRANCH  10   9
ATOM      4  C   UNL     1      34.096  39.658  -7.212  0.00  0.00    +0.077 A 
ATOM      5  C   UNL     1      35.115  38.714  -7.573  0.00  0.00    +0.048 A 
ATOM      6  C   UNL     1      35.552  37.817  -6.573  0.00  0.00    +0.116 A 
ATOM      7  N   UNL     1      35.005  37.869  -5.309  0.00  0.00    -0.223 NA
ATOM      8  C   UNL     1      34.025  38.793  -4.993  0.00  0.00    +0.220 A 
ATOM      9  N   UNL     1      33.455  38.857  -3.731  0.00  0.00    -0.283 N 
ATOM     36  H   UNL     1      32.741  39.558  -3.536  0.00  0.00    +0.155 HD
ATOM     37  N   UNL     1      33.592  39.661  -5.931  0.00  0.00    -0.214 NA
BRANCH   4   3
ATOM      1  C   UNL     1      32.358  42.844  -8.670  0.00  0.00    +0.020 A 
ATOM      2  C   UNL     1      32.891  41.901  -7.714  0.00  0.00    +0.013 A 
ATOM      3  C   UNL     1      33.528  40.668  -8.159  0.00  0.00    +0.019 A 
ATOM     38  C   UNL     1      33.612  40.418  -9.590  0.00  0.00    +0.120 A 
ATOM     39  N   UNL     1      33.090  41.344 -10.488  0.00  0.00    -0.263 NA
ATOM     40  C   UNL     1      32.472  42.533 -10.071  0.00  0.00    +0.111 A 
ENDBRANCH   4   3
ENDBRANCH  10   9
BRANCH  12  13
ATOM     13  N   UNL     1      36.495  37.757   0.051  0.00  0.00    -0.281 N 
ATOM     14  C   UNL     1      37.776  37.230   0.032  0.00  0.00    +0.248 C 
ATOM     30  O   UNL     1      38.110  36.249  -0.616  0.00  0.00    -0.270 OA
ATOM     31  H   UNL     1      36.306  38.449   0.775  0.00  0.00    +0.155 HD
BRANCH  14  15
ATOM     15  C   UNL     1      38.836  37.878   0.863  0.00  0.00    +0.037 A 
ATOM     16  C   UNL     1      38.665  38.058   2.307  0.00  0.00    +0.013 A 
ATOM     17  C   UNL     1      39.696  38.701   3.082  0.00  0.00    +0.005 A 
ATOM     18  C   UNL     1      40.908  39.169   2.414  0.00  0.00    -0.033 A 
ATOM     28  C   UNL     1      41.053  38.974   0.981  0.00  0.00    +0.005 A 
ATOM     29  C   UNL     1      40.045  38.344   0.218  0.00  0.00    +0.013 A 
BRANCH  18  19
ATOM     19  C   UNL     1      42.050  39.886   3.159  0.00  0.00    +0.119 C 
BRANCH  19  20
ATOM     20  N   UNL     1      41.810  41.297   3.584  0.00  0.00    -0.302 NA
ATOM     21  C   UNL     1      41.065  41.375   4.920  0.00  0.00    +0.066 C 
ATOM     22  C   UNL     1      40.842  42.858   5.362  0.00  0.00    -0.064 C 
ATOM     23  N   UNL     1      40.073  43.602   4.269  0.00  0.00    +0.379 N 
ATOM     24  C   UNL     1      39.810  44.981   4.705  0.00  0.00    -0.096 C 
ATOM     25  H   UNL     1      39.088  43.094   4.143  0.00  0.00    -0.082 HD
ATOM     26  C   UNL     1      40.804  43.527   2.936  0.00  0.00    -0.064 C 
ATOM     27  C   UNL     1      41.047  42.049   2.521  0.00  0.00    +0.066 C 
ENDBRANCH  19  20
ENDBRANCH  18  19
ENDBRANCH  14  15
ENDBRANCH  12  13
TORSDOF 6
ENDMDL
MODEL 4
REMARK VINA RESULT:      -7.7      3.640      6.270
REMARK  Name = C:\Users\Docking\Desktop\test protocol\1iep_ligandH.pdb
REMARK  8 active torsions:
REMARK  status: ('A' for Active; 'I' for Inactive)
REMARK    1  A    between atoms: _5  and  _11
REMARK    2  A    between atoms: _19  and  _21
REMARK    3  A    between atoms: _22  and  _66
REMARK    4  A    between atoms: _27  and  _30
REMARK    5  A    between atoms: _32  and  _33
REMARK    6  A    between atoms: _38  and  _43
REMARK    7  A    between atoms: _43  and  _46
REMARK    8  A    between atoms: _53  and  _55
REMARK                            x       y       z     vdW  Elec       q    Type
REMARK                         _______ _______ _______ _____ _____    ______ ____
ROOT
ATOM     10  C   UNL     1      40.890  40.145   4.076  0.00  0.00    +0.038 A 
ATOM     11  C   UNL     1      41.560  39.208   4.904  0.00  0.00    +0.047 A 
ATOM     12  C   UNL     1      42.775  39.567   5.617  0.00  0.00    +0.035 A 
ATOM     32  C   UNL     1      43.280  40.892   5.467  0.00  0.00    +0.024 A 
ATOM     33  C   UNL     1      42.613  41.857   4.629  0.00  0.00    +0.007 A 
ATOM     34  C   UNL     1      41.415  41.507   3.921  0.00  0.00    -0.029 A 
ATOM     35  C   UNL     1      40.746  42.581   3.031  0.00  0.00    +0.045 C 
ENDROOT
BRANCH  10   9
ATOM      4  C   UNL     1      38.608  38.197   0.330  0.00  0.00    +0.077 A 
ATOM      5  C   UNL     1      39.835  37.979  -0.380  0.00  0.00    +0.048 A 
ATOM      6  C   UNL     1      41.031  38.389   0.251  0.00  0.00    +0.116 A 
ATOM      7  N   UNL     1      40.991  38.972   1.499  0.00  0.00    -0.223 NA
ATOM      8  C   UNL     1      39.790  39.169   2.155  0.00  0.00    +0.220 A 
ATOM      9  N   UNL     1      39.727  39.747   3.414  0.00  0.00    -0.283 N 
ATOM     36  H   UNL     1      38.821  39.881   3.862  0.00  0.00    +0.155 HD
ATOM     37  N   UNL     1      38.634  38.788   1.574  0.00  0.00    -0.214 NA
BRANCH   4   3
ATOM      1  C   UNL     1      35.350  38.058  -1.829  0.00  0.00    +0.020 A 
ATOM      2  C   UNL     1      36.652  38.466  -1.355  0.00  0.00    +0.013 A 
ATOM      3  C   UNL     1      37.262  37.814  -0.202  0.00  0.00    +0.019 A 
ATOM     38  C   UNL     1      36.523  36.745   0.451  0.00  0.00    +0.120 A 
ATOM     39  N   UNL     1      35.270  36.375  -0.028  0.00  0.00    -0.263 NA
ATOM     40  C   UNL     1      34.672  36.996  -1.134  0.00  0.00    +0.111 A 
ENDBRANCH   4   3
ENDBRANCH  10   9
BRANCH  12  13
ATOM     13  N   UNL     1      43.503  38.656   6.465  0.00  0.00    -0.281 N 
ATOM     14  C   UNL     1      43.526  38.615   7.850  0.00  0.00    +0.248 C 
ATOM     30  O   UNL     1      43.090  39.497   8.574  0.00  0.00    -0.270 OA
ATOM     31  H   UNL     1      44.069  37.955   5.986  0.00  0.00    +0.155 HD
BRANCH  14  15
ATOM     15  C   UNL     1      44.135  37.430   8.527  0.00  0.00    +0.037 A 
ATOM     16  C   UNL     1      45.004  37.586   9.696  0.00  0.00    +0.013 A 
ATOM     17  C   UNL     1      45.591  36.427  10.321  0.00  0.00    +0.005 A 
ATOM     18  C   UNL     1      45.311  35.101   9.776  0.00  0.00    -0.033 A 
ATOM     28  C   UNL     1      44.441  34.974   8.619  0.00  0.00    +0.005 A 
ATOM     29  C   UNL     1      43.864  36.108   8.004  0.00  0.00    +0.013 A 
BRANCH  18  19
ATOM     19  C   UNL     1      45.912  33.811  10.365  0.00  0.00    +0.119 C 
BRANCH  19  20
ATOM     20  N   UNL     1      45.291  32.517   9.953  0.00  0.00    -0.302 NA
ATOM     21  C   UNL     1      44.796  31.708  11.155  0.00  0.00    +0.066 C 
ATOM     22  C   UNL     1      44.129  30.368  10.704  0.00  0.00    -0.064 C 
ATOM     23  N   UNL     1      45.130  29.556   9.880  0.00  0.00    +0.379 N 
ATOM     24  C   UNL     1      44.525  28.270   9.503  0.00  0.00    -0.096 C 
ATOM     25  H   UNL     1      46.008  29.339  10.532  0.00  0.00    -0.082 HD
ATOM     26  C   UNL     1      45.629  30.354   8.684  0.00  0.00    -0.064 C 
ATOM     27  C   UNL     1      46.263  31.697   9.141  0.00  0.00    +0.066 C 
ENDBRANCH  19  20
ENDBRANCH  18  19
ENDBRANCH  14  15
ENDBRANCH  12  13
TORSDOF 6
ENDMDL
MODEL 5
REMARK VINA RESULT:      -7.6      8.556     11.670
REMARK  Name = C:\Users\Docking\Desktop\test protocol\1iep_ligandH.pdb
REMARK  8 active torsions:
REMARK  status: ('A' for Active; 'I' for Inactive)
REMARK    1  A    between atoms: _5  and  _11
REMARK    2  A    between atoms: _19  and  _21
REMARK    3  A    between atoms: _22  and  _66
REMARK    4  A    between atoms: _27  and  _30
REMARK    5  A    between atoms: _32  and  _33
REMARK    6  A    between atoms: _38  and  _43
REMARK    7  A    between atoms: _43  and  _46
REMARK    8  A    between atoms: _53  and  _55
REMARK                            x       y       z     vdW  Elec       q    Type
REMARK                         _______ _______ _______ _____ _____    ______ ____
ROOT
ATOM     10  C   UNL     1      34.093  38.181  -2.702  0.00  0.00    +0.038 A 
ATOM     11  C   UNL     1      35.207  38.599  -1.930  0.00  0.00    +0.047 A 
ATOM     12  C   UNL     1      35.716  37.782  -0.840  0.00  0.00    +0.035 A 
ATOM     32  C   UNL     1      35.068  36.543  -0.565  0.00  0.00    +0.024 A 
ATOM     33  C   UNL     1      33.934  36.103  -1.339  0.00  0.00    +0.007 A 
ATOM     34  C   UNL     1      33.426  36.906  -2.414  0.00  0.00    -0.029 A 
ATOM     35  C   UNL     1      32.203  36.388  -3.206  0.00  0.00    +0.045 C 
ENDROOT
BRANCH  10   9
ATOM      4  C   UNL     1      34.199  39.690  -7.257  0.00  0.00    +0.077 A 
ATOM      5  C   UNL     1      35.253  38.777  -7.597  0.00  0.00    +0.048 A 
ATOM      6  C   UNL     1      35.744  37.942  -6.569  0.00  0.00    +0.116 A 
ATOM      7  N   UNL     1      35.214  38.021  -5.299  0.00  0.00    -0.223 NA
ATOM      8  C   UNL     1      34.200  38.914  -5.005  0.00  0.00    +0.220 A 
ATOM      9  N   UNL     1      33.646  39.006  -3.737  0.00  0.00    -0.283 N 
ATOM     36  H   UNL     1      32.905  39.682  -3.559  0.00  0.00    +0.155 HD
ATOM     37  N   UNL     1      33.714  39.723  -5.969  0.00  0.00    -0.214 NA
BRANCH   4   3
ATOM      1  C   UNL     1      32.306  42.738  -8.814  0.00  0.00    +0.020 A 
ATOM      2  C   UNL     1      32.894  41.859  -7.830  0.00  0.00    +0.013 A 
ATOM      3  C   UNL     1      33.573  40.635  -8.235  0.00  0.00    +0.019 A 
ATOM     38  C   UNL     1      33.641  40.327  -9.656  0.00  0.00    +0.120 A 
ATOM     39  N   UNL     1      33.064  41.191 -10.581  0.00  0.00    -0.263 NA
ATOM     40  C   UNL     1      32.407  42.371 -10.203  0.00  0.00    +0.111 A 
ENDBRANCH   4   3
ENDBRANCH  10   9
BRANCH  12  13
ATOM     13  N   UNL     1      36.839  38.158  -0.016  0.00  0.00    -0.281 N 
ATOM     14  C   UNL     1      38.187  37.995  -0.289  0.00  0.00    +0.248 C 
ATOM     30  O   UNL     1      38.631  37.303  -1.193  0.00  0.00    -0.270 OA
ATOM     31  H   UNL     1      36.612  38.598   0.875  0.00  0.00    +0.155 HD
BRANCH  14  15
ATOM     15  C   UNL     1      39.188  38.690   0.578  0.00  0.00    +0.037 A 
ATOM     16  C   UNL     1      38.831  39.888   1.341  0.00  0.00    +0.013 A 
ATOM     17  C   UNL     1      39.820  40.549   2.155  0.00  0.00    +0.005 A 
ATOM     18  C   UNL     1      41.176  40.010   2.212  0.00  0.00    -0.033 A 
ATOM     28  C   UNL     1      41.502  38.817   1.449  0.00  0.00    +0.005 A 
ATOM     29  C   UNL     1      40.536  38.167   0.648  0.00  0.00    +0.013 A 
BRANCH  18  19
ATOM     19  C   UNL     1      42.301  40.662   3.038  0.00  0.00    +0.119 C 
BRANCH  19  20
ATOM     20  N   UNL     1      42.151  40.654   4.523  0.00  0.00    -0.302 NA
ATOM     21  C   UNL     1      43.314  41.364   5.222  0.00  0.00    +0.066 C 
ATOM     22  C   UNL     1      43.129  41.366   6.775  0.00  0.00    -0.064 C 
ATOM     23  N   UNL     1      42.997  39.926   7.272  0.00  0.00    +0.379 N 
ATOM     24  C   UNL     1      42.881  39.921   8.738  0.00  0.00    -0.096 C 
ATOM     25  H   UNL     1      43.936  39.388   7.005  0.00  0.00    -0.082 HD
ATOM     26  C   UNL     1      41.844  39.211   6.580  0.00  0.00    -0.064 C 
ATOM     27  C   UNL     1      42.023  39.241   5.036  0.00  0.00    +0.066 C 
ENDBRANCH  19  20
ENDBRANCH  18  19
ENDBRANCH  14  15
ENDBRANCH  12  13
TORSDOF 6
ENDMDL
