MODEL 1
REMARK VINA RESULT:      -8.2      0.000      0.000
REMARK  Name = C:\Users\Docking\Desktop\test protocol\1iep_ligandH.pdb
REMARK  8 active torsions:
REMARK  status: ('A' for Active; 'I' for Inactive)
REMARK    1  A    between atoms: _5  and  _11
REMARK    2  A    between atoms: _19  and  _21
REMARK    3  A    between atoms: _22  and  _66
REMARK    4  A    between atoms: _27  and  _30
REMARK    5  A    between atoms: _32  and  _33
REMARK    6  A    between atoms: _38  and  _43
REMARK    7  A    between atoms: _43  and  _46
REMARK    8  A    between atoms: _53  and  _55
REMARK                            x       y       z     vdW  Elec       q    Type
REMARK                         _______ _______ _______ _____ _____    ______ ____
ROOT
ATOM     10  C   UNL     1      10.761  16.066   5.230  0.00  0.00    +0.038 A 
ATOM     11  C   UNL     1      10.738  17.424   5.638  0.00  0.00    +0.047 A 
ATOM     12  C   UNL     1      10.718  17.787   7.046  0.00  0.00    +0.035 A 
ATOM     32  C   UNL     1      10.726  16.740   8.014  0.00  0.00    +0.024 A 
ATOM     33  C   UNL     1      10.748  15.354   7.617  0.00  0.00    +0.007 A 
ATOM     34  C   UNL     1      10.765  14.991   6.229  0.00  0.00    -0.029 A 
ATOM     35  C   UNL     1      10.782  13.488   5.861  0.00  0.00    +0.045 C 
ENDROOT
BRANCH  10   9
ATOM      4  C   UNL     1       8.651  15.824   0.926  0.00  0.00    +0.077 A 
ATOM      5  C   UNL     1       7.399  16.291   1.447  0.00  0.00    +0.048 A 
ATOM      6  C   UNL     1       7.338  16.576   2.830  0.00  0.00    +0.116 A 
ATOM      7  N   UNL     1       8.452  16.403   3.622  0.00  0.00    -0.223 NA
ATOM      8  C   UNL     1       9.644  15.949   3.088  0.00  0.00    +0.220 A 
ATOM      9  N   UNL     1      10.779  15.775   3.864  0.00  0.00    -0.283 N 
ATOM     36  H   UNL     1      11.637  15.431   3.434  0.00  0.00    +0.155 HD
ATOM     37  N   UNL     1       9.727  15.668   1.770  0.00  0.00    -0.214 NA
BRANCH   4   3
ATOM      1  C   UNL     1       8.579  15.908  -2.984  0.00  0.00    +0.020 A 
ATOM      2  C   UNL     1       8.334  16.279  -1.610  0.00  0.00    +0.013 A 
ATOM      3  C   UNL     1       8.874  15.484  -0.515  0.00  0.00    +0.019 A 
ATOM     38  C   UNL     1       9.666  14.309  -0.847  0.00  0.00    +0.120 A 
ATOM     39  N   UNL     1       9.885  13.975  -2.180  0.00  0.00    -0.263 NA
ATOM     40  C   UNL     1       9.368  14.732  -3.242  0.00  0.00    +0.111 A 
ENDBRANCH   4   3
ENDBRANCH  10   9
BRANCH  12  13
ATOM     13  N   UNL     1      10.686  19.149   7.520  0.00  0.00    -0.281 N 
ATOM     14  C   UNL     1       9.595  19.998   7.596  0.00  0.00    +0.248 C 
ATOM     30  O   UNL     1       8.515  19.785   7.066  0.00  0.00    -0.270 OA
ATOM     31  H   UNL     1      11.576  19.533   7.837  0.00  0.00    +0.155 HD
BRANCH  14  15
ATOM     15  C   UNL     1       9.727  21.277   8.360  0.00  0.00    +0.037 A 
ATOM     16  C   UNL     1      10.063  22.533   7.686  0.00  0.00    +0.013 A 
ATOM     17  C   UNL     1      10.201  23.749   8.448  0.00  0.00    +0.005 A 
ATOM     18  C   UNL     1      10.001  23.713   9.895  0.00  0.00    -0.033 A 
ATOM     28  C   UNL     1       9.664  22.453  10.538  0.00  0.00    +0.005 A 
ATOM     29  C   UNL     1       9.529  21.260   9.794  0.00  0.00    +0.013 A 
BRANCH  18  19
ATOM     19  C   UNL     1      10.149  24.957  10.791  0.00  0.00    +0.119 C 
BRANCH  19  20
ATOM     20  N   UNL     1       9.758  24.817  12.225  0.00  0.00    -0.302 NA
ATOM     21  C   UNL     1       8.690  25.838  12.631  0.00  0.00    +0.066 C 
ATOM     22  C   UNL     1       8.276  25.663  14.128  0.00  0.00    -0.064 C 
ATOM     23  N   UNL     1       9.515  25.793  15.016  0.00  0.00    +0.379 N 
ATOM     24  C   UNL     1       9.120  25.687  16.428  0.00  0.00    -0.096 C 
ATOM     25  H   UNL     1       9.938  26.812  14.859  0.00  0.00    -0.082 HD
ATOM     26  C   UNL     1      10.582  24.784  14.618  0.00  0.00    -0.064 C 
ATOM     27  C   UNL     1      10.966  24.947  13.120  0.00  0.00    +0.066 C 
ENDBRANCH  19  20
ENDBRANCH  18  19
ENDBRANCH  14  15
ENDBRANCH  12  13
TORSDOF 6
ENDMDL
MODEL 2
REMARK VINA RESULT:      -8.1      3.744     12.436
REMARK  Name = C:\Users\Docking\Desktop\test protocol\1iep_ligandH.pdb
REMARK  8 active torsions:
REMARK  status: ('A' for Active; 'I' for Inactive)
REMARK    1  A    between atoms: _5  and  _11
REMARK    2  A    between atoms: _19  and  _21
REMARK    3  A    between atoms: _22  and  _66
REMARK    4  A    between atoms: _27  and  _30
REMARK    5  A    between atoms: _32  and  _33
REMARK    6  A    between atoms: _38  and  _43
REMARK    7  A    between atoms: _43  and  _46
REMARK    8  A    between atoms: _53  and  _55
REMARK                            x       y       z     vdW  Elec       q    Type
REMARK                         _______ _______ _______ _____ _____    ______ ____
ROOT
ATOM     10  C   UNL     1       9.811  23.089   8.227  0.00  0.00    +0.038 A 
ATOM     11  C   UNL     1       9.586  21.964   7.392  0.00  0.00    +0.047 A 
ATOM     12  C   UNL     1       9.132  20.697   7.944  0.00  0.00    +0.035 A 
ATOM     32  C   UNL     1       8.914  20.612   9.350  0.00  0.00    +0.024 A 
ATOM     33  C   UNL     1       9.139  21.745  10.213  0.00  0.00    +0.007 A 
ATOM     34  C   UNL     1       9.589  22.996   9.675  0.00  0.00    -0.029 A 
ATOM     35  C   UNL     1       9.819  24.176  10.648  0.00  0.00    +0.045 C 
ENDROOT
BRANCH  10   9
ATOM      4  C   UNL     1      13.251  26.241   7.102  0.00  0.00    +0.077 A 
ATOM      5  C   UNL     1      14.262  25.460   7.754  0.00  0.00    +0.048 A 
ATOM      6  C   UNL     1      13.854  24.257   8.373  0.00  0.00    +0.116 A 
ATOM      7  N   UNL     1      12.531  23.874   8.336  0.00  0.00    -0.223 NA
ATOM      8  C   UNL     1      11.581  24.651   7.700  0.00  0.00    +0.220 A 
ATOM      9  N   UNL     1      10.246  24.281   7.644  0.00  0.00    -0.283 N 
ATOM     36  H   UNL     1       9.575  24.886   7.172  0.00  0.00    +0.155 HD
ATOM     37  N   UNL     1      11.945  25.805   7.103  0.00  0.00    -0.214 NA
BRANCH   4   3
ATOM      1  C   UNL     1      14.506  29.857   6.295  0.00  0.00    +0.020 A 
ATOM      2  C   UNL     1      14.267  28.628   7.016  0.00  0.00    +0.013 A 
ATOM      3  C   UNL     1      13.526  27.535   6.400  0.00  0.00    +0.019 A 
ATOM     38  C   UNL     1      13.036  27.718   5.042  0.00  0.00    +0.120 A 
ATOM     39  N   UNL     1      13.280  28.913   4.373  0.00  0.00    -0.263 NA
ATOM     40  C   UNL     1      13.991  29.973   4.956  0.00  0.00    +0.111 A 
ENDBRANCH   4   3
ENDBRANCH  10   9
BRANCH  12  13
ATOM     13  N   UNL     1       8.895  19.519   7.147  0.00  0.00    -0.281 N 
ATOM     14  C   UNL     1       7.691  18.870   6.923  0.00  0.00    +0.248 C 
ATOM     30  O   UNL     1       6.664  19.083   7.551  0.00  0.00    -0.270 OA
ATOM     31  H   UNL     1       9.714  19.113   6.694  0.00  0.00    +0.155 HD
BRANCH  14  15
ATOM     15  C   UNL     1       7.622  17.824   5.858  0.00  0.00    +0.037 A 
ATOM     16  C   UNL     1       8.662  16.800   5.731  0.00  0.00    +0.013 A 
ATOM     17  C   UNL     1       8.580  15.812   4.683  0.00  0.00    +0.005 A 
ATOM     18  C   UNL     1       7.451  15.845   3.756  0.00  0.00    -0.033 A 
ATOM     28  C   UNL     1       6.432  16.869   3.908  0.00  0.00    +0.005 A 
ATOM     29  C   UNL     1       6.509  17.839   4.933  0.00  0.00    +0.013 A 
BRANCH  18  19
ATOM     19  C   UNL     1       7.294  14.844   2.596  0.00  0.00    +0.119 C 
BRANCH  19  20
ATOM     20  N   UNL     1       8.151  15.053   1.391  0.00  0.00    -0.302 NA
ATOM     21  C   UNL     1       7.649  16.210   0.522  0.00  0.00    +0.066 C 
ATOM     22  C   UNL     1       8.570  16.430  -0.722  0.00  0.00    -0.064 C 
ATOM     23  N   UNL     1       8.642  15.135  -1.533  0.00  0.00    +0.379 N 
ATOM     24  C   UNL     1       9.461  15.355  -2.735  0.00  0.00    -0.096 C 
ATOM     25  H   UNL     1       7.608  14.888  -1.869  0.00  0.00    -0.082 HD
ATOM     26  C   UNL     1       9.138  13.979  -0.677  0.00  0.00    -0.064 C 
ATOM     27  C   UNL     1       8.233  13.788   0.572  0.00  0.00    +0.066 C 
ENDBRANCH  19  20
ENDBRANCH  18  19
ENDBRANCH  14  15
ENDBRANCH  12  13
TORSDOF 6
ENDMDL
MODEL 3
REMARK VINA RESULT:      -8.0      1.916      2.611
REMARK  Name = C:\Users\Docking\Desktop\test protocol\1iep_ligandH.pdb
REMARK  8 active torsions:
REMARK  status: ('A' for Active; 'I' for Inactive)
REMARK    1  A    between atoms: _5  and  _11
REMARK    2  A    between atoms: _19  and  _21
REMARK    3  A    between atoms: _22  and  _66
REMARK    4  A    between atoms: _27  and  _30
REMARK    5  A    between atoms: _32  and  _33
REMARK    6  A    between atoms: _38  and  _43
REMARK    7  A    between atoms: _43  and  _46
REMARK    8  A    between atoms: _53  and  _55
REMARK                            x       y       z     vdW  Elec       q    Type
REMARK                         _______ _______ _______ _____ _____    ______ ____
ROOT
ATOM     10  C   UNL     1       6.389  17.336   5.103  0.00  0.00    +0.038 A 
ATOM     11  C   UNL     1       7.004  18.376   5.846  0.00  0.00    +0.047 A 
ATOM     12  C   UNL     1       6.747  18.538   7.268  0.00  0.00    +0.035 A 
ATOM     32  C   UNL     1       5.859  17.621   7.903  0.00  0.00    +0.024 A 
ATOM     33  C   UNL     1       5.224  16.560   7.163  0.00  0.00    +0.007 A 
ATOM     34  C   UNL     1       5.472  16.396   5.759  0.00  0.00    -0.029 A 
ATOM     35  C   UNL     1       4.758  15.244   5.015  0.00  0.00    +0.045 C 
ENDROOT
BRANCH  10   9
ATOM      4  C   UNL     1       9.137  15.860   1.455  0.00  0.00    +0.077 A 
ATOM      5  C   UNL     1      10.105  15.281   2.341  0.00  0.00    +0.048 A 
ATOM      6  C   UNL     1       9.862  15.391   3.729  0.00  0.00    +0.116 A 
ATOM      7  N   UNL     1       8.732  16.034   4.185  0.00  0.00    -0.223 NA
ATOM      8  C   UNL     1       7.819  16.583   3.303  0.00  0.00    +0.220 A 
ATOM      9  N   UNL     1       6.671  17.227   3.740  0.00  0.00    -0.283 N 
ATOM     36  H   UNL     1       6.026  17.625   3.057  0.00  0.00    +0.155 HD
ATOM     37  N   UNL     1       8.029  16.492   1.973  0.00  0.00    -0.214 NA
BRANCH   4   3
ATOM      1  C   UNL     1       8.259  15.827  -2.356  0.00  0.00    +0.020 A 
ATOM      2  C   UNL     1       8.094  15.865  -0.922  0.00  0.00    +0.013 A 
ATOM      3  C   UNL     1       9.251  15.823  -0.037  0.00  0.00    +0.019 A 
ATOM     38  C   UNL     1      10.573  15.741  -0.641  0.00  0.00    +0.120 A 
ATOM     39  N   UNL     1      10.701  15.704  -2.026  0.00  0.00    -0.263 NA
ATOM     40  C   UNL     1       9.594  15.743  -2.887  0.00  0.00    +0.111 A 
ENDBRANCH   4   3
ENDBRANCH  10   9
BRANCH  12  13
ATOM     13  N   UNL     1       7.337  19.579   8.073  0.00  0.00    -0.281 N 
ATOM     14  C   UNL     1       8.608  20.119   7.968  0.00  0.00    +0.248 C 
ATOM     30  O   UNL     1       9.511  19.638   7.300  0.00  0.00    -0.270 OA
ATOM     31  H   UNL     1       6.745  19.965   8.808  0.00  0.00    +0.155 HD
BRANCH  14  15
ATOM     15  C   UNL     1       8.928  21.367   8.726  0.00  0.00    +0.037 A 
ATOM     16  C   UNL     1       9.515  22.532   8.060  0.00  0.00    +0.013 A 
ATOM     17  C   UNL     1       9.829  23.717   8.818  0.00  0.00    +0.005 A 
ATOM     18  C   UNL     1       9.554  23.743  10.252  0.00  0.00    -0.033 A 
ATOM     28  C   UNL     1       8.966  22.576  10.887  0.00  0.00    +0.005 A 
ATOM     29  C   UNL     1       8.658  21.412  10.147  0.00  0.00    +0.013 A 
BRANCH  18  19
ATOM     19  C   UNL     1       9.876  24.957  11.144  0.00  0.00    +0.119 C 
BRANCH  19  20
ATOM     20  N   UNL     1       9.577  24.834  12.602  0.00  0.00    -0.302 NA
ATOM     21  C   UNL     1       8.551  25.871  13.067  0.00  0.00    +0.066 C 
ATOM     22  C   UNL     1       8.232  25.713  14.590  0.00  0.00    -0.064 C 
ATOM     23  N   UNL     1       9.528  25.834  15.394  0.00  0.00    +0.379 N 
ATOM     24  C   UNL     1       9.224  25.743  16.830  0.00  0.00    -0.096 C 
ATOM     25  H   UNL     1       9.952  26.846  15.201  0.00  0.00    -0.082 HD
ATOM     26  C   UNL     1      10.555  24.808  14.936  0.00  0.00    -0.064 C 
ATOM     27  C   UNL     1      10.842  24.955  13.415  0.00  0.00    +0.066 C 
ENDBRANCH  19  20
ENDBRANCH  18  19
ENDBRANCH  14  15
ENDBRANCH  12  13
TORSDOF 6
ENDMDL
MODEL 4
REMARK VINA RESULT:      -7.9      9.610     15.165
REMARK  Name = C:\Users\Docking\Desktop\test protocol\1iep_ligandH.pdb
REMARK  8 active torsions:
REMARK  status: ('A' for Active; 'I' for Inactive)
REMARK    1  A    between atoms: _5  and  _11
REMARK    2  A    between atoms: _19  and  _21
REMARK    3  A    between atoms: _22  and  _66
REMARK    4  A    between atoms: _27  and  _30
REMARK    5  A    between atoms: _32  and  _33
REMARK    6  A    between atoms: _38  and  _43
REMARK    7  A    between atoms: _43  and  _46
REMARK    8  A    between atoms: _53  and  _55
REMARK                            x       y       z     vdW  Elec       q    Type
REMARK                         _______ _______ _______ _____ _____    ______ ____
ROOT
ATOM     10  C   UNL     1       4.812  12.438   3.249  0.00  0.00    +0.038 A 
ATOM     11  C   UNL     1       3.526  12.080   2.769  0.00  0.00    +0.047 A 
ATOM     12  C   UNL     1       2.398  11.935   3.676  0.00  0.00    +0.035 A 
ATOM     32  C   UNL     1       2.615  12.165   5.066  0.00  0.00    +0.024 A 
ATOM     33  C   UNL     1       3.915  12.528   5.571  0.00  0.00    +0.007 A 
ATOM     34  C   UNL     1       5.032  12.670   4.681  0.00  0.00    -0.029 A 
ATOM     35  C   UNL     1       6.406  13.055   5.279  0.00  0.00    +0.045 C 
ENDROOT
BRANCH  10   9
ATOM      4  C   UNL     1       7.669  15.058   0.419  0.00  0.00    +0.077 A 
ATOM      5  C   UNL     1       7.000  16.277   0.773  0.00  0.00    +0.048 A 
ATOM      6  C   UNL     1       5.922  16.186   1.681  0.00  0.00    +0.116 A 
ATOM      7  N   UNL     1       5.548  14.961   2.191  0.00  0.00    -0.223 NA
ATOM      8  C   UNL     1       6.213  13.805   1.827  0.00  0.00    +0.220 A 
ATOM      9  N   UNL     1       5.859  12.563   2.333  0.00  0.00    -0.283 N 
ATOM     36  H   UNL     1       6.370  11.733   2.034  0.00  0.00    +0.155 HD
ATOM     37  N   UNL     1       7.245  13.865   0.960  0.00  0.00    -0.214 NA
BRANCH   4   3
ATOM      1  C   UNL     1      10.490  13.727  -1.942  0.00  0.00    +0.020 A 
ATOM      2  C   UNL     1       9.369  13.736  -1.030  0.00  0.00    +0.013 A 
ATOM      3  C   UNL     1       8.828  14.992  -0.526  0.00  0.00    +0.019 A 
ATOM     38  C   UNL     1       9.449  16.232  -0.968  0.00  0.00    +0.120 A 
ATOM     39  N   UNL     1      10.528  16.192  -1.846  0.00  0.00    -0.263 NA
ATOM     40  C   UNL     1      11.058  14.990  -2.336  0.00  0.00    +0.111 A 
ENDBRANCH   4   3
ENDBRANCH  10   9
BRANCH  12  13
ATOM     13  N   UNL     1       1.072  11.566   3.247  0.00  0.00    -0.281 N 
ATOM     14  C   UNL     1       0.383  10.396   3.522  0.00  0.00    +0.248 C 
ATOM     30  O   UNL     1       0.889   9.392   4.002  0.00  0.00    -0.270 OA
ATOM     31  H   UNL     1       0.581  12.251   2.672  0.00  0.00    +0.155 HD
BRANCH  14  15
ATOM     15  C   UNL     1      -1.075  10.324   3.202  0.00  0.00    +0.037 A 
ATOM     16  C   UNL     1      -2.040  11.214   3.853  0.00  0.00    +0.013 A 
ATOM     17  C   UNL     1      -3.444  11.113   3.540  0.00  0.00    +0.005 A 
ATOM     18  C   UNL     1      -3.890  10.117   2.568  0.00  0.00    -0.033 A 
ATOM     28  C   UNL     1      -2.911   9.251   1.934  0.00  0.00    +0.005 A 
ATOM     29  C   UNL     1      -1.535   9.347   2.239  0.00  0.00    +0.013 A 
BRANCH  18  19
ATOM     19  C   UNL     1      -5.370   9.925   2.189  0.00  0.00    +0.119 C 
BRANCH  19  20
ATOM     20  N   UNL     1      -5.828  10.519   0.897  0.00  0.00    -0.302 NA
ATOM     21  C   UNL     1      -6.026  12.033   1.000  0.00  0.00    +0.066 C 
ATOM     22  C   UNL     1      -6.483  12.641  -0.366  0.00  0.00    -0.064 C 
ATOM     23  N   UNL     1      -7.773  11.956  -0.820  0.00  0.00    +0.379 N 
ATOM     24  C   UNL     1      -8.237  12.565  -2.075  0.00  0.00    -0.096 C 
ATOM     25  H   UNL     1      -8.549  12.148  -0.044  0.00  0.00    -0.082 HD
ATOM     26  C   UNL     1      -7.586  10.449  -0.922  0.00  0.00    -0.064 C 
ATOM     27  C   UNL     1      -7.103   9.859   0.432  0.00  0.00    +0.066 C 
ENDBRANCH  19  20
ENDBRANCH  18  19
ENDBRANCH  14  15
ENDBRANCH  12  13
TORSDOF 6
ENDMDL
MODEL 5
REMARK VINA RESULT:      -7.8      3.212      4.984
REMARK  Name = C:\Users\Docking\Desktop\test protocol\1iep_ligandH.pdb
REMARK  8 active torsions:
REMARK  status: ('A' for Active; 'I' for Inactive)
REMARK    1  A    between atoms: _5  and  _11
REMARK    2  A    between atoms: _19  and  _21
REMARK    3  A    between atoms: _22  and  _66
REMARK    4  A    between atoms: _27  and  _30
REMARK    5  A    between atoms: _32  and  _33
REMARK    6  A    between atoms: _38  and  _43
REMARK    7  A    between atoms: _43  and  _46
REMARK    8  A    between atoms: _53  and  _55
REMARK                            x       y       z     vdW  Elec       q    Type
REMARK                         _______ _______ _______ _____ _____    ______ ____
ROOT
ATOM     10  C   UNL     1       7.095  15.138   2.352  0.00  0.00    +0.038 A 
ATOM     11  C   UNL     1       7.622  16.068   3.284  0.00  0.00    +0.047 A 
ATOM     12  C   UNL     1       6.745  16.890   4.104  0.00  0.00    +0.035 A 
ATOM     32  C   UNL     1       5.336  16.737   3.950  0.00  0.00    +0.024 A 
ATOM     33  C   UNL     1       4.784  15.797   3.006  0.00  0.00    +0.007 A 
ATOM     34  C   UNL     1       5.644  14.985   2.193  0.00  0.00    -0.029 A 
ATOM     35  C   UNL     1       4.996  13.999   1.194  0.00  0.00    +0.045 C 
ENDROOT
BRANCH  10   9
ATOM      4  C   UNL     1       9.802  14.430  -1.548  0.00  0.00    +0.077 A 
ATOM      5  C   UNL     1       9.392  15.676  -2.131  0.00  0.00    +0.048 A 
ATOM      6  C   UNL     1       8.478  16.465  -1.398  0.00  0.00    +0.116 A 
ATOM      7  N   UNL     1       8.015  16.032  -0.174  0.00  0.00    -0.223 NA
ATOM      8  C   UNL     1       8.429  14.825   0.358  0.00  0.00    +0.220 A 
ATOM      9  N   UNL     1       7.983  14.374   1.591  0.00  0.00    -0.283 N 
ATOM     36  H   UNL     1       8.306  13.474   1.946  0.00  0.00    +0.155 HD
ATOM     37  N   UNL     1       9.300  14.052  -0.323  0.00  0.00    -0.214 NA
BRANCH   4   3
ATOM      1  C   UNL     1      11.652  12.219  -4.191  0.00  0.00    +0.020 A 
ATOM      2  C   UNL     1      10.697  13.135  -3.612  0.00  0.00    +0.013 A 
ATOM      3  C   UNL     1      10.765  13.487  -2.199  0.00  0.00    +0.019 A 
ATOM     38  C   UNL     1      11.820  12.890  -1.394  0.00  0.00    +0.120 A 
ATOM     39  N   UNL     1      12.725  12.010  -1.979  0.00  0.00    -0.263 NA
ATOM     40  C   UNL     1      12.668  11.663  -3.337  0.00  0.00    +0.111 A 
ENDBRANCH   4   3
ENDBRANCH  10   9
BRANCH  12  13
ATOM     13  N   UNL     1       7.222  17.857   5.061  0.00  0.00    -0.281 N 
ATOM     14  C   UNL     1       7.375  17.697   6.429  0.00  0.00    +0.248 C 
ATOM     30  O   UNL     1       6.921  16.762   7.070  0.00  0.00    -0.270 OA
ATOM     31  H   UNL     1       7.478  18.770   4.685  0.00  0.00    +0.155 HD
BRANCH  14  15
ATOM     15  C   UNL     1       8.130  18.734   7.196  0.00  0.00    +0.037 A 
ATOM     16  C   UNL     1       9.595  18.763   7.197  0.00  0.00    +0.013 A 
ATOM     17  C   UNL     1      10.298  19.763   7.960  0.00  0.00    +0.005 A 
ATOM     18  C   UNL     1       9.536  20.745   8.728  0.00  0.00    -0.033 A 
ATOM     28  C   UNL     1       8.084  20.697   8.705  0.00  0.00    +0.005 A 
ATOM     29  C   UNL     1       7.391  19.717   7.960  0.00  0.00    +0.013 A 
BRANCH  18  19
ATOM     19  C   UNL     1      10.204  21.835   9.588  0.00  0.00    +0.119 C 
BRANCH  19  20
ATOM     20  N   UNL     1      11.321  22.607   8.966  0.00  0.00    -0.302 NA
ATOM     21  C   UNL     1      11.934  23.616   9.942  0.00  0.00    +0.066 C 
ATOM     22  C   UNL     1      13.116  24.399   9.282  0.00  0.00    -0.064 C 
ATOM     23  N   UNL     1      12.616  25.102   8.019  0.00  0.00    +0.379 N 
ATOM     24  C   UNL     1      13.711  25.886   7.428  0.00  0.00    -0.096 C 
ATOM     25  H   UNL     1      11.815  25.815   8.323  0.00  0.00    -0.082 HD
ATOM     26  C   UNL     1      12.003  24.106   7.045  0.00  0.00    -0.064 C 
ATOM     27  C   UNL     1      10.849  23.313   7.719  0.00  0.00    +0.066 C 
ENDBRANCH  19  20
ENDBRANCH  18  19
ENDBRANCH  14  15
ENDBRANCH  12  13
TORSDOF 6
ENDMDL
