MODEL 1
REMARK VINA RESULT:      -9.1      0.000      0.000
REMARK  Name = C:\Users\Docking\Desktop\test protocol\1iep_ligandH.pdb
REMARK  8 active torsions:
REMARK  status: ('A' for Active; 'I' for Inactive)
REMARK    1  A    between atoms: _5  and  _11
REMARK    2  A    between atoms: _19  and  _21
REMARK    3  A    between atoms: _22  and  _66
REMARK    4  A    between atoms: _27  and  _30
REMARK    5  A    between atoms: _32  and  _33
REMARK    6  A    between atoms: _38  and  _43
REMARK    7  A    between atoms: _43  and  _46
REMARK    8  A    between atoms: _53  and  _55
REMARK                            x       y       z     vdW  Elec       q    Type
REMARK                         _______ _______ _______ _____ _____    ______ ____
ROOT
ATOM     10  C   UNL     1      14.611  22.510  15.743  0.00  0.00    +0.038 A 
ATOM     11  C   UNL     1      13.404  22.885  16.387  0.00  0.00    +0.047 A 
ATOM     12  C   UNL     1      12.362  21.908  16.660  0.00  0.00    +0.035 A 
ATOM     32  C   UNL     1      12.584  20.556  16.267  0.00  0.00    +0.024 A 
ATOM     33  C   UNL     1      13.804  20.157  15.610  0.00  0.00    +0.007 A 
ATOM     34  C   UNL     1      14.834  21.118  15.336  0.00  0.00    -0.029 A 
ATOM     35  C   UNL     1      16.120  20.636  14.623  0.00  0.00    +0.045 C 
ENDROOT
BRANCH  10   9
ATOM      4  C   UNL     1      18.521  24.993  17.003  0.00  0.00    +0.077 A 
ATOM      5  C   UNL     1      18.631  24.298  18.254  0.00  0.00    +0.048 A 
ATOM      6  C   UNL     1      17.657  23.314  18.538  0.00  0.00    +0.116 A 
ATOM      7  N   UNL     1      16.653  23.052  17.631  0.00  0.00    -0.223 NA
ATOM      8  C   UNL     1      16.575  23.742  16.435  0.00  0.00    +0.220 A 
ATOM      9  N   UNL     1      15.578  23.490  15.505  0.00  0.00    -0.283 N 
ATOM     36  H   UNL     1      15.550  24.025  14.638  0.00  0.00    +0.155 HD
ATOM     37  N   UNL     1      17.491  24.687  16.141  0.00  0.00    -0.214 NA
BRANCH   4   3
ATOM      1  C   UNL     1      20.365  27.693  14.857  0.00  0.00    +0.020 A 
ATOM      2  C   UNL     1      19.419  26.669  15.237  0.00  0.00    +0.013 A 
ATOM      3  C   UNL     1      19.475  26.057  16.559  0.00  0.00    +0.019 A 
ATOM     38  C   UNL     1      20.507  26.509  17.480  0.00  0.00    +0.120 A 
ATOM     39  N   UNL     1      21.404  27.496  17.086  0.00  0.00    -0.263 NA
ATOM     40  C   UNL     1      21.362  28.091  15.816  0.00  0.00    +0.111 A 
ENDBRANCH   4   3
ENDBRANCH  10   9
BRANCH  12  13
ATOM     13  N   UNL     1      11.113  22.231  17.304  0.00  0.00    -0.281 N 
ATOM     14  C   UNL     1       9.829  21.996  16.838  0.00  0.00    +0.248 C 
ATOM     30  O   UNL     1       9.559  21.662  15.694  0.00  0.00    -0.270 OA
ATOM     31  H   UNL     1      11.183  22.689  18.212  0.00  0.00    +0.155 HD
BRANCH  14  15
ATOM     15  C   UNL     1       8.678  22.171  17.775  0.00  0.00    +0.037 A 
ATOM     16  C   UNL     1       8.165  23.503  18.108  0.00  0.00    +0.013 A 
ATOM     17  C   UNL     1       7.064  23.645  19.028  0.00  0.00    +0.005 A 
ATOM     18  C   UNL     1       6.468  22.450  19.621  0.00  0.00    -0.033 A 
ATOM     28  C   UNL     1       6.994  21.141  19.270  0.00  0.00    +0.005 A 
ATOM     29  C   UNL     1       8.073  20.998  18.369  0.00  0.00    +0.013 A 
BRANCH  18  19
ATOM     19  C   UNL     1       5.305  22.508  20.629  0.00  0.00    +0.119 C 
BRANCH  19  20
ATOM     20  N   UNL     1       4.529  21.251  20.850  0.00  0.00    -0.302 NA
ATOM     21  C   UNL     1       3.462  21.038  19.772  0.00  0.00    +0.066 C 
ATOM     22  C   UNL     1       2.675  19.707  20.006  0.00  0.00    -0.064 C 
ATOM     23  N   UNL     1       2.041  19.731  21.398  0.00  0.00    +0.379 N 
ATOM     24  C   UNL     1       1.252  18.507  21.598  0.00  0.00    -0.096 C 
ATOM     25  H   UNL     1       1.339  20.596  21.434  0.00  0.00    -0.082 HD
ATOM     26  C   UNL     1       3.094  19.946  22.476  0.00  0.00    -0.064 C 
ATOM     27  C   UNL     1       3.890  21.256  22.217  0.00  0.00    +0.066 C 
ENDBRANCH  19  20
ENDBRANCH  18  19
ENDBRANCH  14  15
ENDBRANCH  12  13
TORSDOF 6
ENDMDL
MODEL 2
REMARK VINA RESULT:      -8.8      1.628      2.524
REMARK  Name = C:\Users\Docking\Desktop\test protocol\1iep_ligandH.pdb
REMARK  8 active torsions:
REMARK  status: ('A' for Active; 'I' for Inactive)
REMARK    1  A    between atoms: _5  and  _11
REMARK    2  A    between atoms: _19  and  _21
REMARK    3  A    between atoms: _22  and  _66
REMARK    4  A    between atoms: _27  and  _30
REMARK    5  A    between atoms: _32  and  _33
REMARK    6  A    between atoms: _38  and  _43
REMARK    7  A    between atoms: _43  and  _46
REMARK    8  A    between atoms: _53  and  _55
REMARK                            x       y       z     vdW  Elec       q    Type
REMARK                         _______ _______ _______ _____ _____    ______ ____
ROOT
ATOM     10  C   UNL     1      14.869  22.406  15.441  0.00  0.00    +0.038 A 
ATOM     11  C   UNL     1      13.668  22.761  16.107  0.00  0.00    +0.047 A 
ATOM     12  C   UNL     1      12.620  21.780  16.341  0.00  0.00    +0.035 A 
ATOM     32  C   UNL     1      12.829  20.445  15.886  0.00  0.00    +0.024 A 
ATOM     33  C   UNL     1      14.044  20.068  15.206  0.00  0.00    +0.007 A 
ATOM     34  C   UNL     1      15.080  21.032  14.970  0.00  0.00    -0.029 A 
ATOM     35  C   UNL     1      16.358  20.572  14.230  0.00  0.00    +0.045 C 
ENDROOT
BRANCH  10   9
ATOM      4  C   UNL     1      18.582  25.051  16.944  0.00  0.00    +0.077 A 
ATOM      5  C   UNL     1      18.564  24.444  18.244  0.00  0.00    +0.048 A 
ATOM      6  C   UNL     1      17.579  23.461  18.487  0.00  0.00    +0.116 A 
ATOM      7  N   UNL     1      16.684  23.117  17.497  0.00  0.00    -0.223 NA
ATOM      8  C   UNL     1      16.728  23.723  16.255  0.00  0.00    +0.220 A 
ATOM      9  N   UNL     1      15.842  23.388  15.242  0.00  0.00    -0.283 N 
ATOM     36  H   UNL     1      15.903  23.863  14.342  0.00  0.00    +0.155 HD
ATOM     37  N   UNL     1      17.658  24.666  15.998  0.00  0.00    -0.214 NA
BRANCH   4   3
ATOM      1  C   UNL     1      20.538  27.723  14.862  0.00  0.00    +0.020 A 
ATOM      2  C   UNL     1      19.567  26.710  15.208  0.00  0.00    +0.013 A 
ATOM      3  C   UNL     1      19.564  26.103  16.533  0.00  0.00    +0.019 A 
ATOM     38  C   UNL     1      20.563  26.548  17.493  0.00  0.00    +0.120 A 
ATOM     39  N   UNL     1      21.486  27.525  17.131  0.00  0.00    -0.263 NA
ATOM     40  C   UNL     1      21.500  28.114  15.858  0.00  0.00    +0.111 A 
ENDBRANCH   4   3
ENDBRANCH  10   9
BRANCH  12  13
ATOM     13  N   UNL     1      11.377  22.083  17.005  0.00  0.00    -0.281 N 
ATOM     14  C   UNL     1      10.091  21.797  16.577  0.00  0.00    +0.248 C 
ATOM     30  O   UNL     1       9.805  21.422  15.449  0.00  0.00    -0.270 OA
ATOM     31  H   UNL     1      11.454  22.569  17.899  0.00  0.00    +0.155 HD
BRANCH  14  15
ATOM     15  C   UNL     1       8.956  21.963  17.536  0.00  0.00    +0.037 A 
ATOM     16  C   UNL     1       8.319  20.805  18.168  0.00  0.00    +0.013 A 
ATOM     17  C   UNL     1       7.216  20.993  19.076  0.00  0.00    +0.005 A 
ATOM     18  C   UNL     1       6.743  22.346  19.359  0.00  0.00    -0.033 A 
ATOM     28  C   UNL     1       7.397  23.477  18.722  0.00  0.00    +0.005 A 
ATOM     29  C   UNL     1       8.478  23.297  17.830  0.00  0.00    +0.013 A 
BRANCH  18  19
ATOM     19  C   UNL     1       5.558  22.639  20.298  0.00  0.00    +0.119 C 
BRANCH  19  20
ATOM     20  N   UNL     1       5.877  22.949  21.724  0.00  0.00    -0.302 NA
ATOM     21  C   UNL     1       4.919  22.249  22.692  0.00  0.00    +0.066 C 
ATOM     22  C   UNL     1       5.280  22.566  24.179  0.00  0.00    -0.064 C 
ATOM     23  N   UNL     1       5.257  24.080  24.395  0.00  0.00    +0.379 N 
ATOM     24  C   UNL     1       5.540  24.379  25.807  0.00  0.00    -0.096 C 
ATOM     25  H   UNL     1       4.225  24.437  24.174  0.00  0.00    -0.082 HD
ATOM     26  C   UNL     1       6.205  24.785  23.435  0.00  0.00    -0.064 C 
ATOM     27  C   UNL     1       5.855  24.439  21.960  0.00  0.00    +0.066 C 
ENDBRANCH  19  20
ENDBRANCH  18  19
ENDBRANCH  14  15
ENDBRANCH  12  13
TORSDOF 6
ENDMDL
MODEL 3
REMARK VINA RESULT:      -8.7      5.393     12.242
REMARK  Name = C:\Users\Docking\Desktop\test protocol\1iep_ligandH.pdb
REMARK  8 active torsions:
REMARK  status: ('A' for Active; 'I' for Inactive)
REMARK    1  A    between atoms: _5  and  _11
REMARK    2  A    between atoms: _19  and  _21
REMARK    3  A    between atoms: _22  and  _66
REMARK    4  A    between atoms: _27  and  _30
REMARK    5  A    between atoms: _32  and  _33
REMARK    6  A    between atoms: _38  and  _43
REMARK    7  A    between atoms: _43  and  _46
REMARK    8  A    between atoms: _53  and  _55
REMARK                            x       y       z     vdW  Elec       q    Type
REMARK                         _______ _______ _______ _____ _____    ______ ____
ROOT
ATOM     10  C   UNL     1       9.164  25.668  19.451  0.00  0.00    +0.038 A 
ATOM     11  C   UNL     1      10.422  25.387  18.860  0.00  0.00    +0.047 A 
ATOM     12  C   UNL     1      10.982  24.045  18.884  0.00  0.00    +0.035 A 
ATOM     32  C   UNL     1      10.233  23.011  19.517  0.00  0.00    +0.024 A 
ATOM     33  C   UNL     1       8.953  23.279  20.125  0.00  0.00    +0.007 A 
ATOM     34  C   UNL     1       8.396  24.602  20.106  0.00  0.00    -0.029 A 
ATOM     35  C   UNL     1       7.022  24.832  20.778  0.00  0.00    +0.045 C 
ENDROOT
BRANCH  10   9
ATOM      4  C   UNL     1       8.251  29.930  21.460  0.00  0.00    +0.077 A 
ATOM      5  C   UNL     1       8.771  29.510  22.729  0.00  0.00    +0.048 A 
ATOM      6  C   UNL     1       9.257  28.187  22.825  0.00  0.00    +0.116 A 
ATOM      7  N   UNL     1       9.221  27.355  21.727  0.00  0.00    -0.223 NA
ATOM      8  C   UNL     1       8.712  27.791  20.518  0.00  0.00    +0.220 A 
ATOM      9  N   UNL     1       8.673  26.974  19.399  0.00  0.00    -0.283 N 
ATOM     36  H   UNL     1       8.282  27.332  18.527  0.00  0.00    +0.155 HD
ATOM     37  N   UNL     1       8.240  29.050  20.401  0.00  0.00    -0.214 NA
BRANCH   4   3
ATOM      1  C   UNL     1       6.146  33.218  21.705  0.00  0.00    +0.020 A 
ATOM      2  C   UNL     1       6.637  31.891  21.998  0.00  0.00    +0.013 A 
ATOM      3  C   UNL     1       7.704  31.300  21.200  0.00  0.00    +0.019 A 
ATOM     38  C   UNL     1       8.257  32.083  20.105  0.00  0.00    +0.120 A 
ATOM     39  N   UNL     1       7.762  33.357  19.846  0.00  0.00    -0.263 NA
ATOM     40  C   UNL     1       6.734  33.936  20.606  0.00  0.00    +0.111 A 
ENDBRANCH   4   3
ENDBRANCH  10   9
BRANCH  12  13
ATOM     13  N   UNL     1      12.258  23.702  18.307  0.00  0.00    -0.281 N 
ATOM     14  C   UNL     1      12.511  22.849  17.245  0.00  0.00    +0.248 C 
ATOM     30  O   UNL     1      11.691  22.082  16.764  0.00  0.00    -0.270 OA
ATOM     31  H   UNL     1      13.074  24.141  18.734  0.00  0.00    +0.155 HD
BRANCH  14  15
ATOM     15  C   UNL     1      13.878  22.837  16.639  0.00  0.00    +0.037 A 
ATOM     16  C   UNL     1      15.067  23.141  17.439  0.00  0.00    +0.013 A 
ATOM     17  C   UNL     1      16.371  23.138  16.826  0.00  0.00    +0.005 A 
ATOM     18  C   UNL     1      16.493  22.828  15.403  0.00  0.00    -0.033 A 
ATOM     28  C   UNL     1      15.297  22.525  14.634  0.00  0.00    +0.005 A 
ATOM     29  C   UNL     1      14.017  22.527  15.232  0.00  0.00    +0.013 A 
BRANCH  18  19
ATOM     19  C   UNL     1      17.842  22.823  14.661  0.00  0.00    +0.119 C 
BRANCH  19  20
ATOM     20  N   UNL     1      18.015  21.826  13.563  0.00  0.00    -0.302 NA
ATOM     21  C   UNL     1      18.303  20.422  14.102  0.00  0.00    +0.066 C 
ATOM     22  C   UNL     1      18.458  19.387  12.941  0.00  0.00    -0.064 C 
ATOM     23  N   UNL     1      19.574  19.844  11.999  0.00  0.00    +0.379 N 
ATOM     24  C   UNL     1      19.761  18.844  10.939  0.00  0.00    -0.096 C 
ATOM     25  H   UNL     1      20.517  19.891  12.591  0.00  0.00    -0.082 HD
ATOM     26  C   UNL     1      19.297  21.241  11.461  0.00  0.00    -0.064 C 
ATOM     27  C   UNL     1      19.115  22.256  12.624  0.00  0.00    +0.066 C 
ENDBRANCH  19  20
ENDBRANCH  18  19
ENDBRANCH  14  15
ENDBRANCH  12  13
TORSDOF 6
ENDMDL
MODEL 4
REMARK VINA RESULT:      -8.7      3.277     13.502
REMARK  Name = C:\Users\Docking\Desktop\test protocol\1iep_ligandH.pdb
REMARK  8 active torsions:
REMARK  status: ('A' for Active; 'I' for Inactive)
REMARK    1  A    between atoms: _5  and  _11
REMARK    2  A    between atoms: _19  and  _21
REMARK    3  A    between atoms: _22  and  _66
REMARK    4  A    between atoms: _27  and  _30
REMARK    5  A    between atoms: _32  and  _33
REMARK    6  A    between atoms: _38  and  _43
REMARK    7  A    between atoms: _43  and  _46
REMARK    8  A    between atoms: _53  and  _55
REMARK                            x       y       z     vdW  Elec       q    Type
REMARK                         _______ _______ _______ _____ _____    ______ ____
ROOT
ATOM     10  C   UNL     1       8.303  24.313  19.219  0.00  0.00    +0.038 A 
ATOM     11  C   UNL     1       9.375  23.889  18.393  0.00  0.00    +0.047 A 
ATOM     12  C   UNL     1      10.687  24.510  18.486  0.00  0.00    +0.035 A 
ATOM     32  C   UNL     1      10.873  25.560  19.432  0.00  0.00    +0.024 A 
ATOM     33  C   UNL     1       9.793  26.005  20.278  0.00  0.00    +0.007 A 
ATOM     34  C   UNL     1       8.496  25.397  20.190  0.00  0.00    -0.029 A 
ATOM     35  C   UNL     1       7.374  25.919  21.117  0.00  0.00    +0.045 C 
ENDROOT
BRANCH  10   9
ATOM      4  C   UNL     1       5.251  20.738  20.189  0.00  0.00    +0.077 A 
ATOM      5  C   UNL     1       6.216  20.057  21.004  0.00  0.00    +0.048 A 
ATOM      6  C   UNL     1       7.488  20.657  21.142  0.00  0.00    +0.116 A 
ATOM      7  N   UNL     1       7.763  21.849  20.508  0.00  0.00    -0.223 NA
ATOM      8  C   UNL     1       6.811  22.479  19.728  0.00  0.00    +0.220 A 
ATOM      9  N   UNL     1       7.064  23.682  19.088  0.00  0.00    -0.283 N 
ATOM     36  H   UNL     1       6.337  24.111  18.515  0.00  0.00    +0.155 HD
ATOM     37  N   UNL     1       5.589  21.925  19.579  0.00  0.00    -0.214 NA
BRANCH   4   3
ATOM      1  C   UNL     1       1.816  19.916  18.509  0.00  0.00    +0.020 A 
ATOM      2  C   UNL     1       3.156  20.425  18.689  0.00  0.00    +0.013 A 
ATOM      3  C   UNL     1       3.863  20.232  19.949  0.00  0.00    +0.019 A 
ATOM     38  C   UNL     1       3.180  19.514  21.015  0.00  0.00    +0.120 A 
ATOM     39  N   UNL     1       1.889  19.037  20.813  0.00  0.00    -0.263 NA
ATOM     40  C   UNL     1       1.198  19.218  19.606  0.00  0.00    +0.111 A 
ENDBRANCH   4   3
ENDBRANCH  10   9
BRANCH  12  13
ATOM     13  N   UNL     1      11.812  24.127  17.669  0.00  0.00    -0.281 N 
ATOM     14  C   UNL     1      12.625  23.014  17.807  0.00  0.00    +0.248 C 
ATOM     30  O   UNL     1      12.640  22.286  18.789  0.00  0.00    -0.270 OA
ATOM     31  H   UNL     1      12.036  24.752  16.894  0.00  0.00    +0.155 HD
BRANCH  14  15
ATOM     15  C   UNL     1      13.568  22.666  16.700  0.00  0.00    +0.037 A 
ATOM     16  C   UNL     1      14.992  22.997  16.784  0.00  0.00    +0.013 A 
ATOM     17  C   UNL     1      15.877  22.665  15.695  0.00  0.00    +0.005 A 
ATOM     18  C   UNL     1      15.338  21.998  14.513  0.00  0.00    -0.033 A 
ATOM     28  C   UNL     1      13.922  21.677  14.458  0.00  0.00    +0.005 A 
ATOM     29  C   UNL     1      13.052  22.001  15.523  0.00  0.00    +0.013 A 
BRANCH  18  19
ATOM     19  C   UNL     1      16.205  21.626  13.295  0.00  0.00    +0.119 C 
BRANCH  19  20
ATOM     20  N   UNL     1      17.681  21.813  13.423  0.00  0.00    -0.302 NA
ATOM     21  C   UNL     1      18.298  22.399  12.150  0.00  0.00    +0.066 C 
ATOM     22  C   UNL     1      19.839  22.609  12.310  0.00  0.00    -0.064 C 
ATOM     23  N   UNL     1      20.499  21.275  12.668  0.00  0.00    +0.379 N 
ATOM     24  C   UNL     1      21.954  21.458  12.761  0.00  0.00    -0.096 C 
ATOM     25  H   UNL     1      20.299  20.565  11.832  0.00  0.00    -0.082 HD
ATOM     26  C   UNL     1      19.888  20.685  13.931  0.00  0.00    -0.064 C 
ATOM     27  C   UNL     1      18.352  20.508  13.772  0.00  0.00    +0.066 C 
ENDBRANCH  19  20
ENDBRANCH  18  19
ENDBRANCH  14  15
ENDBRANCH  12  13
TORSDOF 6
ENDMDL
MODEL 5
REMARK VINA RESULT:      -8.5      2.887      5.155
REMARK  Name = C:\Users\Docking\Desktop\test protocol\1iep_ligandH.pdb
REMARK  8 active torsions:
REMARK  status: ('A' for Active; 'I' for Inactive)
REMARK    1  A    between atoms: _5  and  _11
REMARK    2  A    between atoms: _19  and  _21
REMARK    3  A    between atoms: _22  and  _66
REMARK    4  A    between atoms: _27  and  _30
REMARK    5  A    between atoms: _32  and  _33
REMARK    6  A    between atoms: _38  and  _43
REMARK    7  A    between atoms: _43  and  _46
REMARK    8  A    between atoms: _53  and  _55
REMARK                            x       y       z     vdW  Elec       q    Type
REMARK                         _______ _______ _______ _____ _____    ______ ____
ROOT
ATOM     10  C   UNL     1      19.196  22.925  14.334  0.00  0.00    +0.038 A 
ATOM     11  C   UNL     1      17.959  22.665  14.978  0.00  0.00    +0.047 A 
ATOM     12  C   UNL     1      16.826  22.126  14.242  0.00  0.00    +0.035 A 
ATOM     32  C   UNL     1      16.988  21.861  12.851  0.00  0.00    +0.024 A 
ATOM     33  C   UNL     1      18.238  22.120  12.180  0.00  0.00    +0.007 A 
ATOM     34  C   UNL     1      19.359  22.654  12.900  0.00  0.00    -0.029 A 
ATOM     35  C   UNL     1      20.672  22.918  12.128  0.00  0.00    +0.045 C 
ENDROOT
BRANCH  10   9
ATOM      4  C   UNL     1      21.632  26.591  16.248  0.00  0.00    +0.077 A 
ATOM      5  C   UNL     1      20.742  27.559  15.673  0.00  0.00    +0.048 A 
ATOM      6  C   UNL     1      19.675  27.072  14.885  0.00  0.00    +0.116 A 
ATOM      7  N   UNL     1      19.518  25.717  14.694  0.00  0.00    -0.223 NA
ATOM      8  C   UNL     1      20.394  24.810  15.261  0.00  0.00    +0.220 A 
ATOM      9  N   UNL     1      20.251  23.442  15.089  0.00  0.00    -0.283 N 
ATOM     36  H   UNL     1      20.923  22.807  15.518  0.00  0.00    +0.155 HD
ATOM     37  N   UNL     1      21.423  25.250  16.017  0.00  0.00    -0.214 NA
BRANCH   4   3
ATOM      1  C   UNL     1      25.132  27.860  17.446  0.00  0.00    +0.020 A 
ATOM      2  C   UNL     1      24.029  27.532  16.573  0.00  0.00    +0.013 A 
ATOM      3  C   UNL     1      22.804  26.949  17.107  0.00  0.00    +0.019 A 
ATOM     38  C   UNL     1      22.728  26.709  18.540  0.00  0.00    +0.120 A 
ATOM     39  N   UNL     1      23.807  27.033  19.356  0.00  0.00    -0.263 NA
ATOM     40  C   UNL     1      24.991  27.594  18.853  0.00  0.00    +0.111 A 
ENDBRANCH   4   3
ENDBRANCH  10   9
BRANCH  12  13
ATOM     13  N   UNL     1      15.544  21.850  14.841  0.00  0.00    -0.281 N 
ATOM     14  C   UNL     1      14.865  22.603  15.785  0.00  0.00    +0.248 C 
ATOM     30  O   UNL     1      15.357  23.524  16.419  0.00  0.00    -0.270 OA
ATOM     31  H   UNL     1      15.080  20.995  14.531  0.00  0.00    +0.155 HD
BRANCH  14  15
ATOM     15  C   UNL     1      13.436  22.276  16.077  0.00  0.00    +0.037 A 
ATOM     16  C   UNL     1      12.609  21.550  15.109  0.00  0.00    +0.013 A 
ATOM     17  C   UNL     1      11.229  21.263  15.409  0.00  0.00    +0.005 A 
ATOM     18  C   UNL     1      10.667  21.701  16.685  0.00  0.00    -0.033 A 
ATOM     28  C   UNL     1      11.511  22.414  17.629  0.00  0.00    +0.005 A 
ATOM     29  C   UNL     1      12.864  22.698  17.338  0.00  0.00    +0.013 A 
BRANCH  18  19
ATOM     19  C   UNL     1       9.198  21.456  17.080  0.00  0.00    +0.119 C 
BRANCH  19  20
ATOM     20  N   UNL     1       8.717  22.084  18.346  0.00  0.00    -0.302 NA
ATOM     21  C   UNL     1       7.779  21.159  19.126  0.00  0.00    +0.066 C 
ATOM     22  C   UNL     1       7.303  21.823  20.459  0.00  0.00    -0.064 C 
ATOM     23  N   UNL     1       6.615  23.153  20.146  0.00  0.00    +0.379 N 
ATOM     24  C   UNL     1       6.115  23.752  21.392  0.00  0.00    -0.096 C 
ATOM     25  H   UNL     1       5.734  22.934  19.499  0.00  0.00    -0.082 HD
ATOM     26  C   UNL     1       7.541  24.078  19.368  0.00  0.00    -0.064 C 
ATOM     27  C   UNL     1       8.031  23.397  18.060  0.00  0.00    +0.066 C 
ENDBRANCH  19  20
ENDBRANCH  18  19
ENDBRANCH  14  15
ENDBRANCH  12  13
TORSDOF 6
ENDMDL
