MODEL 1
REMARK VINA RESULT:      -8.2      0.000      0.000
REMARK  Name = C:\Users\Docking\Desktop\test protocol\1iep_ligandH.pdb
REMARK  8 active torsions:
REMARK  status: ('A' for Active; 'I' for Inactive)
REMARK    1  A    between atoms: _5  and  _11
REMARK    2  A    between atoms: _19  and  _21
REMARK    3  A    between atoms: _22  and  _66
REMARK    4  A    between atoms: _27  and  _30
REMARK    5  A    between atoms: _32  and  _33
REMARK    6  A    between atoms: _38  and  _43
REMARK    7  A    between atoms: _43  and  _46
REMARK    8  A    between atoms: _53  and  _55
REMARK                            x       y       z     vdW  Elec       q    Type
REMARK                         _______ _______ _______ _____ _____    ______ ____
ROOT
ATOM     10  C   UNL     1      68.076  52.574  15.879  0.00  0.00    +0.038 A 
ATOM     11  C   UNL     1      67.688  52.540  17.242  0.00  0.00    +0.047 A 
ATOM     12  C   UNL     1      67.701  53.744  18.059  0.00  0.00    +0.035 A 
ATOM     32  C   UNL     1      68.113  54.967  17.453  0.00  0.00    +0.024 A 
ATOM     33  C   UNL     1      68.512  55.019  16.068  0.00  0.00    +0.007 A 
ATOM     34  C   UNL     1      68.503  53.834  15.259  0.00  0.00    -0.029 A 
ATOM     35  C   UNL     1      68.948  53.948  13.782  0.00  0.00    +0.045 C 
ENDROOT
BRANCH  10   9
ATOM      4  C   UNL     1      66.073  49.660  12.634  0.00  0.00    +0.077 A 
ATOM      5  C   UNL     1      64.983  50.564  12.407  0.00  0.00    +0.048 A 
ATOM      6  C   UNL     1      64.971  51.765  13.151  0.00  0.00    +0.116 A 
ATOM      7  N   UNL     1      65.979  52.032  14.051  0.00  0.00    -0.223 NA
ATOM      8  C   UNL     1      67.015  51.137  14.247  0.00  0.00    +0.220 A 
ATOM      9  N   UNL     1      68.044  51.388  15.142  0.00  0.00    -0.283 N 
ATOM     36  H   UNL     1      68.787  50.700  15.263  0.00  0.00    +0.155 HD
ATOM     37  N   UNL     1      67.049  49.982  13.550  0.00  0.00    -0.214 NA
BRANCH   4   3
ATOM      1  C   UNL     1      66.584  46.965   9.845  0.00  0.00    +0.020 A 
ATOM      2  C   UNL     1      66.441  48.253  10.484  0.00  0.00    +0.013 A 
ATOM      3  C   UNL     1      66.227  48.352  11.922  0.00  0.00    +0.019 A 
ATOM     38  C   UNL     1      66.164  47.118  12.692  0.00  0.00    +0.120 A 
ATOM     39  N   UNL     1      66.304  45.892  12.049  0.00  0.00    -0.263 NA
ATOM     40  C   UNL     1      66.508  45.784  10.666  0.00  0.00    +0.111 A 
ENDBRANCH   4   3
ENDBRANCH  10   9
BRANCH  12  13
ATOM     13  N   UNL     1      67.325  53.770  19.450  0.00  0.00    -0.281 N 
ATOM     14  C   UNL     1      67.827  52.994  20.482  0.00  0.00    +0.248 C 
ATOM     30  O   UNL     1      68.530  52.007  20.326  0.00  0.00    -0.270 OA
ATOM     31  H   UNL     1      66.600  54.440  19.706  0.00  0.00    +0.155 HD
BRANCH  14  15
ATOM     15  C   UNL     1      67.489  53.360  21.891  0.00  0.00    +0.037 A 
ATOM     16  C   UNL     1      68.272  52.849  23.019  0.00  0.00    +0.013 A 
ATOM     17  C   UNL     1      67.914  53.204  24.369  0.00  0.00    +0.005 A 
ATOM     18  C   UNL     1      66.766  54.078  24.599  0.00  0.00    -0.033 A 
ATOM     28  C   UNL     1      66.009  54.575  23.462  0.00  0.00    +0.005 A 
ATOM     29  C   UNL     1      66.357  54.228  22.137  0.00  0.00    +0.013 A 
BRANCH  18  19
ATOM     19  C   UNL     1      66.298  54.491  26.007  0.00  0.00    +0.119 C 
BRANCH  19  20
ATOM     20  N   UNL     1      64.926  55.067  26.130  0.00  0.00    -0.302 NA
ATOM     21  C   UNL     1      64.953  56.591  26.276  0.00  0.00    +0.066 C 
ATOM     22  C   UNL     1      63.507  57.178  26.381  0.00  0.00    -0.064 C 
ATOM     23  N   UNL     1      62.783  56.534  27.564  0.00  0.00    +0.379 N 
ATOM     24  C   UNL     1      61.444  57.126  27.701  0.00  0.00    -0.096 C 
ATOM     25  H   UNL     1      63.358  56.780  28.487  0.00  0.00    -0.082 HD
ATOM     26  C   UNL     1      62.754  55.018  27.429  0.00  0.00    -0.064 C 
ATOM     27  C   UNL     1      64.194  54.447  27.295  0.00  0.00    +0.066 C 
ENDBRANCH  19  20
ENDBRANCH  18  19
ENDBRANCH  14  15
ENDBRANCH  12  13
TORSDOF 6
ENDMDL
MODEL 2
REMARK VINA RESULT:      -8.1      5.801     10.024
REMARK  Name = C:\Users\Docking\Desktop\test protocol\1iep_ligandH.pdb
REMARK  8 active torsions:
REMARK  status: ('A' for Active; 'I' for Inactive)
REMARK    1  A    between atoms: _5  and  _11
REMARK    2  A    between atoms: _19  and  _21
REMARK    3  A    between atoms: _22  and  _66
REMARK    4  A    between atoms: _27  and  _30
REMARK    5  A    between atoms: _32  and  _33
REMARK    6  A    between atoms: _38  and  _43
REMARK    7  A    between atoms: _43  and  _46
REMARK    8  A    between atoms: _53  and  _55
REMARK                            x       y       z     vdW  Elec       q    Type
REMARK                         _______ _______ _______ _____ _____    ______ ____
ROOT
ATOM     10  C   UNL     1      68.119  53.315  18.006  0.00  0.00    +0.038 A 
ATOM     11  C   UNL     1      68.565  54.547  17.463  0.00  0.00    +0.047 A 
ATOM     12  C   UNL     1      68.785  55.708  18.312  0.00  0.00    +0.035 A 
ATOM     32  C   UNL     1      68.545  55.577  19.711  0.00  0.00    +0.024 A 
ATOM     33  C   UNL     1      68.091  54.332  20.279  0.00  0.00    +0.007 A 
ATOM     34  C   UNL     1      67.869  53.185  19.446  0.00  0.00    -0.029 A 
ATOM     35  C   UNL     1      67.376  51.877  20.109  0.00  0.00    +0.045 C 
ENDROOT
BRANCH  10   9
ATOM      4  C   UNL     1      66.534  51.411  13.895  0.00  0.00    +0.077 A 
ATOM      5  C   UNL     1      66.030  52.673  13.436  0.00  0.00    +0.048 A 
ATOM      6  C   UNL     1      66.192  53.786  14.291  0.00  0.00    +0.116 A 
ATOM      7  N   UNL     1      66.814  53.637  15.512  0.00  0.00    -0.223 NA
ATOM      8  C   UNL     1      67.288  52.405  15.924  0.00  0.00    +0.220 A 
ATOM      9  N   UNL     1      67.923  52.233  17.144  0.00  0.00    -0.283 N 
ATOM     36  H   UNL     1      68.252  51.307  17.416  0.00  0.00    +0.155 HD
ATOM     37  N   UNL     1      67.144  51.326  15.127  0.00  0.00    -0.214 NA
BRANCH   4   3
ATOM      1  C   UNL     1      65.328  48.640  11.411  0.00  0.00    +0.020 A 
ATOM      2  C   UNL     1      65.371  49.881  12.150  0.00  0.00    +0.013 A 
ATOM      3  C   UNL     1      66.442  50.143  13.104  0.00  0.00    +0.019 A 
ATOM     38  C   UNL     1      67.462  49.122  13.287  0.00  0.00    +0.120 A 
ATOM     39  N   UNL     1      67.394  47.936  12.562  0.00  0.00    -0.263 NA
ATOM     40  C   UNL     1      66.368  47.672  11.643  0.00  0.00    +0.111 A 
ENDBRANCH   4   3
ENDBRANCH  10   9
BRANCH  12  13
ATOM     13  N   UNL     1      69.230  56.987  17.817  0.00  0.00    -0.281 N 
ATOM     14  C   UNL     1      70.410  57.280  17.154  0.00  0.00    +0.248 C 
ATOM     30  O   UNL     1      71.365  56.522  17.075  0.00  0.00    -0.270 OA
ATOM     31  H   UNL     1      68.597  57.771  17.974  0.00  0.00    +0.155 HD
BRANCH  14  15
ATOM     15  C   UNL     1      70.556  58.614  16.496  0.00  0.00    +0.037 A 
ATOM     16  C   UNL     1      71.612  58.864  15.512  0.00  0.00    +0.013 A 
ATOM     17  C   UNL     1      71.742  60.166  14.905  0.00  0.00    +0.005 A 
ATOM     18  C   UNL     1      70.811  61.227  15.280  0.00  0.00    -0.033 A 
ATOM     28  C   UNL     1      69.769  60.950  16.256  0.00  0.00    +0.005 A 
ATOM     29  C   UNL     1      69.640  59.676  16.854  0.00  0.00    +0.013 A 
BRANCH  18  19
ATOM     19  C   UNL     1      70.888  62.651  14.700  0.00  0.00    +0.119 C 
BRANCH  19  20
ATOM     20  N   UNL     1      71.507  62.806  13.349  0.00  0.00    -0.302 NA
ATOM     21  C   UNL     1      72.563  63.914  13.326  0.00  0.00    +0.066 C 
ATOM     22  C   UNL     1      73.216  64.048  11.911  0.00  0.00    -0.064 C 
ATOM     23  N   UNL     1      72.126  64.317  10.873  0.00  0.00    +0.379 N 
ATOM     24  C   UNL     1      72.743  64.501   9.551  0.00  0.00    -0.096 C 
ATOM     25  H   UNL     1      71.626  65.274  11.149  0.00  0.00    -0.082 HD
ATOM     26  C   UNL     1      71.070  63.222  10.891  0.00  0.00    -0.064 C 
ATOM     27  C   UNL     1      70.448  63.077  12.309  0.00  0.00    +0.066 C 
ENDBRANCH  19  20
ENDBRANCH  18  19
ENDBRANCH  14  15
ENDBRANCH  12  13
TORSDOF 6
ENDMDL
MODEL 3
REMARK VINA RESULT:      -8.0      1.884      3.351
REMARK  Name = C:\Users\Docking\Desktop\test protocol\1iep_ligandH.pdb
REMARK  8 active torsions:
REMARK  status: ('A' for Active; 'I' for Inactive)
REMARK    1  A    between atoms: _5  and  _11
REMARK    2  A    between atoms: _19  and  _21
REMARK    3  A    between atoms: _22  and  _66
REMARK    4  A    between atoms: _27  and  _30
REMARK    5  A    between atoms: _32  and  _33
REMARK    6  A    between atoms: _38  and  _43
REMARK    7  A    between atoms: _43  and  _46
REMARK    8  A    between atoms: _53  and  _55
REMARK                            x       y       z     vdW  Elec       q    Type
REMARK                         _______ _______ _______ _____ _____    ______ ____
ROOT
ATOM     10  C   UNL     1      68.743  53.816  18.631  0.00  0.00    +0.038 A 
ATOM     11  C   UNL     1      67.968  53.923  19.814  0.00  0.00    +0.047 A 
ATOM     12  C   UNL     1      68.263  54.933  20.818  0.00  0.00    +0.035 A 
ATOM     32  C   UNL     1      69.353  55.821  20.583  0.00  0.00    +0.024 A 
ATOM     33  C   UNL     1      70.152  55.726  19.387  0.00  0.00    +0.007 A 
ATOM     34  C   UNL     1      69.868  54.730  18.394  0.00  0.00    -0.029 A 
ATOM     35  C   UNL     1      70.761  54.670  17.133  0.00  0.00    +0.045 C 
ENDROOT
BRANCH  10   9
ATOM      4  C   UNL     1      66.635  52.353  14.574  0.00  0.00    +0.077 A 
ATOM      5  C   UNL     1      66.120  53.664  14.300  0.00  0.00    +0.048 A 
ATOM      6  C   UNL     1      66.414  54.685  15.231  0.00  0.00    +0.116 A 
ATOM      7  N   UNL     1      67.169  54.405  16.350  0.00  0.00    -0.223 NA
ATOM      8  C   UNL     1      67.649  53.130  16.585  0.00  0.00    +0.220 A 
ATOM      9  N   UNL     1      68.416  52.828  17.700  0.00  0.00    -0.283 N 
ATOM     36  H   UNL     1      68.745  51.873  17.842  0.00  0.00    +0.155 HD
ATOM     37  N   UNL     1      67.380  52.137  15.712  0.00  0.00    -0.214 NA
BRANCH   4   3
ATOM      1  C   UNL     1      65.081  49.877  11.975  0.00  0.00    +0.020 A 
ATOM      2  C   UNL     1      65.248  51.040  12.817  0.00  0.00    +0.013 A 
ATOM      3  C   UNL     1      66.413  51.171  13.683  0.00  0.00    +0.019 A 
ATOM     38  C   UNL     1      67.398  50.099  13.675  0.00  0.00    +0.120 A 
ATOM     39  N   UNL     1      67.209  48.991  12.855  0.00  0.00    -0.263 NA
ATOM     40  C   UNL     1      66.092  48.853  12.018  0.00  0.00    +0.111 A 
ENDBRANCH   4   3
ENDBRANCH  10   9
BRANCH  12  13
ATOM     13  N   UNL     1      67.516  55.084  22.042  0.00  0.00    -0.281 N 
ATOM     14  C   UNL     1      67.839  54.605  23.301  0.00  0.00    +0.248 C 
ATOM     30  O   UNL     1      68.718  53.786  23.524  0.00  0.00    -0.270 OA
ATOM     31  H   UNL     1      66.644  55.608  21.972  0.00  0.00    +0.155 HD
BRANCH  14  15
ATOM     15  C   UNL     1      67.063  55.095  24.481  0.00  0.00    +0.037 A 
ATOM     16  C   UNL     1      67.403  56.357  25.142  0.00  0.00    +0.013 A 
ATOM     17  C   UNL     1      66.649  56.799  26.289  0.00  0.00    +0.005 A 
ATOM     18  C   UNL     1      65.547  55.976  26.781  0.00  0.00    -0.033 A 
ATOM     28  C   UNL     1      65.228  54.730  26.103  0.00  0.00    +0.005 A 
ATOM     29  C   UNL     1      65.965  54.294  24.979  0.00  0.00    +0.013 A 
BRANCH  18  19
ATOM     19  C   UNL     1      64.702  56.358  28.011  0.00  0.00    +0.119 C 
BRANCH  19  20
ATOM     20  N   UNL     1      63.296  56.798  27.765  0.00  0.00    -0.302 NA
ATOM     21  C   UNL     1      62.317  55.621  27.772  0.00  0.00    +0.066 C 
ATOM     22  C   UNL     1      60.848  56.101  27.536  0.00  0.00    -0.064 C 
ATOM     23  N   UNL     1      60.770  56.863  26.212  0.00  0.00    +0.379 N 
ATOM     24  C   UNL     1      59.379  57.266  25.959  0.00  0.00    -0.096 C 
ATOM     25  H   UNL     1      61.072  56.162  25.400  0.00  0.00    -0.082 HD
ATOM     26  C   UNL     1      61.743  58.034  26.196  0.00  0.00    -0.064 C 
ATOM     27  C   UNL     1      63.195  57.549  26.461  0.00  0.00    +0.066 C 
ENDBRANCH  19  20
ENDBRANCH  18  19
ENDBRANCH  14  15
ENDBRANCH  12  13
TORSDOF 6
ENDMDL
MODEL 4
REMARK VINA RESULT:      -8.0      1.026      1.369
REMARK  Name = C:\Users\Docking\Desktop\test protocol\1iep_ligandH.pdb
REMARK  8 active torsions:
REMARK  status: ('A' for Active; 'I' for Inactive)
REMARK    1  A    between atoms: _5  and  _11
REMARK    2  A    between atoms: _19  and  _21
REMARK    3  A    between atoms: _22  and  _66
REMARK    4  A    between atoms: _27  and  _30
REMARK    5  A    between atoms: _32  and  _33
REMARK    6  A    between atoms: _38  and  _43
REMARK    7  A    between atoms: _43  and  _46
REMARK    8  A    between atoms: _53  and  _55
REMARK                            x       y       z     vdW  Elec       q    Type
REMARK                         _______ _______ _______ _____ _____    ______ ____
ROOT
ATOM     10  C   UNL     1      68.103  52.599  16.036  0.00  0.00    +0.038 A 
ATOM     11  C   UNL     1      67.699  52.527  17.394  0.00  0.00    +0.047 A 
ATOM     12  C   UNL     1      67.692  53.710  18.240  0.00  0.00    +0.035 A 
ATOM     32  C   UNL     1      68.101  54.951  17.671  0.00  0.00    +0.024 A 
ATOM     33  C   UNL     1      68.516  55.042  16.293  0.00  0.00    +0.007 A 
ATOM     34  C   UNL     1      68.527  53.878  15.454  0.00  0.00    -0.029 A 
ATOM     35  C   UNL     1      68.988  54.033  13.986  0.00  0.00    +0.045 C 
ENDROOT
BRANCH  10   9
ATOM      4  C   UNL     1      66.162  49.750  12.696  0.00  0.00    +0.077 A 
ATOM      5  C   UNL     1      65.066  50.651  12.481  0.00  0.00    +0.048 A 
ATOM      6  C   UNL     1      65.035  51.832  13.255  0.00  0.00    +0.116 A 
ATOM      7  N   UNL     1      66.031  52.085  14.173  0.00  0.00    -0.223 NA
ATOM      8  C   UNL     1      67.074  51.195  14.357  0.00  0.00    +0.220 A 
ATOM      9  N   UNL     1      68.090  51.432  15.269  0.00  0.00    -0.283 N 
ATOM     36  H   UNL     1      68.838  50.747  15.380  0.00  0.00    +0.155 HD
ATOM     37  N   UNL     1      67.125  50.058  13.631  0.00  0.00    -0.214 NA
BRANCH   4   3
ATOM      1  C   UNL     1      66.528  47.115   9.829  0.00  0.00    +0.020 A 
ATOM      2  C   UNL     1      66.357  48.384  10.498  0.00  0.00    +0.013 A 
ATOM      3  C   UNL     1      66.336  48.462  11.953  0.00  0.00    +0.019 A 
ATOM     38  C   UNL     1      66.494  47.229  12.708  0.00  0.00    +0.120 A 
ATOM     39  N   UNL     1      66.656  46.021  12.037  0.00  0.00    -0.263 NA
ATOM     40  C   UNL     1      66.676  45.933  10.637  0.00  0.00    +0.111 A 
ENDBRANCH   4   3
ENDBRANCH  10   9
BRANCH  12  13
ATOM     13  N   UNL     1      67.299  53.697  19.628  0.00  0.00    -0.281 N 
ATOM     14  C   UNL     1      67.973  53.131  20.698  0.00  0.00    +0.248 C 
ATOM     30  O   UNL     1      68.916  52.361  20.592  0.00  0.00    -0.270 OA
ATOM     31  H   UNL     1      66.417  54.160  19.847  0.00  0.00    +0.155 HD
BRANCH  14  15
ATOM     15  C   UNL     1      67.525  53.457  22.086  0.00  0.00    +0.037 A 
ATOM     16  C   UNL     1      68.244  52.946  23.256  0.00  0.00    +0.013 A 
ATOM     17  C   UNL     1      67.781  53.261  24.584  0.00  0.00    +0.005 A 
ATOM     18  C   UNL     1      66.592  54.093  24.749  0.00  0.00    -0.033 A 
ATOM     28  C   UNL     1      65.900  54.591  23.572  0.00  0.00    +0.005 A 
ATOM     29  C   UNL     1      66.351  54.283  22.268  0.00  0.00    +0.013 A 
BRANCH  18  19
ATOM     19  C   UNL     1      66.014  54.462  26.129  0.00  0.00    +0.119 C 
BRANCH  19  20
ATOM     20  N   UNL     1      64.628  53.998  26.436  0.00  0.00    -0.302 NA
ATOM     21  C   UNL     1      63.968  54.845  27.527  0.00  0.00    +0.066 C 
ATOM     22  C   UNL     1      62.511  54.360  27.820  0.00  0.00    -0.064 C 
ATOM     23  N   UNL     1      62.538  52.884  28.222  0.00  0.00    +0.379 N 
ATOM     24  C   UNL     1      61.177  52.441  28.554  0.00  0.00    -0.096 C 
ATOM     25  H   UNL     1      63.157  52.797  29.145  0.00  0.00    -0.082 HD
ATOM     26  C   UNL     1      63.196  52.036  27.143  0.00  0.00    -0.064 C 
ATOM     27  C   UNL     1      64.633  52.544  26.839  0.00  0.00    +0.066 C 
ENDBRANCH  19  20
ENDBRANCH  18  19
ENDBRANCH  14  15
ENDBRANCH  12  13
TORSDOF 6
ENDMDL
MODEL 5
REMARK VINA RESULT:      -7.9      8.428     11.949
REMARK  Name = C:\Users\Docking\Desktop\test protocol\1iep_ligandH.pdb
REMARK  8 active torsions:
REMARK  status: ('A' for Active; 'I' for Inactive)
REMARK    1  A    between atoms: _5  and  _11
REMARK    2  A    between atoms: _19  and  _21
REMARK    3  A    between atoms: _22  and  _66
REMARK    4  A    between atoms: _27  and  _30
REMARK    5  A    between atoms: _32  and  _33
REMARK    6  A    between atoms: _38  and  _43
REMARK    7  A    between atoms: _43  and  _46
REMARK    8  A    between atoms: _53  and  _55
REMARK                            x       y       z     vdW  Elec       q    Type
REMARK                         _______ _______ _______ _____ _____    ______ ____
ROOT
ATOM     10  C   UNL     1      71.522  55.789  14.612  0.00  0.00    +0.038 A 
ATOM     11  C   UNL     1      71.398  57.082  14.043  0.00  0.00    +0.047 A 
ATOM     12  C   UNL     1      72.106  58.222  14.603  0.00  0.00    +0.035 A 
ATOM     32  C   UNL     1      72.935  58.009  15.743  0.00  0.00    +0.024 A 
ATOM     33  C   UNL     1      73.072  56.702  16.335  0.00  0.00    +0.007 A 
ATOM     34  C   UNL     1      72.374  55.574  15.788  0.00  0.00    -0.029 A 
ATOM     35  C   UNL     1      72.553  54.196  16.468  0.00  0.00    +0.045 C 
ENDROOT
BRANCH  10   9
ATOM      4  C   UNL     1      67.494  53.287  13.869  0.00  0.00    +0.077 A 
ATOM      5  C   UNL     1      66.731  54.147  14.727  0.00  0.00    +0.048 A 
ATOM      6  C   UNL     1      67.415  55.217  15.347  0.00  0.00    +0.116 A 
ATOM      7  N   UNL     1      68.760  55.405  15.117  0.00  0.00    -0.223 NA
ATOM      8  C   UNL     1      69.467  54.556  14.285  0.00  0.00    +0.220 A 
ATOM      9  N   UNL     1      70.819  54.730  14.033  0.00  0.00    -0.283 N 
ATOM     36  H   UNL     1      71.306  54.078  13.419  0.00  0.00    +0.155 HD
ATOM     37  N   UNL     1      68.837  53.525  13.682  0.00  0.00    -0.214 NA
BRANCH   4   3
ATOM      1  C   UNL     1      64.981  50.656  12.432  0.00  0.00    +0.020 A 
ATOM      2  C   UNL     1      65.490  51.800  13.154  0.00  0.00    +0.013 A 
ATOM      3  C   UNL     1      66.913  52.115  13.140  0.00  0.00    +0.019 A 
ATOM     38  C   UNL     1      67.801  51.247  12.381  0.00  0.00    +0.120 A 
ATOM     39  N   UNL     1      67.281  50.152  11.697  0.00  0.00    -0.263 NA
ATOM     40  C   UNL     1      65.914  49.838  11.704  0.00  0.00    +0.111 A 
ENDBRANCH   4   3
ENDBRANCH  10   9
BRANCH  12  13
ATOM     13  N   UNL     1      72.013  59.560  14.073  0.00  0.00    -0.281 N 
ATOM     14  C   UNL     1      71.441  60.673  14.666  0.00  0.00    +0.248 C 
ATOM     30  O   UNL     1      70.729  60.638  15.659  0.00  0.00    -0.270 OA
ATOM     31  H   UNL     1      72.417  59.704  13.147  0.00  0.00    +0.155 HD
BRANCH  14  15
ATOM     15  C   UNL     1      71.682  62.019  14.061  0.00  0.00    +0.037 A 
ATOM     16  C   UNL     1      70.581  62.959  13.834  0.00  0.00    +0.013 A 
ATOM     17  C   UNL     1      70.839  64.243  13.233  0.00  0.00    +0.005 A 
ATOM     18  C   UNL     1      72.206  64.595  12.856  0.00  0.00    -0.033 A 
ATOM     28  C   UNL     1      73.280  63.646  13.097  0.00  0.00    +0.005 A 
ATOM     29  C   UNL     1      73.031  62.386  13.685  0.00  0.00    +0.013 A 
BRANCH  18  19
ATOM     19  C   UNL     1      72.570  65.936  12.190  0.00  0.00    +0.119 C 
BRANCH  19  20
ATOM     20  N   UNL     1      73.236  66.965  13.043  0.00  0.00    -0.302 NA
ATOM     21  C   UNL     1      74.729  66.681  13.227  0.00  0.00    +0.066 C 
ATOM     22  C   UNL     1      75.414  67.779  14.103  0.00  0.00    -0.064 C 
ATOM     23  N   UNL     1      74.708  67.861  15.458  0.00  0.00    +0.379 N 
ATOM     24  C   UNL     1      75.386  68.852  16.306  0.00  0.00    -0.096 C 
ATOM     25  H   UNL     1      74.809  66.867  15.952  0.00  0.00    -0.082 HD
ATOM     26  C   UNL     1      73.222  68.140  15.284  0.00  0.00    -0.064 C 
ATOM     27  C   UNL     1      72.557  67.059  14.387  0.00  0.00    +0.066 C 
ENDBRANCH  19  20
ENDBRANCH  18  19
ENDBRANCH  14  15
ENDBRANCH  12  13
TORSDOF 6
ENDMDL
