MODEL 1
REMARK VINA RESULT:      -8.0      0.000      0.000
REMARK  Name = C:\Users\Docking\Desktop\test protocol\1iep_ligandH.pdb
REMARK  8 active torsions:
REMARK  status: ('A' for Active; 'I' for Inactive)
REMARK    1  A    between atoms: _5  and  _11
REMARK    2  A    between atoms: _19  and  _21
REMARK    3  A    between atoms: _22  and  _66
REMARK    4  A    between atoms: _27  and  _30
REMARK    5  A    between atoms: _32  and  _33
REMARK    6  A    between atoms: _38  and  _43
REMARK    7  A    between atoms: _43  and  _46
REMARK    8  A    between atoms: _53  and  _55
REMARK                            x       y       z     vdW  Elec       q    Type
REMARK                         _______ _______ _______ _____ _____    ______ ____
ROOT
ATOM     10  C   UNL     1      76.364  70.398   5.708  0.00  0.00    +0.038 A 
ATOM     11  C   UNL     1      74.992  70.119   5.482  0.00  0.00    +0.047 A 
ATOM     12  C   UNL     1      74.346  70.486   4.232  0.00  0.00    +0.035 A 
ATOM     32  C   UNL     1      75.127  71.135   3.232  0.00  0.00    +0.024 A 
ATOM     33  C   UNL     1      76.523  71.428   3.446  0.00  0.00    +0.007 A 
ATOM     34  C   UNL     1      77.165  71.071   4.678  0.00  0.00    -0.029 A 
ATOM     35  C   UNL     1      78.662  71.415   4.855  0.00  0.00    +0.045 C 
ENDROOT
BRANCH  10   9
ATOM      4  C   UNL     1      77.650  71.317  10.240  0.00  0.00    +0.077 A 
ATOM      5  C   UNL     1      77.170  72.667  10.165  0.00  0.00    +0.048 A 
ATOM      6  C   UNL     1      76.606  73.088   8.940  0.00  0.00    +0.116 A 
ATOM      7  N   UNL     1      76.532  72.215   7.876  0.00  0.00    -0.223 NA
ATOM      8  C   UNL     1      77.005  70.920   7.982  0.00  0.00    +0.220 A 
ATOM      9  N   UNL     1      76.934  70.023   6.927  0.00  0.00    -0.283 N 
ATOM     36  H   UNL     1      77.301  69.079   7.042  0.00  0.00    +0.155 HD
ATOM     37  N   UNL     1      77.550  70.495   9.140  0.00  0.00    -0.214 NA
BRANCH   4   3
ATOM      1  C   UNL     1      79.299  70.905  13.763  0.00  0.00    +0.020 A 
ATOM      2  C   UNL     1      78.707  71.528  12.602  0.00  0.00    +0.013 A 
ATOM      3  C   UNL     1      78.269  70.724  11.467  0.00  0.00    +0.019 A 
ATOM     38  C   UNL     1      78.445  69.281  11.541  0.00  0.00    +0.120 A 
ATOM     39  N   UNL     1      79.019  68.710  12.673  0.00  0.00    -0.263 NA
ATOM     40  C   UNL     1      79.446  69.474  13.769  0.00  0.00    +0.111 A 
ENDBRANCH   4   3
ENDBRANCH  10   9
BRANCH  12  13
ATOM     13  N   UNL     1      72.954  70.235   3.949  0.00  0.00    -0.281 N 
ATOM     14  C   UNL     1      72.399  69.132   3.320  0.00  0.00    +0.248 C 
ATOM     30  O   UNL     1      73.039  68.288   2.712  0.00  0.00    -0.270 OA
ATOM     31  H   UNL     1      72.299  70.957   4.248  0.00  0.00    +0.155 HD
BRANCH  14  15
ATOM     15  C   UNL     1      70.916  68.949   3.361  0.00  0.00    +0.037 A 
ATOM     16  C   UNL     1      70.043  69.600   2.381  0.00  0.00    +0.013 A 
ATOM     17  C   UNL     1      68.614  69.420   2.453  0.00  0.00    +0.005 A 
ATOM     18  C   UNL     1      68.050  68.583   3.510  0.00  0.00    -0.033 A 
ATOM     28  C   UNL     1      68.940  67.945   4.465  0.00  0.00    +0.005 A 
ATOM     29  C   UNL     1      70.341  68.119   4.398  0.00  0.00    +0.013 A 
BRANCH  18  19
ATOM     19  C   UNL     1      66.537  68.353   3.675  0.00  0.00    +0.119 C 
BRANCH  19  20
ATOM     20  N   UNL     1      65.668  68.638   2.495  0.00  0.00    -0.302 NA
ATOM     21  C   UNL     1      64.180  68.496   2.828  0.00  0.00    +0.066 C 
ATOM     22  C   UNL     1      63.285  68.820   1.588  0.00  0.00    -0.064 C 
ATOM     23  N   UNL     1      63.671  67.900   0.429  0.00  0.00    +0.379 N 
ATOM     24  C   UNL     1      62.793  68.162  -0.720  0.00  0.00    -0.096 C 
ATOM     25  H   UNL     1      63.493  66.849   0.758  0.00  0.00    -0.082 HD
ATOM     26  C   UNL     1      65.150  68.033   0.093  0.00  0.00    -0.064 C 
ATOM     27  C   UNL     1      66.029  67.737   1.340  0.00  0.00    +0.066 C 
ENDBRANCH  19  20
ENDBRANCH  18  19
ENDBRANCH  14  15
ENDBRANCH  12  13
TORSDOF 6
ENDMDL
MODEL 2
REMARK VINA RESULT:      -8.0     22.300     25.690
REMARK  Name = C:\Users\Docking\Desktop\test protocol\1iep_ligandH.pdb
REMARK  8 active torsions:
REMARK  status: ('A' for Active; 'I' for Inactive)
REMARK    1  A    between atoms: _5  and  _11
REMARK    2  A    between atoms: _19  and  _21
REMARK    3  A    between atoms: _22  and  _66
REMARK    4  A    between atoms: _27  and  _30
REMARK    5  A    between atoms: _32  and  _33
REMARK    6  A    between atoms: _38  and  _43
REMARK    7  A    between atoms: _43  and  _46
REMARK    8  A    between atoms: _53  and  _55
REMARK                            x       y       z     vdW  Elec       q    Type
REMARK                         _______ _______ _______ _____ _____    ______ ____
ROOT
ATOM     10  C   UNL     1      68.373  52.398  16.000  0.00  0.00    +0.038 A 
ATOM     11  C   UNL     1      67.983  52.309  17.360  0.00  0.00    +0.047 A 
ATOM     12  C   UNL     1      67.897  53.496  18.197  0.00  0.00    +0.035 A 
ATOM     32  C   UNL     1      68.213  54.758  17.615  0.00  0.00    +0.024 A 
ATOM     33  C   UNL     1      68.612  54.866  16.234  0.00  0.00    +0.007 A 
ATOM     34  C   UNL     1      68.701  53.699  15.404  0.00  0.00    -0.029 A 
ATOM     35  C   UNL     1      69.141  53.873  13.932  0.00  0.00    +0.045 C 
ENDROOT
BRANCH  10   9
ATOM      4  C   UNL     1      66.578  49.349  12.756  0.00  0.00    +0.077 A 
ATOM      5  C   UNL     1      65.398  50.144  12.575  0.00  0.00    +0.048 A 
ATOM      6  C   UNL     1      65.288  51.326  13.341  0.00  0.00    +0.116 A 
ATOM      7  N   UNL     1      66.290  51.678  14.219  0.00  0.00    -0.223 NA
ATOM      8  C   UNL     1      67.415  50.888  14.371  0.00  0.00    +0.220 A 
ATOM      9  N   UNL     1      68.438  51.226  15.242  0.00  0.00    -0.283 N 
ATOM     36  H   UNL     1      69.248  50.613  15.331  0.00  0.00    +0.155 HD
ATOM     37  N   UNL     1      67.543  49.753  13.652  0.00  0.00    -0.214 NA
BRANCH   4   3
ATOM      1  C   UNL     1      67.786  46.770  10.075  0.00  0.00    +0.020 A 
ATOM      2  C   UNL     1      67.557  48.028  10.748  0.00  0.00    +0.013 A 
ATOM      3  C   UNL     1      66.842  48.074  12.017  0.00  0.00    +0.019 A 
ATOM     38  C   UNL     1      66.368  46.820  12.582  0.00  0.00    +0.120 A 
ATOM     39  N   UNL     1      66.601  45.624  11.911  0.00  0.00    -0.263 NA
ATOM     40  C   UNL     1      67.287  45.567  10.688  0.00  0.00    +0.111 A 
ENDBRANCH   4   3
ENDBRANCH  10   9
BRANCH  12  13
ATOM     13  N   UNL     1      67.514  53.467  19.587  0.00  0.00    -0.281 N 
ATOM     14  C   UNL     1      68.251  53.000  20.664  0.00  0.00    +0.248 C 
ATOM     30  O   UNL     1      69.273  52.337  20.566  0.00  0.00    -0.270 OA
ATOM     31  H   UNL     1      66.588  53.835  19.804  0.00  0.00    +0.155 HD
BRANCH  14  15
ATOM     15  C   UNL     1      67.777  53.302  22.049  0.00  0.00    +0.037 A 
ATOM     16  C   UNL     1      68.505  52.816  23.224  0.00  0.00    +0.013 A 
ATOM     17  C   UNL     1      68.016  53.107  24.548  0.00  0.00    +0.005 A 
ATOM     18  C   UNL     1      66.792  53.889  24.704  0.00  0.00    -0.033 A 
ATOM     28  C   UNL     1      66.093  54.363  23.521  0.00  0.00    +0.005 A 
ATOM     29  C   UNL     1      66.568  54.079  22.221  0.00  0.00    +0.013 A 
BRANCH  18  19
ATOM     19  C   UNL     1      66.186  54.229  26.079  0.00  0.00    +0.119 C 
BRANCH  19  20
ATOM     20  N   UNL     1      64.814  53.714  26.367  0.00  0.00    -0.302 NA
ATOM     21  C   UNL     1      64.096  54.555  27.427  0.00  0.00    +0.066 C 
ATOM     22  C   UNL     1      62.654  54.015  27.701  0.00  0.00    -0.064 C 
ATOM     23  N   UNL     1      62.734  52.551  28.134  0.00  0.00    +0.379 N 
ATOM     24  C   UNL     1      61.385  52.057  28.447  0.00  0.00    -0.096 C 
ATOM     25  H   UNL     1      63.337  52.508  29.071  0.00  0.00    -0.082 HD
ATOM     26  C   UNL     1      63.449  51.708  27.087  0.00  0.00    -0.064 C 
ATOM     27  C   UNL     1      64.870  52.270  26.801  0.00  0.00    +0.066 C 
ENDBRANCH  19  20
ENDBRANCH  18  19
ENDBRANCH  14  15
ENDBRANCH  12  13
TORSDOF 6
ENDMDL
MODEL 3
REMARK VINA RESULT:      -7.9     21.714     25.124
REMARK  Name = C:\Users\Docking\Desktop\test protocol\1iep_ligandH.pdb
REMARK  8 active torsions:
REMARK  status: ('A' for Active; 'I' for Inactive)
REMARK    1  A    between atoms: _5  and  _11
REMARK    2  A    between atoms: _19  and  _21
REMARK    3  A    between atoms: _22  and  _66
REMARK    4  A    between atoms: _27  and  _30
REMARK    5  A    between atoms: _32  and  _33
REMARK    6  A    between atoms: _38  and  _43
REMARK    7  A    between atoms: _43  and  _46
REMARK    8  A    between atoms: _53  and  _55
REMARK                            x       y       z     vdW  Elec       q    Type
REMARK                         _______ _______ _______ _____ _____    ______ ____
ROOT
ATOM     10  C   UNL     1      68.700  52.665  15.807  0.00  0.00    +0.038 A 
ATOM     11  C   UNL     1      68.262  52.600  17.154  0.00  0.00    +0.047 A 
ATOM     12  C   UNL     1      68.173  53.797  17.976  0.00  0.00    +0.035 A 
ATOM     32  C   UNL     1      68.536  55.045  17.392  0.00  0.00    +0.024 A 
ATOM     33  C   UNL     1      68.985  55.130  16.024  0.00  0.00    +0.007 A 
ATOM     34  C   UNL     1      69.077  53.952  15.210  0.00  0.00    -0.029 A 
ATOM     35  C   UNL     1      69.570  54.102  13.752  0.00  0.00    +0.045 C 
ENDROOT
BRANCH  10   9
ATOM      4  C   UNL     1      66.810  49.462  12.773  0.00  0.00    +0.077 A 
ATOM      5  C   UNL     1      65.576  50.188  12.682  0.00  0.00    +0.048 A 
ATOM      6  C   UNL     1      65.466  51.377  13.437  0.00  0.00    +0.116 A 
ATOM      7  N   UNL     1      66.518  51.799  14.221  0.00  0.00    -0.223 NA
ATOM      8  C   UNL     1      67.693  51.075  14.288  0.00  0.00    +0.220 A 
ATOM      9  N   UNL     1      68.766  51.485  15.064  0.00  0.00    -0.283 N 
ATOM     36  H   UNL     1      69.614  50.918  15.092  0.00  0.00    +0.155 HD
ATOM     37  N   UNL     1      67.823  49.935  13.578  0.00  0.00    -0.214 NA
BRANCH   4   3
ATOM      1  C   UNL     1      68.433  46.770  10.445  0.00  0.00    +0.020 A 
ATOM      2  C   UNL     1      68.217  48.020  11.136  0.00  0.00    +0.013 A 
ATOM      3  C   UNL     1      67.081  48.189  12.033  0.00  0.00    +0.019 A 
ATOM     38  C   UNL     1      66.175  47.064  12.211  0.00  0.00    +0.120 A 
ATOM     39  N   UNL     1      66.408  45.872  11.531  0.00  0.00    -0.263 NA
ATOM     40  C   UNL     1      67.497  45.699  10.664  0.00  0.00    +0.111 A 
ENDBRANCH   4   3
ENDBRANCH  10   9
BRANCH  12  13
ATOM     13  N   UNL     1      67.743  53.791  19.352  0.00  0.00    -0.281 N 
ATOM     14  C   UNL     1      68.076  52.884  20.345  0.00  0.00    +0.248 C 
ATOM     30  O   UNL     1      68.629  51.812  20.144  0.00  0.00    -0.270 OA
ATOM     31  H   UNL     1      67.116  54.547  19.628  0.00  0.00    +0.155 HD
BRANCH  14  15
ATOM     15  C   UNL     1      67.733  53.207  21.763  0.00  0.00    +0.037 A 
ATOM     16  C   UNL     1      68.565  52.733  22.873  0.00  0.00    +0.013 A 
ATOM     17  C   UNL     1      68.202  53.045  24.232  0.00  0.00    +0.005 A 
ATOM     18  C   UNL     1      67.001  53.837  24.490  0.00  0.00    -0.033 A 
ATOM     28  C   UNL     1      66.198  54.298  23.370  0.00  0.00    +0.005 A 
ATOM     29  C   UNL     1      66.550  53.994  22.036  0.00  0.00    +0.013 A 
BRANCH  18  19
ATOM     19  C   UNL     1      66.527  54.199  25.910  0.00  0.00    +0.119 C 
BRANCH  19  20
ATOM     20  N   UNL     1      65.156  54.775  26.046  0.00  0.00    -0.302 NA
ATOM     21  C   UNL     1      65.188  56.297  26.218  0.00  0.00    +0.066 C 
ATOM     22  C   UNL     1      63.744  56.886  26.336  0.00  0.00    -0.064 C 
ATOM     23  N   UNL     1      63.021  56.224  27.510  0.00  0.00    +0.379 N 
ATOM     24  C   UNL     1      61.684  56.817  27.660  0.00  0.00    -0.096 C 
ATOM     25  H   UNL     1      63.599  56.452  28.436  0.00  0.00    -0.082 HD
ATOM     26  C   UNL     1      62.987  54.710  27.349  0.00  0.00    -0.064 C 
ATOM     27  C   UNL     1      64.425  54.138  27.202  0.00  0.00    +0.066 C 
ENDBRANCH  19  20
ENDBRANCH  18  19
ENDBRANCH  14  15
ENDBRANCH  12  13
TORSDOF 6
ENDMDL
MODEL 4
REMARK VINA RESULT:      -7.8     16.581     20.134
REMARK  Name = C:\Users\Docking\Desktop\test protocol\1iep_ligandH.pdb
REMARK  8 active torsions:
REMARK  status: ('A' for Active; 'I' for Inactive)
REMARK    1  A    between atoms: _5  and  _11
REMARK    2  A    between atoms: _19  and  _21
REMARK    3  A    between atoms: _22  and  _66
REMARK    4  A    between atoms: _27  and  _30
REMARK    5  A    between atoms: _32  and  _33
REMARK    6  A    between atoms: _38  and  _43
REMARK    7  A    between atoms: _43  and  _46
REMARK    8  A    between atoms: _53  and  _55
REMARK                            x       y       z     vdW  Elec       q    Type
REMARK                         _______ _______ _______ _____ _____    ______ ____
ROOT
ATOM     10  C   UNL     1      67.540  54.692  18.999  0.00  0.00    +0.038 A 
ATOM     11  C   UNL     1      67.956  55.967  18.537  0.00  0.00    +0.047 A 
ATOM     12  C   UNL     1      68.468  56.971  19.457  0.00  0.00    +0.035 A 
ATOM     32  C   UNL     1      68.543  56.642  20.842  0.00  0.00    +0.024 A 
ATOM     33  C   UNL     1      68.123  55.351  21.329  0.00  0.00    +0.007 A 
ATOM     34  C   UNL     1      67.615  54.358  20.427  0.00  0.00    -0.029 A 
ATOM     35  C   UNL     1      67.173  52.994  21.005  0.00  0.00    +0.045 C 
ENDROOT
BRANCH  10   9
ATOM      4  C   UNL     1      68.061  51.940  15.102  0.00  0.00    +0.077 A 
ATOM      5  C   UNL     1      69.400  52.406  14.879  0.00  0.00    +0.048 A 
ATOM      6  C   UNL     1      69.914  53.360  15.787  0.00  0.00    +0.116 A 
ATOM      7  N   UNL     1      69.139  53.806  16.835  0.00  0.00    -0.223 NA
ATOM      8  C   UNL     1      67.851  53.337  17.020  0.00  0.00    +0.220 A 
ATOM      9  N   UNL     1      67.057  53.767  18.072  0.00  0.00    -0.283 N 
ATOM     36  H   UNL     1      66.109  53.402  18.169  0.00  0.00    +0.155 HD
ATOM     37  N   UNL     1      67.337  52.428  16.166  0.00  0.00    -0.214 NA
BRANCH   4   3
ATOM      1  C   UNL     1      65.503  50.187  12.718  0.00  0.00    +0.020 A 
ATOM      2  C   UNL     1      66.120  51.197  13.548  0.00  0.00    +0.013 A 
ATOM      3  C   UNL     1      67.379  50.931  14.232  0.00  0.00    +0.019 A 
ATOM     38  C   UNL     1      67.993  49.623  14.054  0.00  0.00    +0.120 A 
ATOM     39  N   UNL     1      67.374  48.671  13.250  0.00  0.00    -0.263 NA
ATOM     40  C   UNL     1      66.162  48.915  12.588  0.00  0.00    +0.111 A 
ENDBRANCH   4   3
ENDBRANCH  10   9
BRANCH  12  13
ATOM     13  N   UNL     1      68.898  58.285  19.047  0.00  0.00    -0.281 N 
ATOM     14  C   UNL     1      70.187  58.712  18.775  0.00  0.00    +0.248 C 
ATOM     30  O   UNL     1      71.197  58.082  19.052  0.00  0.00    -0.270 OA
ATOM     31  H   UNL     1      68.163  58.984  18.945  0.00  0.00    +0.155 HD
BRANCH  14  15
ATOM     15  C   UNL     1      70.384  60.038  18.114  0.00  0.00    +0.037 A 
ATOM     16  C   UNL     1      70.203  61.290  18.853  0.00  0.00    +0.013 A 
ATOM     17  C   UNL     1      70.382  62.556  18.187  0.00  0.00    +0.005 A 
ATOM     18  C   UNL     1      70.747  62.575  16.772  0.00  0.00    -0.033 A 
ATOM     28  C   UNL     1      70.925  61.318  16.064  0.00  0.00    +0.005 A 
ATOM     29  C   UNL     1      70.749  60.075  16.714  0.00  0.00    +0.013 A 
BRANCH  18  19
ATOM     19  C   UNL     1      70.938  63.879  15.975  0.00  0.00    +0.119 C 
BRANCH  19  20
ATOM     20  N   UNL     1      71.479  63.760  14.588  0.00  0.00    -0.302 NA
ATOM     21  C   UNL     1      72.498  64.858  14.273  0.00  0.00    +0.066 C 
ATOM     22  C   UNL     1      73.071  64.705  12.826  0.00  0.00    -0.064 C 
ATOM     23  N   UNL     1      71.919  64.730  11.820  0.00  0.00    +0.379 N 
ATOM     24  C   UNL     1      72.458  64.644  10.455  0.00  0.00    -0.096 C 
ATOM     25  H   UNL     1      71.404  65.714  11.919  0.00  0.00    -0.082 HD
ATOM     26  C   UNL     1      70.899  63.642  12.128  0.00  0.00    -0.064 C 
ATOM     27  C   UNL     1      70.358  63.786  13.578  0.00  0.00    +0.066 C 
ENDBRANCH  19  20
ENDBRANCH  18  19
ENDBRANCH  14  15
ENDBRANCH  12  13
TORSDOF 6
ENDMDL
MODEL 5
REMARK VINA RESULT:      -7.7     16.902     20.310
REMARK  Name = C:\Users\Docking\Desktop\test protocol\1iep_ligandH.pdb
REMARK  8 active torsions:
REMARK  status: ('A' for Active; 'I' for Inactive)
REMARK    1  A    between atoms: _5  and  _11
REMARK    2  A    between atoms: _19  and  _21
REMARK    3  A    between atoms: _22  and  _66
REMARK    4  A    between atoms: _27  and  _30
REMARK    5  A    between atoms: _32  and  _33
REMARK    6  A    between atoms: _38  and  _43
REMARK    7  A    between atoms: _43  and  _46
REMARK    8  A    between atoms: _53  and  _55
REMARK                            x       y       z     vdW  Elec       q    Type
REMARK                         _______ _______ _______ _____ _____    ______ ____
ROOT
ATOM     10  C   UNL     1      68.317  53.041  17.240  0.00  0.00    +0.038 A 
ATOM     11  C   UNL     1      68.820  54.272  16.747  0.00  0.00    +0.047 A 
ATOM     12  C   UNL     1      68.783  55.479  17.557  0.00  0.00    +0.035 A 
ATOM     32  C   UNL     1      68.227  55.396  18.868  0.00  0.00    +0.024 A 
ATOM     33  C   UNL     1      67.710  54.153  19.384  0.00  0.00    +0.007 A 
ATOM     34  C   UNL     1      67.742  52.960  18.588  0.00  0.00    -0.029 A 
ATOM     35  C   UNL     1      67.167  51.657  19.191  0.00  0.00    +0.045 C 
ENDROOT
BRANCH  10   9
ATOM      4  C   UNL     1      67.099  50.617  13.280  0.00  0.00    +0.077 A 
ATOM      5  C   UNL     1      66.248  51.676  12.822  0.00  0.00    +0.048 A 
ATOM      6  C   UNL     1      66.145  52.825  13.638  0.00  0.00    +0.116 A 
ATOM      7  N   UNL     1      66.847  52.898  14.822  0.00  0.00    -0.223 NA
ATOM      8  C   UNL     1      67.658  51.857  15.236  0.00  0.00    +0.220 A 
ATOM      9  N   UNL     1      68.378  51.913  16.419  0.00  0.00    -0.283 N 
ATOM     36  H   UNL     1      68.959  51.121  16.692  0.00  0.00    +0.155 HD
ATOM     37  N   UNL     1      67.771  50.749  14.475  0.00  0.00    -0.214 NA
BRANCH   4   3
ATOM      1  C   UNL     1      66.518  47.141  11.581  0.00  0.00    +0.020 A 
ATOM      2  C   UNL     1      66.258  48.358  12.316  0.00  0.00    +0.013 A 
ATOM      3  C   UNL     1      67.314  49.340  12.528  0.00  0.00    +0.019 A 
ATOM     38  C   UNL     1      68.632  49.059  11.978  0.00  0.00    +0.120 A 
ATOM     39  N   UNL     1      68.853  47.878  11.276  0.00  0.00    -0.263 NA
ATOM     40  C   UNL     1      67.844  46.925  11.068  0.00  0.00    +0.111 A 
ENDBRANCH   4   3
ENDBRANCH  10   9
BRANCH  12  13
ATOM     13  N   UNL     1      69.272  56.758  17.107  0.00  0.00    -0.281 N 
ATOM     14  C   UNL     1      70.583  57.128  16.853  0.00  0.00    +0.248 C 
ATOM     30  O   UNL     1      71.561  56.473  17.182  0.00  0.00    -0.270 OA
ATOM     31  H   UNL     1      68.566  57.479  16.958  0.00  0.00    +0.155 HD
BRANCH  14  15
ATOM     15  C   UNL     1      70.845  58.418  16.145  0.00  0.00    +0.037 A 
ATOM     16  C   UNL     1      71.856  58.513  15.089  0.00  0.00    +0.013 A 
ATOM     17  C   UNL     1      72.101  59.773  14.434  0.00  0.00    +0.005 A 
ATOM     18  C   UNL     1      71.332  60.949  14.833  0.00  0.00    -0.033 A 
ATOM     28  C   UNL     1      70.331  60.825  15.880  0.00  0.00    +0.005 A 
ATOM     29  C   UNL     1      70.089  59.592  16.525  0.00  0.00    +0.013 A 
BRANCH  18  19
ATOM     19  C   UNL     1      71.541  62.339  14.203  0.00  0.00    +0.119 C 
BRANCH  19  20
ATOM     20  N   UNL     1      72.082  62.385  12.812  0.00  0.00    -0.302 NA
ATOM     21  C   UNL     1      73.368  63.212  12.722  0.00  0.00    +0.066 C 
ATOM     22  C   UNL     1      73.932  63.230  11.264  0.00  0.00    -0.064 C 
ATOM     23  N   UNL     1      72.867  63.780  10.315  0.00  0.00    +0.379 N 
ATOM     24  C   UNL     1      73.414  63.853   8.952  0.00  0.00    -0.096 C 
ATOM     25  H   UNL     1      72.629  64.820  10.640  0.00  0.00    -0.082 HD
ATOM     26  C   UNL     1      71.584  62.965  10.400  0.00  0.00    -0.064 C 
ATOM     27  C   UNL     1      71.048  62.929  11.858  0.00  0.00    +0.066 C 
ENDBRANCH  19  20
ENDBRANCH  18  19
ENDBRANCH  14  15
ENDBRANCH  12  13
TORSDOF 6
ENDMDL
