MODEL 1
REMARK VINA RESULT:      -8.1      0.000      0.000
REMARK  Name = C:\Users\Docking\Desktop\test protocol\1iep_ligandH.pdb
REMARK  8 active torsions:
REMARK  status: ('A' for Active; 'I' for Inactive)
REMARK    1  A    between atoms: _5  and  _11
REMARK    2  A    between atoms: _19  and  _21
REMARK    3  A    between atoms: _22  and  _66
REMARK    4  A    between atoms: _27  and  _30
REMARK    5  A    between atoms: _32  and  _33
REMARK    6  A    between atoms: _38  and  _43
REMARK    7  A    between atoms: _43  and  _46
REMARK    8  A    between atoms: _53  and  _55
REMARK                            x       y       z     vdW  Elec       q    Type
REMARK                         _______ _______ _______ _____ _____    ______ ____
ROOT
ATOM     10  C   UNL     1      67.231  54.562  18.894  0.00  0.00    +0.038 A 
ATOM     11  C   UNL     1      67.642  55.876  18.554  0.00  0.00    +0.047 A 
ATOM     12  C   UNL     1      68.217  56.766  19.551  0.00  0.00    +0.035 A 
ATOM     32  C   UNL     1      68.362  56.283  20.884  0.00  0.00    +0.024 A 
ATOM     33  C   UNL     1      67.949  54.951  21.247  0.00  0.00    +0.007 A 
ATOM     34  C   UNL     1      67.379  54.069  20.269  0.00  0.00    -0.029 A 
ATOM     35  C   UNL     1      66.948  52.653  20.716  0.00  0.00    +0.045 C 
ENDROOT
BRANCH  10   9
ATOM      4  C   UNL     1      67.611  51.932  14.897  0.00  0.00    +0.077 A 
ATOM      5  C   UNL     1      69.010  52.222  14.768  0.00  0.00    +0.048 A 
ATOM      6  C   UNL     1      69.592  53.058  15.748  0.00  0.00    +0.116 A 
ATOM      7  N   UNL     1      68.823  53.560  16.775  0.00  0.00    -0.223 NA
ATOM      8  C   UNL     1      67.476  53.262  16.868  0.00  0.00    +0.220 A 
ATOM      9  N   UNL     1      66.685  53.750  17.897  0.00  0.00    -0.283 N 
ATOM     36  H   UNL     1      65.694  53.513  17.927  0.00  0.00    +0.155 HD
ATOM     37  N   UNL     1      66.896  52.468  15.945  0.00  0.00    -0.214 NA
BRANCH   4   3
ATOM      1  C   UNL     1      64.914  50.599  12.397  0.00  0.00    +0.020 A 
ATOM      2  C   UNL     1      65.606  51.477  13.312  0.00  0.00    +0.013 A 
ATOM      3  C   UNL     1      66.853  51.062  13.943  0.00  0.00    +0.019 A 
ATOM     38  C   UNL     1      67.376  49.743  13.624  0.00  0.00    +0.120 A 
ATOM     39  N   UNL     1      66.687  48.918  12.740  0.00  0.00    -0.263 NA
ATOM     40  C   UNL     1      65.485  49.306  12.128  0.00  0.00    +0.111 A 
ENDBRANCH   4   3
ENDBRANCH  10   9
BRANCH  12  13
ATOM     13  N   UNL     1      68.645  58.113  19.266  0.00  0.00    -0.281 N 
ATOM     14  C   UNL     1      69.931  58.564  19.018  0.00  0.00    +0.248 C 
ATOM     30  O   UNL     1      70.943  57.908  19.214  0.00  0.00    -0.270 OA
ATOM     31  H   UNL     1      67.910  58.821  19.246  0.00  0.00    +0.155 HD
BRANCH  14  15
ATOM     15  C   UNL     1      70.121  59.949  18.488  0.00  0.00    +0.037 A 
ATOM     16  C   UNL     1      69.318  61.069  18.985  0.00  0.00    +0.013 A 
ATOM     17  C   UNL     1      69.510  62.392  18.445  0.00  0.00    +0.005 A 
ATOM     18  C   UNL     1      70.511  62.601  17.402  0.00  0.00    -0.033 A 
ATOM     28  C   UNL     1      71.297  61.473  16.931  0.00  0.00    +0.005 A 
ATOM     29  C   UNL     1      71.111  60.175  17.457  0.00  0.00    +0.013 A 
BRANCH  18  19
ATOM     19  C   UNL     1      70.768  63.974  16.753  0.00  0.00    +0.119 C 
BRANCH  19  20
ATOM     20  N   UNL     1      71.520  63.991  15.463  0.00  0.00    -0.302 NA
ATOM     21  C   UNL     1      72.444  65.207  15.352  0.00  0.00    +0.066 C 
ATOM     22  C   UNL     1      73.240  65.197  14.006  0.00  0.00    -0.064 C 
ATOM     23  N   UNL     1      72.256  65.155  12.836  0.00  0.00    +0.379 N 
ATOM     24  C   UNL     1      73.000  65.203  11.568  0.00  0.00    -0.096 C 
ATOM     25  H   UNL     1      71.624  66.071  12.892  0.00  0.00    -0.082 HD
ATOM     26  C   UNL     1      71.332  63.950  12.939  0.00  0.00    -0.064 C 
ATOM     27  C   UNL     1      70.568  63.954  14.293  0.00  0.00    +0.066 C 
ENDBRANCH  19  20
ENDBRANCH  18  19
ENDBRANCH  14  15
ENDBRANCH  12  13
TORSDOF 6
ENDMDL
MODEL 2
REMARK VINA RESULT:      -8.0      1.527      1.821
REMARK  Name = C:\Users\Docking\Desktop\test protocol\1iep_ligandH.pdb
REMARK  8 active torsions:
REMARK  status: ('A' for Active; 'I' for Inactive)
REMARK    1  A    between atoms: _5  and  _11
REMARK    2  A    between atoms: _19  and  _21
REMARK    3  A    between atoms: _22  and  _66
REMARK    4  A    between atoms: _27  and  _30
REMARK    5  A    between atoms: _32  and  _33
REMARK    6  A    between atoms: _38  and  _43
REMARK    7  A    between atoms: _43  and  _46
REMARK    8  A    between atoms: _53  and  _55
REMARK                            x       y       z     vdW  Elec       q    Type
REMARK                         _______ _______ _______ _____ _____    ______ ____
ROOT
ATOM     10  C   UNL     1      67.956  53.070  18.047  0.00  0.00    +0.038 A 
ATOM     11  C   UNL     1      68.276  54.334  17.490  0.00  0.00    +0.047 A 
ATOM     12  C   UNL     1      68.620  55.465  18.338  0.00  0.00    +0.035 A 
ATOM     32  C   UNL     1      68.632  55.271  19.750  0.00  0.00    +0.024 A 
ATOM     33  C   UNL     1      68.309  53.993  20.333  0.00  0.00    +0.007 A 
ATOM     34  C   UNL     1      67.966  52.875  19.501  0.00  0.00    -0.029 A 
ATOM     35  C   UNL     1      67.622  51.529  20.181  0.00  0.00    +0.045 C 
ENDROOT
BRANCH  10   9
ATOM      4  C   UNL     1      66.541  51.371  13.786  0.00  0.00    +0.077 A 
ATOM      5  C   UNL     1      66.409  52.691  13.238  0.00  0.00    +0.048 A 
ATOM      6  C   UNL     1      66.708  53.779  14.087  0.00  0.00    +0.116 A 
ATOM      7  N   UNL     1      67.109  53.554  15.386  0.00  0.00    -0.223 NA
ATOM      8  C   UNL     1      67.224  52.269  15.884  0.00  0.00    +0.220 A 
ATOM      9  N   UNL     1      67.633  52.019  17.185  0.00  0.00    -0.283 N 
ATOM     36  H   UNL     1      67.698  51.057  17.517  0.00  0.00    +0.155 HD
ATOM     37  N   UNL     1      66.943  51.213  15.094  0.00  0.00    -0.214 NA
BRANCH   4   3
ATOM      1  C   UNL     1      64.853  48.713  11.467  0.00  0.00    +0.020 A 
ATOM      2  C   UNL     1      65.072  49.941  12.194  0.00  0.00    +0.013 A 
ATOM      3  C   UNL     1      66.265  50.120  13.012  0.00  0.00    +0.019 A 
ATOM     38  C   UNL     1      67.225  49.028  13.072  0.00  0.00    +0.120 A 
ATOM     39  N   UNL     1      66.986  47.855  12.362  0.00  0.00    -0.263 NA
ATOM     40  C   UNL     1      65.841  47.672  11.573  0.00  0.00    +0.111 A 
ENDBRANCH   4   3
ENDBRANCH  10   9
BRANCH  12  13
ATOM     13  N   UNL     1      68.945  56.775  17.830  0.00  0.00    -0.281 N 
ATOM     14  C   UNL     1      68.539  58.004  18.322  0.00  0.00    +0.248 C 
ATOM     30  O   UNL     1      67.655  58.158  19.152  0.00  0.00    -0.270 OA
ATOM     31  H   UNL     1      69.548  56.798  17.007  0.00  0.00    +0.155 HD
BRANCH  14  15
ATOM     15  C   UNL     1      69.200  59.242  17.808  0.00  0.00    +0.037 A 
ATOM     16  C   UNL     1      69.272  60.459  18.620  0.00  0.00    +0.013 A 
ATOM     17  C   UNL     1      69.900  61.644  18.094  0.00  0.00    +0.005 A 
ATOM     18  C   UNL     1      70.464  61.618  16.746  0.00  0.00    -0.033 A 
ATOM     28  C   UNL     1      70.383  60.395  15.963  0.00  0.00    +0.005 A 
ATOM     29  C   UNL     1      69.767  59.232  16.476  0.00  0.00    +0.013 A 
BRANCH  18  19
ATOM     19  C   UNL     1      71.134  62.842  16.095  0.00  0.00    +0.119 C 
BRANCH  19  20
ATOM     20  N   UNL     1      71.347  62.801  14.618  0.00  0.00    -0.302 NA
ATOM     21  C   UNL     1      72.657  63.478  14.207  0.00  0.00    +0.066 C 
ATOM     22  C   UNL     1      72.875  63.405  12.660  0.00  0.00    -0.064 C 
ATOM     23  N   UNL     1      71.685  64.052  11.950  0.00  0.00    +0.379 N 
ATOM     24  C   UNL     1      71.914  64.038  10.498  0.00  0.00    -0.096 C 
ATOM     25  H   UNL     1      71.637  65.118  12.274  0.00  0.00    -0.082 HD
ATOM     26  C   UNL     1      70.377  63.387  12.355  0.00  0.00    -0.064 C 
ATOM     27  C   UNL     1      70.185  63.439  13.896  0.00  0.00    +0.066 C 
ENDBRANCH  19  20
ENDBRANCH  18  19
ENDBRANCH  14  15
ENDBRANCH  12  13
TORSDOF 6
ENDMDL
MODEL 3
REMARK VINA RESULT:      -7.9      6.390      9.970
REMARK  Name = C:\Users\Docking\Desktop\test protocol\1iep_ligandH.pdb
REMARK  8 active torsions:
REMARK  status: ('A' for Active; 'I' for Inactive)
REMARK    1  A    between atoms: _5  and  _11
REMARK    2  A    between atoms: _19  and  _21
REMARK    3  A    between atoms: _22  and  _66
REMARK    4  A    between atoms: _27  and  _30
REMARK    5  A    between atoms: _32  and  _33
REMARK    6  A    between atoms: _38  and  _43
REMARK    7  A    between atoms: _43  and  _46
REMARK    8  A    between atoms: _53  and  _55
REMARK                            x       y       z     vdW  Elec       q    Type
REMARK                         _______ _______ _______ _____ _____    ______ ____
ROOT
ATOM     10  C   UNL     1      68.139  52.144  15.563  0.00  0.00    +0.038 A 
ATOM     11  C   UNL     1      67.750  52.155  16.926  0.00  0.00    +0.047 A 
ATOM     12  C   UNL     1      67.779  53.382  17.708  0.00  0.00    +0.035 A 
ATOM     32  C   UNL     1      68.208  54.581  17.067  0.00  0.00    +0.024 A 
ATOM     33  C   UNL     1      68.609  54.587  15.682  0.00  0.00    +0.007 A 
ATOM     34  C   UNL     1      68.584  53.380  14.907  0.00  0.00    -0.029 A 
ATOM     35  C   UNL     1      69.030  53.445  13.428  0.00  0.00    +0.045 C 
ENDROOT
BRANCH  10   9
ATOM      4  C   UNL     1      66.062  49.140  12.448  0.00  0.00    +0.077 A 
ATOM      5  C   UNL     1      64.967  50.038  12.221  0.00  0.00    +0.048 A 
ATOM      6  C   UNL     1      64.972  51.260  12.931  0.00  0.00    +0.116 A 
ATOM      7  N   UNL     1      66.001  51.551  13.800  0.00  0.00    -0.223 NA
ATOM      8  C   UNL     1      67.041  50.662  13.997  0.00  0.00    +0.220 A 
ATOM      9  N   UNL     1      68.091  50.938  14.860  0.00  0.00    -0.283 N 
ATOM     36  H   UNL     1      68.836  50.253  14.983  0.00  0.00    +0.155 HD
ATOM     37  N   UNL     1      67.059  49.489  13.332  0.00  0.00    -0.214 NA
BRANCH   4   3
ATOM      1  C   UNL     1      66.517  45.310  11.797  0.00  0.00    +0.020 A 
ATOM      2  C   UNL     1      66.389  46.566  12.500  0.00  0.00    +0.013 A 
ATOM      3  C   UNL     1      66.201  47.813  11.770  0.00  0.00    +0.019 A 
ATOM     38  C   UNL     1      66.146  47.754  10.317  0.00  0.00    +0.120 A 
ATOM     39  N   UNL     1      66.273  46.531   9.667  0.00  0.00    -0.263 NA
ATOM     40  C   UNL     1      66.456  45.325  10.359  0.00  0.00    +0.111 A 
ENDBRANCH   4   3
ENDBRANCH  10   9
BRANCH  12  13
ATOM     13  N   UNL     1      67.403  53.452  19.098  0.00  0.00    -0.281 N 
ATOM     14  C   UNL     1      67.738  52.575  20.116  0.00  0.00    +0.248 C 
ATOM     30  O   UNL     1      68.238  51.473  19.943  0.00  0.00    -0.270 OA
ATOM     31  H   UNL     1      66.820  54.246  19.364  0.00  0.00    +0.155 HD
BRANCH  14  15
ATOM     15  C   UNL     1      67.465  52.972  21.531  0.00  0.00    +0.037 A 
ATOM     16  C   UNL     1      68.298  52.482  22.632  0.00  0.00    +0.013 A 
ATOM     17  C   UNL     1      68.002  52.868  23.990  0.00  0.00    +0.005 A 
ATOM     18  C   UNL     1      66.867  53.750  24.252  0.00  0.00    -0.033 A 
ATOM     28  C   UNL     1      66.061  54.225  23.140  0.00  0.00    +0.005 A 
ATOM     29  C   UNL     1      66.347  53.849  21.809  0.00  0.00    +0.013 A 
BRANCH  18  19
ATOM     19  C   UNL     1      66.465  54.195  25.671  0.00  0.00    +0.119 C 
BRANCH  19  20
ATOM     20  N   UNL     1      65.083  54.730  25.854  0.00  0.00    -0.302 NA
ATOM     21  C   UNL     1      65.075  56.250  26.041  0.00  0.00    +0.066 C 
ATOM     22  C   UNL     1      63.619  56.795  26.208  0.00  0.00    -0.064 C 
ATOM     23  N   UNL     1      62.950  56.100  27.395  0.00  0.00    +0.379 N 
ATOM     24  C   UNL     1      61.602  56.652  27.590  0.00  0.00    -0.096 C 
ATOM     25  H   UNL     1      63.548  56.336  28.306  0.00  0.00    -0.082 HD
ATOM     26  C   UNL     1      62.956  54.588  27.218  0.00  0.00    -0.064 C 
ATOM     27  C   UNL     1      64.405  54.060  27.023  0.00  0.00    +0.066 C 
ENDBRANCH  19  20
ENDBRANCH  18  19
ENDBRANCH  14  15
ENDBRANCH  12  13
TORSDOF 6
ENDMDL
MODEL 4
REMARK VINA RESULT:      -7.9      2.092      2.869
REMARK  Name = C:\Users\Docking\Desktop\test protocol\1iep_ligandH.pdb
REMARK  8 active torsions:
REMARK  status: ('A' for Active; 'I' for Inactive)
REMARK    1  A    between atoms: _5  and  _11
REMARK    2  A    between atoms: _19  and  _21
REMARK    3  A    between atoms: _22  and  _66
REMARK    4  A    between atoms: _27  and  _30
REMARK    5  A    between atoms: _32  and  _33
REMARK    6  A    between atoms: _38  and  _43
REMARK    7  A    between atoms: _43  and  _46
REMARK    8  A    between atoms: _53  and  _55
REMARK                            x       y       z     vdW  Elec       q    Type
REMARK                         _______ _______ _______ _____ _____    ______ ____
ROOT
ATOM     10  C   UNL     1      68.089  52.962  17.404  0.00  0.00    +0.038 A 
ATOM     11  C   UNL     1      68.581  54.185  16.884  0.00  0.00    +0.047 A 
ATOM     12  C   UNL     1      68.693  55.369  17.722  0.00  0.00    +0.035 A 
ATOM     32  C   UNL     1      68.296  55.270  19.087  0.00  0.00    +0.024 A 
ATOM     33  C   UNL     1      67.792  54.034  19.633  0.00  0.00    +0.007 A 
ATOM     34  C   UNL     1      67.677  52.864  18.810  0.00  0.00    -0.029 A 
ATOM     35  C   UNL     1      67.124  51.568  19.446  0.00  0.00    +0.045 C 
ENDROOT
BRANCH  10   9
ATOM      4  C   UNL     1      66.818  50.896  13.262  0.00  0.00    +0.077 A 
ATOM      5  C   UNL     1      66.254  52.115  12.759  0.00  0.00    +0.048 A 
ATOM      6  C   UNL     1      66.305  53.249  13.600  0.00  0.00    +0.116 A 
ATOM      7  N   UNL     1      66.879  53.160  14.849  0.00  0.00    -0.223 NA
ATOM      8  C   UNL     1      67.413  51.968  15.305  0.00  0.00    +0.220 A 
ATOM      9  N   UNL     1      68.002  51.856  16.554  0.00  0.00    -0.283 N 
ATOM     36  H   UNL     1      68.378  50.958  16.857  0.00  0.00    +0.155 HD
ATOM     37  N   UNL     1      67.375  50.870  14.521  0.00  0.00    -0.214 NA
BRANCH   4   3
ATOM      1  C   UNL     1      66.520  48.264  10.383  0.00  0.00    +0.020 A 
ATOM      2  C   UNL     1      66.478  49.528  11.082  0.00  0.00    +0.013 A 
ATOM      3  C   UNL     1      66.844  49.613  12.491  0.00  0.00    +0.019 A 
ATOM     38  C   UNL     1      67.251  48.391  13.168  0.00  0.00    +0.120 A 
ATOM     39  N   UNL     1      67.281  47.188  12.469  0.00  0.00    -0.263 NA
ATOM     40  C   UNL     1      66.930  47.094  11.114  0.00  0.00    +0.111 A 
ENDBRANCH   4   3
ENDBRANCH  10   9
BRANCH  12  13
ATOM     13  N   UNL     1      69.179  56.641  17.247  0.00  0.00    -0.281 N 
ATOM     14  C   UNL     1      70.449  56.951  16.790  0.00  0.00    +0.248 C 
ATOM     30  O   UNL     1      71.426  56.228  16.921  0.00  0.00    -0.270 OA
ATOM     31  H   UNL     1      68.504  57.406  17.248  0.00  0.00    +0.155 HD
BRANCH  14  15
ATOM     15  C   UNL     1      70.669  58.258  16.099  0.00  0.00    +0.037 A 
ATOM     16  C   UNL     1      71.692  58.406  15.061  0.00  0.00    +0.013 A 
ATOM     17  C   UNL     1      71.896  59.683  14.423  0.00  0.00    +0.005 A 
ATOM     18  C   UNL     1      71.072  60.822  14.822  0.00  0.00    -0.033 A 
ATOM     28  C   UNL     1      70.061  60.645  15.851  0.00  0.00    +0.005 A 
ATOM     29  C   UNL     1      69.859  59.396  16.479  0.00  0.00    +0.013 A 
BRANCH  18  19
ATOM     19  C   UNL     1      71.234  62.226  14.210  0.00  0.00    +0.119 C 
BRANCH  19  20
ATOM     20  N   UNL     1      71.816  62.310  12.837  0.00  0.00    -0.302 NA
ATOM     21  C   UNL     1      73.052  63.213  12.791  0.00  0.00    +0.066 C 
ATOM     22  C   UNL     1      73.661  63.272  11.352  0.00  0.00    -0.064 C 
ATOM     23  N   UNL     1      72.595  63.763  10.371  0.00  0.00    +0.379 N 
ATOM     24  C   UNL     1      73.181  63.875   9.027  0.00  0.00    -0.096 C 
ATOM     25  H   UNL     1      72.286  64.785  10.691  0.00  0.00    -0.082 HD
ATOM     26  C   UNL     1      71.361  62.873  10.411  0.00  0.00    -0.064 C 
ATOM     27  C   UNL     1      70.782  62.798  11.852  0.00  0.00    +0.066 C 
ENDBRANCH  19  20
ENDBRANCH  18  19
ENDBRANCH  14  15
ENDBRANCH  12  13
TORSDOF 6
ENDMDL
MODEL 5
REMARK VINA RESULT:      -7.9      5.782     13.054
REMARK  Name = C:\Users\Docking\Desktop\test protocol\1iep_ligandH.pdb
REMARK  8 active torsions:
REMARK  status: ('A' for Active; 'I' for Inactive)
REMARK    1  A    between atoms: _5  and  _11
REMARK    2  A    between atoms: _19  and  _21
REMARK    3  A    between atoms: _22  and  _66
REMARK    4  A    between atoms: _27  and  _30
REMARK    5  A    between atoms: _32  and  _33
REMARK    6  A    between atoms: _38  and  _43
REMARK    7  A    between atoms: _43  and  _46
REMARK    8  A    between atoms: _53  and  _55
REMARK                            x       y       z     vdW  Elec       q    Type
REMARK                         _______ _______ _______ _____ _____    ______ ____
ROOT
ATOM     10  C   UNL     1      68.342  53.569  16.602  0.00  0.00    +0.038 A 
ATOM     11  C   UNL     1      67.860  52.436  15.898  0.00  0.00    +0.047 A 
ATOM     12  C   UNL     1      67.362  52.551  14.536  0.00  0.00    +0.035 A 
ATOM     32  C   UNL     1      67.371  53.836  13.920  0.00  0.00    +0.024 A 
ATOM     33  C   UNL     1      67.856  55.000  14.621  0.00  0.00    +0.007 A 
ATOM     34  C   UNL     1      68.346  54.892  15.966  0.00  0.00    -0.029 A 
ATOM     35  C   UNL     1      68.848  56.174  16.671  0.00  0.00    +0.045 C 
ENDROOT
BRANCH  10   9
ATOM      4  C   UNL     1      67.715  53.618  21.360  0.00  0.00    +0.077 A 
ATOM      5  C   UNL     1      66.349  54.041  21.236  0.00  0.00    +0.048 A 
ATOM      6  C   UNL     1      65.849  54.241  19.929  0.00  0.00    +0.116 A 
ATOM      7  N   UNL     1      66.662  54.031  18.837  0.00  0.00    -0.223 NA
ATOM      8  C   UNL     1      67.975  53.626  18.992  0.00  0.00    +0.220 A 
ATOM      9  N   UNL     1      68.808  53.401  17.908  0.00  0.00    -0.283 N 
ATOM     36  H   UNL     1      69.773  53.110  18.064  0.00  0.00    +0.155 HD
ATOM     37  N   UNL     1      68.477  53.429  20.229  0.00  0.00    -0.214 NA
BRANCH   4   3
ATOM      1  C   UNL     1      69.521  54.128  24.792  0.00  0.00    +0.020 A 
ATOM      2  C   UNL     1      68.879  54.430  23.533  0.00  0.00    +0.013 A 
ATOM      3  C   UNL     1      68.387  53.362  22.673  0.00  0.00    +0.019 A 
ATOM     38  C   UNL     1      68.561  51.988  23.120  0.00  0.00    +0.120 A 
ATOM     39  N   UNL     1      69.184  51.727  24.336  0.00  0.00    -0.263 NA
ATOM     40  C   UNL     1      69.663  52.747  25.171  0.00  0.00    +0.111 A 
ENDBRANCH   4   3
ENDBRANCH  10   9
BRANCH  12  13
ATOM     13  N   UNL     1      66.854  51.437  13.775  0.00  0.00    -0.281 N 
ATOM     14  C   UNL     1      66.726  51.333  12.400  0.00  0.00    +0.248 C 
ATOM     30  O   UNL     1      66.832  52.270  11.623  0.00  0.00    -0.270 OA
ATOM     31  H   UNL     1      66.551  50.627  14.316  0.00  0.00    +0.155 HD
BRANCH  14  15
ATOM     15  C   UNL     1      66.423  49.997  11.802  0.00  0.00    +0.037 A 
ATOM     16  C   UNL     1      65.057  49.469  11.775  0.00  0.00    +0.013 A 
ATOM     17  C   UNL     1      64.794  48.170  11.208  0.00  0.00    +0.005 A 
ATOM     18  C   UNL     1      65.902  47.391  10.661  0.00  0.00    -0.033 A 
ATOM     28  C   UNL     1      67.247  47.941  10.695  0.00  0.00    +0.005 A 
ATOM     29  C   UNL     1      67.508  49.213  11.252  0.00  0.00    +0.013 A 
BRANCH  18  19
ATOM     19  C   UNL     1      65.718  45.987  10.055  0.00  0.00    +0.119 C 
BRANCH  19  20
ATOM     20  N   UNL     1      65.190  45.908   8.660  0.00  0.00    -0.302 NA
ATOM     21  C   UNL     1      65.896  46.891   7.722  0.00  0.00    +0.066 C 
ATOM     22  C   UNL     1      65.347  46.779   6.263  0.00  0.00    -0.064 C 
ATOM     23  N   UNL     1      63.837  47.024   6.268  0.00  0.00    +0.379 N 
ATOM     24  C   UNL     1      63.327  46.977   4.890  0.00  0.00    -0.096 C 
ATOM     25  H   UNL     1      63.663  48.054   6.658  0.00  0.00    -0.082 HD
ATOM     26  C   UNL     1      63.128  46.052   7.200  0.00  0.00    -0.064 C 
ATOM     27  C   UNL     1      63.701  46.151   8.642  0.00  0.00    +0.066 C 
ENDBRANCH  19  20
ENDBRANCH  18  19
ENDBRANCH  14  15
ENDBRANCH  12  13
TORSDOF 6
ENDMDL
