MODEL 1
REMARK VINA RESULT:      -8.0      0.000      0.000
REMARK  Name = C:\Users\Docking\Desktop\test protocol\1iep_ligandH.pdb
REMARK  8 active torsions:
REMARK  status: ('A' for Active; 'I' for Inactive)
REMARK    1  A    between atoms: _5  and  _11
REMARK    2  A    between atoms: _19  and  _21
REMARK    3  A    between atoms: _22  and  _66
REMARK    4  A    between atoms: _27  and  _30
REMARK    5  A    between atoms: _32  and  _33
REMARK    6  A    between atoms: _38  and  _43
REMARK    7  A    between atoms: _43  and  _46
REMARK    8  A    between atoms: _53  and  _55
REMARK                            x       y       z     vdW  Elec       q    Type
REMARK                         _______ _______ _______ _____ _____    ______ ____
ROOT
ATOM     10  C   UNL     1      71.324  56.154  13.955  0.00  0.00    +0.038 A 
ATOM     11  C   UNL     1      71.233  57.523  13.594  0.00  0.00    +0.047 A 
ATOM     12  C   UNL     1      72.063  58.528  14.238  0.00  0.00    +0.035 A 
ATOM     32  C   UNL     1      72.978  58.105  15.246  0.00  0.00    +0.024 A 
ATOM     33  C   UNL     1      73.083  56.718  15.626  0.00  0.00    +0.007 A 
ATOM     34  C   UNL     1      72.265  55.722  14.996  0.00  0.00    -0.029 A 
ATOM     35  C   UNL     1      72.416  54.251  15.449  0.00  0.00    +0.045 C 
ENDROOT
BRANCH  10   9
ATOM      4  C   UNL     1      67.246  53.654  13.562  0.00  0.00    +0.077 A 
ATOM      5  C   UNL     1      66.716  54.215  14.772  0.00  0.00    +0.048 A 
ATOM      6  C   UNL     1      67.528  55.138  15.469  0.00  0.00    +0.116 A 
ATOM      7  N   UNL     1      68.775  55.468  14.983  0.00  0.00    -0.223 NA
ATOM      8  C   UNL     1      69.256  54.907  13.814  0.00  0.00    +0.220 A 
ATOM      9  N   UNL     1      70.504  55.231  13.304  0.00  0.00    -0.283 N 
ATOM     36  H   UNL     1      70.826  54.790  12.442  0.00  0.00    +0.155 HD
ATOM     37  N   UNL     1      68.501  54.023  13.131  0.00  0.00    -0.214 NA
BRANCH   4   3
ATOM      1  C   UNL     1      64.596  51.079  12.278  0.00  0.00    +0.020 A 
ATOM      2  C   UNL     1      65.271  52.024  13.138  0.00  0.00    +0.013 A 
ATOM      3  C   UNL     1      66.507  52.668  12.712  0.00  0.00    +0.019 A 
ATOM     38  C   UNL     1      67.038  52.332  11.399  0.00  0.00    +0.120 A 
ATOM     39  N   UNL     1      66.367  51.418  10.593  0.00  0.00    -0.263 NA
ATOM     40  C   UNL     1      65.178  50.790  10.994  0.00  0.00    +0.111 A 
ENDBRANCH   4   3
ENDBRANCH  10   9
BRANCH  12  13
ATOM     13  N   UNL     1      72.008  59.933  13.918  0.00  0.00    -0.281 N 
ATOM     14  C   UNL     1      71.390  60.946  14.633  0.00  0.00    +0.248 C 
ATOM     30  O   UNL     1      70.604  60.764  15.551  0.00  0.00    -0.270 OA
ATOM     31  H   UNL     1      72.482  60.216  13.060  0.00  0.00    +0.155 HD
BRANCH  14  15
ATOM     15  C   UNL     1      71.675  62.367  14.266  0.00  0.00    +0.037 A 
ATOM     16  C   UNL     1      70.729  63.149  13.466  0.00  0.00    +0.013 A 
ATOM     17  C   UNL     1      71.037  64.512  13.112  0.00  0.00    +0.005 A 
ATOM     18  C   UNL     1      72.296  65.102  13.560  0.00  0.00    -0.033 A 
ATOM     28  C   UNL     1      73.214  64.305  14.357  0.00  0.00    +0.005 A 
ATOM     29  C   UNL     1      72.916  62.968  14.705  0.00  0.00    +0.013 A 
BRANCH  18  19
ATOM     19  C   UNL     1      72.716  66.542  13.211  0.00  0.00    +0.119 C 
BRANCH  19  20
ATOM     20  N   UNL     1      73.689  67.212  14.125  0.00  0.00    -0.302 NA
ATOM     21  C   UNL     1      73.079  68.434  14.817  0.00  0.00    +0.066 C 
ATOM     22  C   UNL     1      74.103  69.109  15.786  0.00  0.00    -0.064 C 
ATOM     23  N   UNL     1      75.360  69.498  15.006  0.00  0.00    +0.379 N 
ATOM     24  C   UNL     1      76.301  70.185  15.903  0.00  0.00    -0.096 C 
ATOM     25  H   UNL     1      75.056  70.223  14.215  0.00  0.00    -0.082 HD
ATOM     26  C   UNL     1      75.971  68.289  14.313  0.00  0.00    -0.064 C 
ATOM     27  C   UNL     1      74.936  67.608  13.374  0.00  0.00    +0.066 C 
ENDBRANCH  19  20
ENDBRANCH  18  19
ENDBRANCH  14  15
ENDBRANCH  12  13
TORSDOF 6
ENDMDL
MODEL 2
REMARK VINA RESULT:      -7.8     14.814     17.940
REMARK  Name = C:\Users\Docking\Desktop\test protocol\1iep_ligandH.pdb
REMARK  8 active torsions:
REMARK  status: ('A' for Active; 'I' for Inactive)
REMARK    1  A    between atoms: _5  and  _11
REMARK    2  A    between atoms: _19  and  _21
REMARK    3  A    between atoms: _22  and  _66
REMARK    4  A    between atoms: _27  and  _30
REMARK    5  A    between atoms: _32  and  _33
REMARK    6  A    between atoms: _38  and  _43
REMARK    7  A    between atoms: _43  and  _46
REMARK    8  A    between atoms: _53  and  _55
REMARK                            x       y       z     vdW  Elec       q    Type
REMARK                         _______ _______ _______ _____ _____    ______ ____
ROOT
ATOM     10  C   UNL     1      63.973  68.797   1.388  0.00  0.00    +0.038 A 
ATOM     11  C   UNL     1      65.348  69.011   1.662  0.00  0.00    +0.047 A 
ATOM     12  C   UNL     1      65.795  69.438   2.979  0.00  0.00    +0.035 A 
ATOM     32  C   UNL     1      64.814  69.636   3.994  0.00  0.00    +0.024 A 
ATOM     33  C   UNL     1      63.412  69.424   3.732  0.00  0.00    +0.007 A 
ATOM     34  C   UNL     1      62.965  69.005   2.434  0.00  0.00    -0.029 A 
ATOM     35  C   UNL     1      61.449  68.799   2.208  0.00  0.00    +0.045 C 
ENDROOT
BRANCH  10   9
ATOM      4  C   UNL     1      62.470  69.708  -3.078  0.00  0.00    +0.077 A 
ATOM      5  C   UNL     1      62.396  71.119  -2.829  0.00  0.00    +0.048 A 
ATOM      6  C   UNL     1      62.746  71.569  -1.536  0.00  0.00    +0.116 A 
ATOM      7  N   UNL     1      63.140  70.666  -0.572  0.00  0.00    -0.223 NA
ATOM      8  C   UNL     1      63.199  69.311  -0.846  0.00  0.00    +0.220 A 
ATOM      9  N   UNL     1      63.600  68.386   0.106  0.00  0.00    -0.283 N 
ATOM     36  H   UNL     1      63.624  67.395  -0.133  0.00  0.00    +0.155 HD
ATOM     37  N   UNL     1      62.868  68.857  -2.072  0.00  0.00    -0.214 NA
BRANCH   4   3
ATOM      1  C   UNL     1      61.350  69.191  -6.790  0.00  0.00    +0.020 A 
ATOM      2  C   UNL     1      61.660  69.846  -5.540  0.00  0.00    +0.013 A 
ATOM      3  C   UNL     1      62.135  69.080  -4.395  0.00  0.00    +0.019 A 
ATOM     38  C   UNL     1      62.289  67.642  -4.550  0.00  0.00    +0.120 A 
ATOM     39  N   UNL     1      61.982  67.038  -5.765  0.00  0.00    -0.263 NA
ATOM     40  C   UNL     1      61.522  67.765  -6.873  0.00  0.00    +0.111 A 
ENDBRANCH   4   3
ENDBRANCH  10   9
BRANCH  12  13
ATOM     13  N   UNL     1      67.176  69.679   3.314  0.00  0.00    -0.281 N 
ATOM     14  C   UNL     1      67.897  69.163   4.379  0.00  0.00    +0.248 C 
ATOM     30  O   UNL     1      67.400  68.581   5.332  0.00  0.00    -0.270 OA
ATOM     31  H   UNL     1      67.685  70.306   2.691  0.00  0.00    +0.155 HD
BRANCH  14  15
ATOM     15  C   UNL     1      69.382  69.331   4.395  0.00  0.00    +0.037 A 
ATOM     16  C   UNL     1      70.059  70.201   3.430  0.00  0.00    +0.013 A 
ATOM     17  C   UNL     1      71.494  70.332   3.456  0.00  0.00    +0.005 A 
ATOM     18  C   UNL     1      72.262  69.591   4.454  0.00  0.00    -0.033 A 
ATOM     28  C   UNL     1      71.565  68.740   5.404  0.00  0.00    +0.005 A 
ATOM     29  C   UNL     1      70.158  68.609   5.380  0.00  0.00    +0.013 A 
BRANCH  18  19
ATOM     19  C   UNL     1      73.799  69.655   4.543  0.00  0.00    +0.119 C 
BRANCH  19  20
ATOM     20  N   UNL     1      74.390  70.676   5.458  0.00  0.00    -0.302 NA
ATOM     21  C   UNL     1      74.298  72.090   4.876  0.00  0.00    +0.066 C 
ATOM     22  C   UNL     1      74.901  73.149   5.856  0.00  0.00    -0.064 C 
ATOM     23  N   UNL     1      76.353  72.784   6.166  0.00  0.00    +0.379 N 
ATOM     24  C   UNL     1      76.940  73.809   7.042  0.00  0.00    -0.096 C 
ATOM     25  H   UNL     1      76.918  72.796   5.205  0.00  0.00    -0.082 HD
ATOM     26  C   UNL     1      76.453  71.379   6.743  0.00  0.00    -0.064 C 
ATOM     27  C   UNL     1      75.826  70.338   5.774  0.00  0.00    +0.066 C 
ENDBRANCH  19  20
ENDBRANCH  18  19
ENDBRANCH  14  15
ENDBRANCH  12  13
TORSDOF 6
ENDMDL
MODEL 3
REMARK VINA RESULT:      -7.7      8.788     12.088
REMARK  Name = C:\Users\Docking\Desktop\test protocol\1iep_ligandH.pdb
REMARK  8 active torsions:
REMARK  status: ('A' for Active; 'I' for Inactive)
REMARK    1  A    between atoms: _5  and  _11
REMARK    2  A    between atoms: _19  and  _21
REMARK    3  A    between atoms: _22  and  _66
REMARK    4  A    between atoms: _27  and  _30
REMARK    5  A    between atoms: _32  and  _33
REMARK    6  A    between atoms: _38  and  _43
REMARK    7  A    between atoms: _43  and  _46
REMARK    8  A    between atoms: _53  and  _55
REMARK                            x       y       z     vdW  Elec       q    Type
REMARK                         _______ _______ _______ _____ _____    ______ ____
ROOT
ATOM     10  C   UNL     1      67.891  52.796  15.281  0.00  0.00    +0.038 A 
ATOM     11  C   UNL     1      67.557  52.689  16.655  0.00  0.00    +0.047 A 
ATOM     12  C   UNL     1      67.535  53.860  17.518  0.00  0.00    +0.035 A 
ATOM     32  C   UNL     1      67.855  55.126  16.947  0.00  0.00    +0.024 A 
ATOM     33  C   UNL     1      68.197  55.253  15.552  0.00  0.00    +0.007 A 
ATOM     34  C   UNL     1      68.223  54.101  14.697  0.00  0.00    -0.029 A 
ATOM     35  C   UNL     1      68.604  54.296  13.211  0.00  0.00    +0.045 C 
ENDROOT
BRANCH  10   9
ATOM      4  C   UNL     1      65.946  49.915  11.972  0.00  0.00    +0.077 A 
ATOM      5  C   UNL     1      64.809  50.774  11.806  0.00  0.00    +0.048 A 
ATOM      6  C   UNL     1      64.759  51.944  12.597  0.00  0.00    +0.116 A 
ATOM      7  N   UNL     1      65.777  52.224  13.483  0.00  0.00    -0.223 NA
ATOM      8  C   UNL     1      66.858  51.373  13.619  0.00  0.00    +0.220 A 
ATOM      9  N   UNL     1      67.896  51.639  14.499  0.00  0.00    -0.283 N 
ATOM     36  H   UNL     1      68.673  50.983  14.575  0.00  0.00    +0.155 HD
ATOM     37  N   UNL     1      66.928  50.249  12.877  0.00  0.00    -0.214 NA
BRANCH   4   3
ATOM      1  C   UNL     1      66.364  47.339   9.058  0.00  0.00    +0.020 A 
ATOM      2  C   UNL     1      66.169  48.593   9.749  0.00  0.00    +0.013 A 
ATOM      3  C   UNL     1      66.144  48.644  11.205  0.00  0.00    +0.019 A 
ATOM     38  C   UNL     1      66.322  47.399  11.938  0.00  0.00    +0.120 A 
ATOM     39  N   UNL     1      66.506  46.207  11.245  0.00  0.00    -0.263 NA
ATOM     40  C   UNL     1      66.530  46.145   9.844  0.00  0.00    +0.111 A 
ENDBRANCH   4   3
ENDBRANCH  10   9
BRANCH  12  13
ATOM     13  N   UNL     1      67.212  53.811  18.923  0.00  0.00    -0.281 N 
ATOM     14  C   UNL     1      67.905  53.166  19.934  0.00  0.00    +0.248 C 
ATOM     30  O   UNL     1      68.796  52.351  19.750  0.00  0.00    -0.270 OA
ATOM     31  H   UNL     1      66.370  54.313  19.205  0.00  0.00    +0.155 HD
BRANCH  14  15
ATOM     15  C   UNL     1      67.546  53.458  21.355  0.00  0.00    +0.037 A 
ATOM     16  C   UNL     1      68.308  52.881  22.465  0.00  0.00    +0.013 A 
ATOM     17  C   UNL     1      67.930  53.166  23.827  0.00  0.00    +0.005 A 
ATOM     18  C   UNL     1      66.784  54.034  24.086  0.00  0.00    -0.033 A 
ATOM     28  C   UNL     1      66.049  54.597  22.965  0.00  0.00    +0.005 A 
ATOM     29  C   UNL     1      66.416  54.320  21.629  0.00  0.00    +0.013 A 
BRANCH  18  19
ATOM     19  C   UNL     1      66.296  54.375  25.506  0.00  0.00    +0.119 C 
BRANCH  19  20
ATOM     20  N   UNL     1      64.936  54.976  25.637  0.00  0.00    -0.302 NA
ATOM     21  C   UNL     1      64.995  56.492  25.845  0.00  0.00    +0.066 C 
ATOM     22  C   UNL     1      63.562  57.107  25.957  0.00  0.00    -0.064 C 
ATOM     23  N   UNL     1      62.808  56.432  27.104  0.00  0.00    +0.379 N 
ATOM     24  C   UNL     1      61.481  57.049  27.249  0.00  0.00    -0.096 C 
ATOM     25  H   UNL     1      63.376  56.627  28.043  0.00  0.00    -0.082 HD
ATOM     26  C   UNL     1      62.747  54.924  26.905  0.00  0.00    -0.064 C 
ATOM     27  C   UNL     1      64.175  54.326  26.766  0.00  0.00    +0.066 C 
ENDBRANCH  19  20
ENDBRANCH  18  19
ENDBRANCH  14  15
ENDBRANCH  12  13
TORSDOF 6
ENDMDL
MODEL 4
REMARK VINA RESULT:      -7.7      8.724     12.596
REMARK  Name = C:\Users\Docking\Desktop\test protocol\1iep_ligandH.pdb
REMARK  8 active torsions:
REMARK  status: ('A' for Active; 'I' for Inactive)
REMARK    1  A    between atoms: _5  and  _11
REMARK    2  A    between atoms: _19  and  _21
REMARK    3  A    between atoms: _22  and  _66
REMARK    4  A    between atoms: _27  and  _30
REMARK    5  A    between atoms: _32  and  _33
REMARK    6  A    between atoms: _38  and  _43
REMARK    7  A    between atoms: _43  and  _46
REMARK    8  A    between atoms: _53  and  _55
REMARK                            x       y       z     vdW  Elec       q    Type
REMARK                         _______ _______ _______ _____ _____    ______ ____
ROOT
ATOM     10  C   UNL     1      68.020  52.801  15.248  0.00  0.00    +0.038 A 
ATOM     11  C   UNL     1      67.622  52.683  16.604  0.00  0.00    +0.047 A 
ATOM     12  C   UNL     1      67.616  53.836  17.490  0.00  0.00    +0.035 A 
ATOM     32  C   UNL     1      68.019  55.097  16.961  0.00  0.00    +0.024 A 
ATOM     33  C   UNL     1      68.428  55.235  15.585  0.00  0.00    +0.007 A 
ATOM     34  C   UNL     1      68.438  54.100  14.707  0.00  0.00    -0.029 A 
ATOM     35  C   UNL     1      68.892  54.306  13.243  0.00  0.00    +0.045 C 
ENDROOT
BRANCH  10   9
ATOM      4  C   UNL     1      65.998  49.992  11.922  0.00  0.00    +0.077 A 
ATOM      5  C   UNL     1      64.859  50.856  11.800  0.00  0.00    +0.048 A 
ATOM      6  C   UNL     1      64.829  52.009  12.616  0.00  0.00    +0.116 A 
ATOM      7  N   UNL     1      65.866  52.269  13.485  0.00  0.00    -0.223 NA
ATOM      8  C   UNL     1      66.949  51.415  13.580  0.00  0.00    +0.220 A 
ATOM      9  N   UNL     1      68.006  51.661  14.442  0.00  0.00    -0.283 N 
ATOM     36  H   UNL     1      68.783  51.002  14.488  0.00  0.00    +0.155 HD
ATOM     37  N   UNL     1      67.001  50.306  12.813  0.00  0.00    -0.214 NA
BRANCH   4   3
ATOM      1  C   UNL     1      66.403  47.485   8.947  0.00  0.00    +0.020 A 
ATOM      2  C   UNL     1      66.228  48.724   9.669  0.00  0.00    +0.013 A 
ATOM      3  C   UNL     1      66.177  48.737  11.125  0.00  0.00    +0.019 A 
ATOM     38  C   UNL     1      66.308  47.469  11.827  0.00  0.00    +0.120 A 
ATOM     39  N   UNL     1      66.474  46.291  11.106  0.00  0.00    -0.263 NA
ATOM     40  C   UNL     1      66.523  46.266   9.704  0.00  0.00    +0.111 A 
ENDBRANCH   4   3
ENDBRANCH  10   9
BRANCH  12  13
ATOM     13  N   UNL     1      67.229  53.775  18.878  0.00  0.00    -0.281 N 
ATOM     14  C   UNL     1      67.976  53.317  19.951  0.00  0.00    +0.248 C 
ATOM     30  O   UNL     1      69.020  52.689  19.848  0.00  0.00    -0.270 OA
ATOM     31  H   UNL     1      66.290  54.109  19.096  0.00  0.00    +0.155 HD
BRANCH  14  15
ATOM     15  C   UNL     1      67.487  53.584  21.338  0.00  0.00    +0.037 A 
ATOM     16  C   UNL     1      66.267  54.359  21.577  0.00  0.00    +0.013 A 
ATOM     17  C   UNL     1      65.827  54.616  22.926  0.00  0.00    +0.005 A 
ATOM     18  C   UNL     1      66.607  54.095  24.045  0.00  0.00    -0.033 A 
ATOM     28  C   UNL     1      67.810  53.324  23.779  0.00  0.00    +0.005 A 
ATOM     29  C   UNL     1      68.246  53.072  22.459  0.00  0.00    +0.013 A 
BRANCH  18  19
ATOM     19  C   UNL     1      66.223  54.339  25.517  0.00  0.00    +0.119 C 
BRANCH  19  20
ATOM     20  N   UNL     1      64.789  54.156  25.889  0.00  0.00    -0.302 NA
ATOM     21  C   UNL     1      64.296  55.253  26.837  0.00  0.00    +0.066 C 
ATOM     22  C   UNL     1      62.788  55.059  27.197  0.00  0.00    -0.064 C 
ATOM     23  N   UNL     1      62.589  53.676  27.820  0.00  0.00    +0.379 N 
ATOM     24  C   UNL     1      61.182  53.513  28.214  0.00  0.00    -0.096 C 
ATOM     25  H   UNL     1      63.207  53.631  28.747  0.00  0.00    -0.082 HD
ATOM     26  C   UNL     1      63.078  52.579  26.886  0.00  0.00    -0.064 C 
ATOM     27  C   UNL     1      64.570  52.798  26.510  0.00  0.00    +0.066 C 
ENDBRANCH  19  20
ENDBRANCH  18  19
ENDBRANCH  14  15
ENDBRANCH  12  13
TORSDOF 6
ENDMDL
MODEL 5
REMARK VINA RESULT:      -7.7      8.548     13.863
REMARK  Name = C:\Users\Docking\Desktop\test protocol\1iep_ligandH.pdb
REMARK  8 active torsions:
REMARK  status: ('A' for Active; 'I' for Inactive)
REMARK    1  A    between atoms: _5  and  _11
REMARK    2  A    between atoms: _19  and  _21
REMARK    3  A    between atoms: _22  and  _66
REMARK    4  A    between atoms: _27  and  _30
REMARK    5  A    between atoms: _32  and  _33
REMARK    6  A    between atoms: _38  and  _43
REMARK    7  A    between atoms: _43  and  _46
REMARK    8  A    between atoms: _53  and  _55
REMARK                            x       y       z     vdW  Elec       q    Type
REMARK                         _______ _______ _______ _____ _____    ______ ____
ROOT
ATOM     10  C   UNL     1      68.347  55.601  22.403  0.00  0.00    +0.038 A 
ATOM     11  C   UNL     1      68.009  55.211  21.082  0.00  0.00    +0.047 A 
ATOM     12  C   UNL     1      68.864  55.549  19.955  0.00  0.00    +0.035 A 
ATOM     32  C   UNL     1      70.058  56.284  20.210  0.00  0.00    +0.024 A 
ATOM     33  C   UNL     1      70.417  56.689  21.546  0.00  0.00    +0.007 A 
ATOM     34  C   UNL     1      69.576  56.361  22.661  0.00  0.00    -0.029 A 
ATOM     35  C   UNL     1      70.007  56.827  24.071  0.00  0.00    +0.045 C 
ENDROOT
BRANCH  10   9
ATOM      4  C   UNL     1      66.800  52.542  25.762  0.00  0.00    +0.077 A 
ATOM      5  C   UNL     1      67.765  51.549  25.386  0.00  0.00    +0.048 A 
ATOM      6  C   UNL     1      68.636  51.862  24.318  0.00  0.00    +0.116 A 
ATOM      7  N   UNL     1      68.541  53.080  23.682  0.00  0.00    -0.223 NA
ATOM      8  C   UNL     1      67.598  54.015  24.068  0.00  0.00    +0.220 A 
ATOM      9  N   UNL     1      67.489  55.250  23.447  0.00  0.00    -0.283 N 
ATOM     36  H   UNL     1      66.775  55.909  23.757  0.00  0.00    +0.155 HD
ATOM     37  N   UNL     1      66.753  53.739  25.084  0.00  0.00    -0.214 NA
BRANCH   4   3
ATOM      1  C   UNL     1      63.463  52.114  27.757  0.00  0.00    +0.020 A 
ATOM      2  C   UNL     1      64.374  52.291  26.650  0.00  0.00    +0.013 A 
ATOM      3  C   UNL     1      65.813  52.360  26.872  0.00  0.00    +0.019 A 
ATOM     38  C   UNL     1      66.301  52.246  28.238  0.00  0.00    +0.120 A 
ATOM     39  N   UNL     1      65.400  52.078  29.285  0.00  0.00    -0.263 NA
ATOM     40  C   UNL     1      64.013  52.012  29.083  0.00  0.00    +0.111 A 
ENDBRANCH   4   3
ENDBRANCH  10   9
BRANCH  12  13
ATOM     13  N   UNL     1      68.568  55.187  18.591  0.00  0.00    -0.281 N 
ATOM     14  C   UNL     1      68.290  53.928  18.085  0.00  0.00    +0.248 C 
ATOM     30  O   UNL     1      68.466  52.884  18.696  0.00  0.00    -0.270 OA
ATOM     31  H   UNL     1      68.562  55.952  17.916  0.00  0.00    +0.155 HD
BRANCH  14  15
ATOM     15  C   UNL     1      67.754  53.810  16.695  0.00  0.00    +0.037 A 
ATOM     16  C   UNL     1      67.479  54.998  15.883  0.00  0.00    +0.013 A 
ATOM     17  C   UNL     1      66.946  54.857  14.551  0.00  0.00    +0.005 A 
ATOM     18  C   UNL     1      66.687  53.520  14.022  0.00  0.00    -0.033 A 
ATOM     28  C   UNL     1      66.974  52.358  14.847  0.00  0.00    +0.005 A 
ATOM     29  C   UNL     1      67.496  52.493  16.153  0.00  0.00    +0.013 A 
BRANCH  18  19
ATOM     19  C   UNL     1      66.099  53.275  12.619  0.00  0.00    +0.119 C 
BRANCH  19  20
ATOM     20  N   UNL     1      65.996  51.859  12.159  0.00  0.00    -0.302 NA
ATOM     21  C   UNL     1      66.921  51.572  10.972  0.00  0.00    +0.066 C 
ATOM     22  C   UNL     1      66.817  50.079  10.518  0.00  0.00    -0.064 C 
ATOM     23  N   UNL     1      65.364  49.757  10.163  0.00  0.00    +0.379 N 
ATOM     24  C   UNL     1      65.273  48.371   9.680  0.00  0.00    -0.096 C 
ATOM     25  H   UNL     1      65.065  50.428   9.325  0.00  0.00    -0.082 HD
ATOM     26  C   UNL     1      64.438  50.042  11.336  0.00  0.00    -0.064 C 
ATOM     27  C   UNL     1      64.570  51.520  11.799  0.00  0.00    +0.066 C 
ENDBRANCH  19  20
ENDBRANCH  18  19
ENDBRANCH  14  15
ENDBRANCH  12  13
TORSDOF 6
ENDMDL
