MODEL 1
REMARK VINA RESULT:      -7.8      0.000      0.000
REMARK  Name = C:\Users\Docking\Desktop\test protocol\1iep_ligandH.pdb
REMARK  8 active torsions:
REMARK  status: ('A' for Active; 'I' for Inactive)
REMARK    1  A    between atoms: _5  and  _11
REMARK    2  A    between atoms: _19  and  _21
REMARK    3  A    between atoms: _22  and  _66
REMARK    4  A    between atoms: _27  and  _30
REMARK    5  A    between atoms: _32  and  _33
REMARK    6  A    between atoms: _38  and  _43
REMARK    7  A    between atoms: _43  and  _46
REMARK    8  A    between atoms: _53  and  _55
REMARK                            x       y       z     vdW  Elec       q    Type
REMARK                         _______ _______ _______ _____ _____    ______ ____
ROOT
ATOM     10  C   UNL     1      68.471  53.080  17.368  0.00  0.00    +0.038 A 
ATOM     11  C   UNL     1      68.962  54.325  16.897  0.00  0.00    +0.047 A 
ATOM     12  C   UNL     1      68.801  55.542  17.677  0.00  0.00    +0.035 A 
ATOM     32  C   UNL     1      68.135  55.455  18.934  0.00  0.00    +0.024 A 
ATOM     33  C   UNL     1      67.629  54.199  19.428  0.00  0.00    +0.007 A 
ATOM     34  C   UNL     1      67.783  52.995  18.662  0.00  0.00    -0.029 A 
ATOM     35  C   UNL     1      67.215  51.678  19.238  0.00  0.00    +0.045 C 
ENDROOT
BRANCH  10   9
ATOM      4  C   UNL     1      67.445  50.379  13.536  0.00  0.00    +0.077 A 
ATOM      5  C   UNL     1      66.441  51.298  13.083  0.00  0.00    +0.048 A 
ATOM      6  C   UNL     1      66.215  52.450  13.869  0.00  0.00    +0.116 A 
ATOM      7  N   UNL     1      66.944  52.658  15.019  0.00  0.00    -0.223 NA
ATOM      8  C   UNL     1      67.903  51.751  15.429  0.00  0.00    +0.220 A 
ATOM      9  N   UNL     1      68.654  51.943  16.578  0.00  0.00    -0.283 N 
ATOM     36  H   UNL     1      69.347  51.247  16.850  0.00  0.00    +0.155 HD
ATOM     37  N   UNL     1      68.138  50.642  14.697  0.00  0.00    -0.214 NA
BRANCH   4   3
ATOM      1  C   UNL     1      67.240  46.852  11.857  0.00  0.00    +0.020 A 
ATOM      2  C   UNL     1      66.844  48.050  12.561  0.00  0.00    +0.013 A 
ATOM      3  C   UNL     1      67.803  49.118  12.812  0.00  0.00    +0.019 A 
ATOM     38  C   UNL     1      69.166  48.942  12.334  0.00  0.00    +0.120 A 
ATOM     39  N   UNL     1      69.519  47.777  11.660  0.00  0.00    -0.263 NA
ATOM     40  C   UNL     1      68.605  46.741  11.414  0.00  0.00    +0.111 A 
ENDBRANCH   4   3
ENDBRANCH  10   9
BRANCH  12  13
ATOM     13  N   UNL     1      69.271  56.835  17.245  0.00  0.00    -0.281 N 
ATOM     14  C   UNL     1      70.569  57.209  16.937  0.00  0.00    +0.248 C 
ATOM     30  O   UNL     1      71.560  56.541  17.192  0.00  0.00    -0.270 OA
ATOM     31  H   UNL     1      68.562  57.562  17.157  0.00  0.00    +0.155 HD
BRANCH  14  15
ATOM     15  C   UNL     1      70.800  58.522  16.261  0.00  0.00    +0.037 A 
ATOM     16  C   UNL     1      71.819  58.670  15.219  0.00  0.00    +0.013 A 
ATOM     17  C   UNL     1      72.034  59.952  14.594  0.00  0.00    +0.005 A 
ATOM     18  C   UNL     1      71.225  61.095  15.010  0.00  0.00    -0.033 A 
ATOM     28  C   UNL     1      70.218  60.919  16.043  0.00  0.00    +0.005 A 
ATOM     29  C   UNL     1      70.006  59.664  16.658  0.00  0.00    +0.013 A 
BRANCH  18  19
ATOM     19  C   UNL     1      71.400  62.504  14.413  0.00  0.00    +0.119 C 
BRANCH  19  20
ATOM     20  N   UNL     1      71.901  62.595  13.009  0.00  0.00    -0.302 NA
ATOM     21  C   UNL     1      72.956  63.693  12.845  0.00  0.00    +0.066 C 
ATOM     22  C   UNL     1      73.485  63.758  11.375  0.00  0.00    -0.064 C 
ATOM     23  N   UNL     1      72.310  63.990  10.423  0.00  0.00    +0.379 N 
ATOM     24  C   UNL     1      72.811  64.110   9.046  0.00  0.00    -0.096 C 
ATOM     25  H   UNL     1      71.839  64.962  10.698  0.00  0.00    -0.082 HD
ATOM     26  C   UNL     1      71.255  62.905  10.582  0.00  0.00    -0.064 C 
ATOM     27  C   UNL     1      70.757  62.828  12.053  0.00  0.00    +0.066 C 
ENDBRANCH  19  20
ENDBRANCH  18  19
ENDBRANCH  14  15
ENDBRANCH  12  13
TORSDOF 6
ENDMDL
MODEL 2
REMARK VINA RESULT:      -7.8      1.441      2.235
REMARK  Name = C:\Users\Docking\Desktop\test protocol\1iep_ligandH.pdb
REMARK  8 active torsions:
REMARK  status: ('A' for Active; 'I' for Inactive)
REMARK    1  A    between atoms: _5  and  _11
REMARK    2  A    between atoms: _19  and  _21
REMARK    3  A    between atoms: _22  and  _66
REMARK    4  A    between atoms: _27  and  _30
REMARK    5  A    between atoms: _32  and  _33
REMARK    6  A    between atoms: _38  and  _43
REMARK    7  A    between atoms: _43  and  _46
REMARK    8  A    between atoms: _53  and  _55
REMARK                            x       y       z     vdW  Elec       q    Type
REMARK                         _______ _______ _______ _____ _____    ______ ____
ROOT
ATOM     10  C   UNL     1      68.298  53.182  17.516  0.00  0.00    +0.038 A 
ATOM     11  C   UNL     1      68.817  54.387  16.977  0.00  0.00    +0.047 A 
ATOM     12  C   UNL     1      68.663  55.653  17.678  0.00  0.00    +0.035 A 
ATOM     32  C   UNL     1      67.976  55.654  18.927  0.00  0.00    +0.024 A 
ATOM     33  C   UNL     1      67.441  54.439  19.489  0.00  0.00    +0.007 A 
ATOM     34  C   UNL     1      67.588  53.188  18.801  0.00  0.00    -0.029 A 
ATOM     35  C   UNL     1      66.989  51.917  19.447  0.00  0.00    +0.045 C 
ENDROOT
BRANCH  10   9
ATOM      4  C   UNL     1      67.388  50.322  13.771  0.00  0.00    +0.077 A 
ATOM      5  C   UNL     1      66.461  51.260  13.204  0.00  0.00    +0.048 A 
ATOM      6  C   UNL     1      66.242  52.463  13.912  0.00  0.00    +0.116 A 
ATOM      7  N   UNL     1      66.905  52.701  15.096  0.00  0.00    -0.223 NA
ATOM      8  C   UNL     1      67.791  51.775  15.615  0.00  0.00    +0.220 A 
ATOM      9  N   UNL     1      68.475  51.996  16.801  0.00  0.00    -0.283 N 
ATOM     36  H   UNL     1      69.114  51.285  17.154  0.00  0.00    +0.155 HD
ATOM     37  N   UNL     1      68.017  50.617  14.960  0.00  0.00    -0.214 NA
BRANCH   4   3
ATOM      1  C   UNL     1      68.459  46.596  13.252  0.00  0.00    +0.020 A 
ATOM      2  C   UNL     1      68.142  47.843  13.911  0.00  0.00    +0.013 A 
ATOM      3  C   UNL     1      67.728  49.008  13.140  0.00  0.00    +0.019 A 
ATOM     38  C   UNL     1      67.644  48.878  11.693  0.00  0.00    +0.120 A 
ATOM     39  N   UNL     1      67.957  47.665  11.086  0.00  0.00    -0.263 NA
ATOM     40  C   UNL     1      68.358  46.538  11.818  0.00  0.00    +0.111 A 
ENDBRANCH   4   3
ENDBRANCH  10   9
BRANCH  12  13
ATOM     13  N   UNL     1      69.161  56.909  17.176  0.00  0.00    -0.281 N 
ATOM     14  C   UNL     1      70.478  57.333  17.098  0.00  0.00    +0.248 C 
ATOM     30  O   UNL     1      71.417  56.776  17.647  0.00  0.00    -0.270 OA
ATOM     31  H   UNL     1      68.458  57.567  16.838  0.00  0.00    +0.155 HD
BRANCH  14  15
ATOM     15  C   UNL     1      70.796  58.559  16.306  0.00  0.00    +0.037 A 
ATOM     16  C   UNL     1      70.089  59.821  16.542  0.00  0.00    +0.013 A 
ATOM     17  C   UNL     1      70.403  60.985  15.752  0.00  0.00    +0.005 A 
ATOM     18  C   UNL     1      71.432  60.893  14.718  0.00  0.00    -0.033 A 
ATOM     28  C   UNL     1      72.121  59.630  14.509  0.00  0.00    +0.005 A 
ATOM     29  C   UNL     1      71.815  58.487  15.280  0.00  0.00    +0.013 A 
BRANCH  18  19
ATOM     19  C   UNL     1      71.817  62.078  13.814  0.00  0.00    +0.119 C 
BRANCH  19  20
ATOM     20  N   UNL     1      72.210  63.352  14.487  0.00  0.00    -0.302 NA
ATOM     21  C   UNL     1      71.030  64.319  14.621  0.00  0.00    +0.066 C 
ATOM     22  C   UNL     1      71.453  65.637  15.347  0.00  0.00    -0.064 C 
ATOM     23  N   UNL     1      72.604  66.291  14.581  0.00  0.00    +0.379 N 
ATOM     24  C   UNL     1      72.966  67.560  15.229  0.00  0.00    -0.096 C 
ATOM     25  H   UNL     1      72.237  66.527  13.556  0.00  0.00    -0.082 HD
ATOM     26  C   UNL     1      73.781  65.336  14.441  0.00  0.00    -0.064 C 
ATOM     27  C   UNL     1      73.343  64.017  13.745  0.00  0.00    +0.066 C 
ENDBRANCH  19  20
ENDBRANCH  18  19
ENDBRANCH  14  15
ENDBRANCH  12  13
TORSDOF 6
ENDMDL
MODEL 3
REMARK VINA RESULT:      -7.6      2.654     12.047
REMARK  Name = C:\Users\Docking\Desktop\test protocol\1iep_ligandH.pdb
REMARK  8 active torsions:
REMARK  status: ('A' for Active; 'I' for Inactive)
REMARK    1  A    between atoms: _5  and  _11
REMARK    2  A    between atoms: _19  and  _21
REMARK    3  A    between atoms: _22  and  _66
REMARK    4  A    between atoms: _27  and  _30
REMARK    5  A    between atoms: _32  and  _33
REMARK    6  A    between atoms: _38  and  _43
REMARK    7  A    between atoms: _43  and  _46
REMARK    8  A    between atoms: _53  and  _55
REMARK                            x       y       z     vdW  Elec       q    Type
REMARK                         _______ _______ _______ _____ _____    ______ ____
ROOT
ATOM     10  C   UNL     1      68.749  56.844  18.716  0.00  0.00    +0.038 A 
ATOM     11  C   UNL     1      68.479  55.887  17.705  0.00  0.00    +0.047 A 
ATOM     12  C   UNL     1      68.393  54.468  18.015  0.00  0.00    +0.035 A 
ATOM     32  C   UNL     1      68.586  54.060  19.367  0.00  0.00    +0.024 A 
ATOM     33  C   UNL     1      68.862  55.019  20.407  0.00  0.00    +0.007 A 
ATOM     34  C   UNL     1      68.951  56.419  20.106  0.00  0.00    -0.029 A 
ATOM     35  C   UNL     1      69.256  57.403  21.260  0.00  0.00    +0.045 C 
ENDROOT
BRANCH  10   9
ATOM      4  C   UNL     1      70.885  60.534  16.511  0.00  0.00    +0.077 A 
ATOM      5  C   UNL     1      71.964  59.710  16.048  0.00  0.00    +0.048 A 
ATOM      6  C   UNL     1      71.935  58.343  16.405  0.00  0.00    +0.116 A 
ATOM      7  N   UNL     1      70.900  57.848  17.168  0.00  0.00    -0.223 NA
ATOM      8  C   UNL     1      69.876  58.671  17.600  0.00  0.00    +0.220 A 
ATOM      9  N   UNL     1      68.821  58.193  18.361  0.00  0.00    -0.283 N 
ATOM     36  H   UNL     1      68.088  58.834  18.666  0.00  0.00    +0.155 HD
ATOM     37  N   UNL     1      69.881  59.980  17.273  0.00  0.00    -0.214 NA
BRANCH   4   3
ATOM      1  C   UNL     1      70.572  63.947  14.625  0.00  0.00    +0.020 A 
ATOM      2  C   UNL     1      70.680  62.525  14.858  0.00  0.00    +0.013 A 
ATOM      3  C   UNL     1      70.772  61.997  16.213  0.00  0.00    +0.019 A 
ATOM     38  C   UNL     1      70.750  62.942  17.320  0.00  0.00    +0.120 A 
ATOM     39  N   UNL     1      70.646  64.306  17.065  0.00  0.00    -0.263 NA
ATOM     40  C   UNL     1      70.559  64.826  15.765  0.00  0.00    +0.111 A 
ENDBRANCH   4   3
ENDBRANCH  10   9
BRANCH  12  13
ATOM     13  N   UNL     1      68.130  53.449  17.029  0.00  0.00    -0.281 N 
ATOM     14  C   UNL     1      67.125  53.427  16.075  0.00  0.00    +0.248 C 
ATOM     30  O   UNL     1      66.166  54.184  16.064  0.00  0.00    -0.270 OA
ATOM     31  H   UNL     1      68.760  52.647  17.035  0.00  0.00    +0.155 HD
BRANCH  14  15
ATOM     15  C   UNL     1      67.188  52.408  14.984  0.00  0.00    +0.037 A 
ATOM     16  C   UNL     1      66.441  52.583  13.736  0.00  0.00    +0.013 A 
ATOM     17  C   UNL     1      66.506  51.576  12.707  0.00  0.00    +0.005 A 
ATOM     18  C   UNL     1      67.324  50.385  12.921  0.00  0.00    -0.033 A 
ATOM     28  C   UNL     1      68.059  50.239  14.166  0.00  0.00    +0.005 A 
ATOM     29  C   UNL     1      67.997  51.223  15.178  0.00  0.00    +0.013 A 
BRANCH  18  19
ATOM     19  C   UNL     1      67.435  49.250  11.886  0.00  0.00    +0.119 C 
BRANCH  19  20
ATOM     20  N   UNL     1      67.743  47.882  12.401  0.00  0.00    -0.302 NA
ATOM     21  C   UNL     1      68.851  47.200  11.592  0.00  0.00    +0.066 C 
ATOM     22  C   UNL     1      69.177  45.780  12.159  0.00  0.00    -0.064 C 
ATOM     23  N   UNL     1      67.905  44.930  12.160  0.00  0.00    +0.379 N 
ATOM     24  C   UNL     1      68.220  43.576  12.638  0.00  0.00    -0.096 C 
ATOM     25  H   UNL     1      67.555  44.844  11.105  0.00  0.00    -0.082 HD
ATOM     26  C   UNL     1      66.798  45.602  12.960  0.00  0.00    -0.064 C 
ATOM     27  C   UNL     1      66.502  47.025  12.407  0.00  0.00    +0.066 C 
ENDBRANCH  19  20
ENDBRANCH  18  19
ENDBRANCH  14  15
ENDBRANCH  12  13
TORSDOF 6
ENDMDL
MODEL 4
REMARK VINA RESULT:      -7.6     17.201     21.274
REMARK  Name = C:\Users\Docking\Desktop\test protocol\1iep_ligandH.pdb
REMARK  8 active torsions:
REMARK  status: ('A' for Active; 'I' for Inactive)
REMARK    1  A    between atoms: _5  and  _11
REMARK    2  A    between atoms: _19  and  _21
REMARK    3  A    between atoms: _22  and  _66
REMARK    4  A    between atoms: _27  and  _30
REMARK    5  A    between atoms: _32  and  _33
REMARK    6  A    between atoms: _38  and  _43
REMARK    7  A    between atoms: _43  and  _46
REMARK    8  A    between atoms: _53  and  _55
REMARK                            x       y       z     vdW  Elec       q    Type
REMARK                         _______ _______ _______ _____ _____    ______ ____
ROOT
ATOM     10  C   UNL     1      75.978  69.697   5.066  0.00  0.00    +0.038 A 
ATOM     11  C   UNL     1      74.576  69.852   4.918  0.00  0.00    +0.047 A 
ATOM     12  C   UNL     1      73.702  68.697   4.779  0.00  0.00    +0.035 A 
ATOM     32  C   UNL     1      74.289  67.399   4.798  0.00  0.00    +0.024 A 
ATOM     33  C   UNL     1      75.713  67.223   4.947  0.00  0.00    +0.007 A 
ATOM     34  C   UNL     1      76.580  68.359   5.081  0.00  0.00    -0.029 A 
ATOM     35  C   UNL     1      78.099  68.111   5.231  0.00  0.00    +0.045 C 
ENDROOT
BRANCH  10   9
ATOM      4  C   UNL     1      78.252  72.993   7.711  0.00  0.00    +0.077 A 
ATOM      5  C   UNL     1      77.803  72.404   8.940  0.00  0.00    +0.048 A 
ATOM      6  C   UNL     1      76.982  71.257   8.847  0.00  0.00    +0.116 A 
ATOM      7  N   UNL     1      76.643  70.747   7.612  0.00  0.00    -0.223 NA
ATOM      8  C   UNL     1      77.092  71.341   6.447  0.00  0.00    +0.220 A 
ATOM      9  N   UNL     1      76.770  70.840   5.195  0.00  0.00    -0.283 N 
ATOM     36  H   UNL     1      77.115  71.312   4.360  0.00  0.00    +0.155 HD
ATOM     37  N   UNL     1      77.876  72.438   6.509  0.00  0.00    -0.214 NA
BRANCH   4   3
ATOM      1  C   UNL     1      81.307  75.415   8.039  0.00  0.00    +0.020 A 
ATOM      2  C   UNL     1      80.504  74.217   8.127  0.00  0.00    +0.013 A 
ATOM      3  C   UNL     1      79.128  74.206   7.645  0.00  0.00    +0.019 A 
ATOM     38  C   UNL     1      78.592  75.433   7.075  0.00  0.00    +0.120 A 
ATOM     39  N   UNL     1      79.389  76.571   7.004  0.00  0.00    -0.263 NA
ATOM     40  C   UNL     1      80.713  76.594   7.466  0.00  0.00    +0.111 A 
ENDBRANCH   4   3
ENDBRANCH  10   9
BRANCH  12  13
ATOM     13  N   UNL     1      72.272  68.793   4.618  0.00  0.00    -0.281 N 
ATOM     14  C   UNL     1      71.559  69.004   3.449  0.00  0.00    +0.248 C 
ATOM     30  O   UNL     1      72.057  69.356   2.390  0.00  0.00    -0.270 OA
ATOM     31  H   UNL     1      71.718  68.693   5.469  0.00  0.00    +0.155 HD
BRANCH  14  15
ATOM     15  C   UNL     1      70.077  68.808   3.462  0.00  0.00    +0.037 A 
ATOM     16  C   UNL     1      69.413  68.103   4.561  0.00  0.00    +0.013 A 
ATOM     17  C   UNL     1      67.985  67.913   4.540  0.00  0.00    +0.005 A 
ATOM     18  C   UNL     1      67.210  68.430   3.415  0.00  0.00    -0.033 A 
ATOM     28  C   UNL     1      67.893  69.130   2.340  0.00  0.00    +0.005 A 
ATOM     29  C   UNL     1      69.294  69.317   2.357  0.00  0.00    +0.013 A 
BRANCH  18  19
ATOM     19  C   UNL     1      65.684  68.255   3.299  0.00  0.00    +0.119 C 
BRANCH  19  20
ATOM     20  N   UNL     1      65.082  68.383   1.939  0.00  0.00    -0.302 NA
ATOM     21  C   UNL     1      63.556  68.260   1.971  0.00  0.00    +0.066 C 
ATOM     22  C   UNL     1      62.942  68.419   0.542  0.00  0.00    -0.064 C 
ATOM     23  N   UNL     1      63.550  67.371  -0.391  0.00  0.00    +0.379 N 
ATOM     24  C   UNL     1      62.932  67.480  -1.720  0.00  0.00    -0.096 C 
ATOM     25  H   UNL     1      63.296  66.366   0.019  0.00  0.00    -0.082 HD
ATOM     26  C   UNL     1      65.067  67.484  -0.427  0.00  0.00    -0.064 C 
ATOM     27  C   UNL     1      65.666  67.354   1.001  0.00  0.00    +0.066 C 
ENDBRANCH  19  20
ENDBRANCH  18  19
ENDBRANCH  14  15
ENDBRANCH  12  13
TORSDOF 6
ENDMDL
MODEL 5
REMARK VINA RESULT:      -7.6      1.529      2.063
REMARK  Name = C:\Users\Docking\Desktop\test protocol\1iep_ligandH.pdb
REMARK  8 active torsions:
REMARK  status: ('A' for Active; 'I' for Inactive)
REMARK    1  A    between atoms: _5  and  _11
REMARK    2  A    between atoms: _19  and  _21
REMARK    3  A    between atoms: _22  and  _66
REMARK    4  A    between atoms: _27  and  _30
REMARK    5  A    between atoms: _32  and  _33
REMARK    6  A    between atoms: _38  and  _43
REMARK    7  A    between atoms: _43  and  _46
REMARK    8  A    between atoms: _53  and  _55
REMARK                            x       y       z     vdW  Elec       q    Type
REMARK                         _______ _______ _______ _____ _____    ______ ____
ROOT
ATOM     10  C   UNL     1      68.261  53.893  18.764  0.00  0.00    +0.038 A 
ATOM     11  C   UNL     1      68.649  55.189  18.336  0.00  0.00    +0.047 A 
ATOM     12  C   UNL     1      68.511  56.343  19.210  0.00  0.00    +0.035 A 
ATOM     32  C   UNL     1      67.976  56.142  20.516  0.00  0.00    +0.024 A 
ATOM     33  C   UNL     1      67.575  54.832  20.967  0.00  0.00    +0.007 A 
ATOM     34  C   UNL     1      67.707  53.690  20.108  0.00  0.00    -0.029 A 
ATOM     35  C   UNL     1      67.255  52.311  20.643  0.00  0.00    +0.045 C 
ENDROOT
BRANCH  10   9
ATOM      4  C   UNL     1      67.449  51.711  14.567  0.00  0.00    +0.077 A 
ATOM      5  C   UNL     1      66.625  52.788  14.099  0.00  0.00    +0.048 A 
ATOM      6  C   UNL     1      66.429  53.882  14.972  0.00  0.00    +0.116 A 
ATOM      7  N   UNL     1      67.019  53.888  16.218  0.00  0.00    -0.223 NA
ATOM      8  C   UNL     1      67.806  52.832  16.639  0.00  0.00    +0.220 A 
ATOM      9  N   UNL     1      68.415  52.820  17.884  0.00  0.00    -0.283 N 
ATOM     36  H   UNL     1      68.983  52.019  18.160  0.00  0.00    +0.155 HD
ATOM     37  N   UNL     1      68.007  51.775  15.824  0.00  0.00    -0.214 NA
BRANCH   4   3
ATOM      1  C   UNL     1      68.582  48.118  13.517  0.00  0.00    +0.020 A 
ATOM      2  C   UNL     1      68.308  49.272  14.341  0.00  0.00    +0.013 A 
ATOM      3  C   UNL     1      67.752  50.488  13.760  0.00  0.00    +0.019 A 
ATOM     38  C   UNL     1      67.482  50.502  12.330  0.00  0.00    +0.120 A 
ATOM     39  N   UNL     1      67.758  49.375  11.561  0.00  0.00    -0.263 NA
ATOM     40  C   UNL     1      68.294  48.201  12.110  0.00  0.00    +0.111 A 
ENDBRANCH   4   3
ENDBRANCH  10   9
BRANCH  12  13
ATOM     13  N   UNL     1      68.880  57.683  18.827  0.00  0.00    -0.281 N 
ATOM     14  C   UNL     1      70.137  58.265  18.866  0.00  0.00    +0.248 C 
ATOM     30  O   UNL     1      71.102  57.785  19.442  0.00  0.00    -0.270 OA
ATOM     31  H   UNL     1      68.123  58.275  18.485  0.00  0.00    +0.155 HD
BRANCH  14  15
ATOM     15  C   UNL     1      70.348  59.575  18.180  0.00  0.00    +0.037 A 
ATOM     16  C   UNL     1      70.263  60.840  18.914  0.00  0.00    +0.013 A 
ATOM     17  C   UNL     1      70.454  62.091  18.224  0.00  0.00    +0.005 A 
ATOM     18  C   UNL     1      70.734  62.083  16.791  0.00  0.00    -0.033 A 
ATOM     28  C   UNL     1      70.819  60.813  16.088  0.00  0.00    +0.005 A 
ATOM     29  C   UNL     1      70.631  59.585  16.760  0.00  0.00    +0.013 A 
BRANCH  18  19
ATOM     19  C   UNL     1      70.931  63.371  15.969  0.00  0.00    +0.119 C 
BRANCH  19  20
ATOM     20  N   UNL     1      71.298  63.215  14.530  0.00  0.00    -0.302 NA
ATOM     21  C   UNL     1      72.371  64.219  14.098  0.00  0.00    +0.066 C 
ATOM     22  C   UNL     1      72.759  64.027  12.596  0.00  0.00    -0.064 C 
ATOM     23  N   UNL     1      71.507  64.164  11.727  0.00  0.00    +0.379 N 
ATOM     24  C   UNL     1      71.878  64.042  10.310  0.00  0.00    -0.096 C 
ATOM     25  H   UNL     1      71.099  65.190  11.883  0.00  0.00    -0.082 HD
ATOM     26  C   UNL     1      70.434  63.171  12.152  0.00  0.00    -0.064 C 
ATOM     27  C   UNL     1      70.077  63.351  13.654  0.00  0.00    +0.066 C 
ENDBRANCH  19  20
ENDBRANCH  18  19
ENDBRANCH  14  15
ENDBRANCH  12  13
TORSDOF 6
ENDMDL
