MODEL 1
REMARK VINA RESULT:      -8.2      0.000      0.000
REMARK  Name = C:\Users\Docking\Desktop\test protocol\1iep_ligandH.pdb
REMARK  8 active torsions:
REMARK  status: ('A' for Active; 'I' for Inactive)
REMARK    1  A    between atoms: _5  and  _11
REMARK    2  A    between atoms: _19  and  _21
REMARK    3  A    between atoms: _22  and  _66
REMARK    4  A    between atoms: _27  and  _30
REMARK    5  A    between atoms: _32  and  _33
REMARK    6  A    between atoms: _38  and  _43
REMARK    7  A    between atoms: _43  and  _46
REMARK    8  A    between atoms: _53  and  _55
REMARK                            x       y       z     vdW  Elec       q    Type
REMARK                         _______ _______ _______ _____ _____    ______ ____
ROOT
ATOM     10  C   UNL     1      67.408  54.895  18.941  0.00  0.00    +0.038 A 
ATOM     11  C   UNL     1      67.812  56.161  18.447  0.00  0.00    +0.047 A 
ATOM     12  C   UNL     1      68.306  57.196  19.342  0.00  0.00    +0.035 A 
ATOM     32  C   UNL     1      68.378  56.906  20.735  0.00  0.00    +0.024 A 
ATOM     33  C   UNL     1      67.971  55.624  21.256  0.00  0.00    +0.007 A 
ATOM     34  C   UNL     1      67.480  54.600  20.378  0.00  0.00    -0.029 A 
ATOM     35  C   UNL     1      67.052  53.247  20.991  0.00  0.00    +0.045 C 
ENDROOT
BRANCH  10   9
ATOM      4  C   UNL     1      67.992  52.029  15.136  0.00  0.00    +0.077 A 
ATOM      5  C   UNL     1      69.329  52.496  14.914  0.00  0.00    +0.048 A 
ATOM      6  C   UNL     1      69.828  53.480  15.798  0.00  0.00    +0.116 A 
ATOM      7  N   UNL     1      69.038  53.953  16.823  0.00  0.00    -0.223 NA
ATOM      8  C   UNL     1      67.751  53.482  17.008  0.00  0.00    +0.220 A 
ATOM      9  N   UNL     1      66.942  53.938  18.037  0.00  0.00    -0.283 N 
ATOM     36  H   UNL     1      65.996  53.571  18.135  0.00  0.00    +0.155 HD
ATOM     37  N   UNL     1      67.252  52.544  16.177  0.00  0.00    -0.214 NA
BRANCH   4   3
ATOM      1  C   UNL     1      65.496  50.203  12.740  0.00  0.00    +0.020 A 
ATOM      2  C   UNL     1      66.099  51.241  13.543  0.00  0.00    +0.013 A 
ATOM      3  C   UNL     1      67.325  50.989  14.289  0.00  0.00    +0.019 A 
ATOM     38  C   UNL     1      67.922  49.665  14.200  0.00  0.00    +0.120 A 
ATOM     39  N   UNL     1      67.318  48.684  13.419  0.00  0.00    -0.263 NA
ATOM     40  C   UNL     1      66.137  48.914  12.698  0.00  0.00    +0.111 A 
ENDBRANCH   4   3
ENDBRANCH  10   9
BRANCH  12  13
ATOM     13  N   UNL     1      68.722  58.503  18.898  0.00  0.00    -0.281 N 
ATOM     14  C   UNL     1      70.012  58.955  18.671  0.00  0.00    +0.248 C 
ATOM     30  O   UNL     1      71.023  58.364  19.021  0.00  0.00    -0.270 OA
ATOM     31  H   UNL     1      67.975  59.178  18.732  0.00  0.00    +0.155 HD
BRANCH  14  15
ATOM     15  C   UNL     1      70.207  60.257  17.965  0.00  0.00    +0.037 A 
ATOM     16  C   UNL     1      70.099  61.532  18.679  0.00  0.00    +0.013 A 
ATOM     17  C   UNL     1      70.275  62.775  17.970  0.00  0.00    +0.005 A 
ATOM     18  C   UNL     1      70.562  62.749  16.538  0.00  0.00    -0.033 A 
ATOM     28  C   UNL     1      70.669  61.470  15.855  0.00  0.00    +0.005 A 
ATOM     29  C   UNL     1      70.496  60.249  16.546  0.00  0.00    +0.013 A 
BRANCH  18  19
ATOM     19  C   UNL     1      70.744  64.026  15.697  0.00  0.00    +0.119 C 
BRANCH  19  20
ATOM     20  N   UNL     1      71.266  63.862  14.308  0.00  0.00    -0.302 NA
ATOM     21  C   UNL     1      72.168  65.028  13.892  0.00  0.00    +0.066 C 
ATOM     22  C   UNL     1      72.723  64.829  12.444  0.00  0.00    -0.064 C 
ATOM     23  N   UNL     1      71.555  64.674  11.469  0.00  0.00    +0.379 N 
ATOM     24  C   UNL     1      72.072  64.545  10.099  0.00  0.00    -0.096 C 
ATOM     25  H   UNL     1      70.950  65.609  11.516  0.00  0.00    -0.082 HD
ATOM     26  C   UNL     1      70.651  63.519  11.877  0.00  0.00    -0.064 C 
ATOM     27  C   UNL     1      70.128  63.712  13.328  0.00  0.00    +0.066 C 
ENDBRANCH  19  20
ENDBRANCH  18  19
ENDBRANCH  14  15
ENDBRANCH  12  13
TORSDOF 6
ENDMDL
MODEL 2
REMARK VINA RESULT:      -8.2      6.165     12.140
REMARK  Name = C:\Users\Docking\Desktop\test protocol\1iep_ligandH.pdb
REMARK  8 active torsions:
REMARK  status: ('A' for Active; 'I' for Inactive)
REMARK    1  A    between atoms: _5  and  _11
REMARK    2  A    between atoms: _19  and  _21
REMARK    3  A    between atoms: _22  and  _66
REMARK    4  A    between atoms: _27  and  _30
REMARK    5  A    between atoms: _32  and  _33
REMARK    6  A    between atoms: _38  and  _43
REMARK    7  A    between atoms: _43  and  _46
REMARK    8  A    between atoms: _53  and  _55
REMARK                            x       y       z     vdW  Elec       q    Type
REMARK                         _______ _______ _______ _____ _____    ______ ____
ROOT
ATOM     10  C   UNL     1      72.965  63.104  12.059  0.00  0.00    +0.038 A 
ATOM     11  C   UNL     1      72.168  63.662  11.027  0.00  0.00    +0.047 A 
ATOM     12  C   UNL     1      72.750  64.518  10.005  0.00  0.00    +0.035 A 
ATOM     32  C   UNL     1      74.149  64.782  10.062  0.00  0.00    +0.024 A 
ATOM     33  C   UNL     1      74.975  64.224  11.104  0.00  0.00    +0.007 A 
ATOM     34  C   UNL     1      74.406  63.381  12.116  0.00  0.00    -0.029 A 
ATOM     35  C   UNL     1      75.337  62.816  13.213  0.00  0.00    +0.045 C 
ENDROOT
BRANCH  10   9
ATOM      4  C   UNL     1      70.724  62.448  16.252  0.00  0.00    +0.077 A 
ATOM      5  C   UNL     1      70.801  63.843  16.579  0.00  0.00    +0.048 A 
ATOM      6  C   UNL     1      71.432  64.694  15.644  0.00  0.00    +0.116 A 
ATOM      7  N   UNL     1      71.943  64.179  14.473  0.00  0.00    -0.223 NA
ATOM      8  C   UNL     1      71.854  62.828  14.189  0.00  0.00    +0.220 A 
ATOM      9  N   UNL     1      72.354  62.289  13.014  0.00  0.00    -0.283 N 
ATOM     36  H   UNL     1      72.275  61.287  12.846  0.00  0.00    +0.155 HD
ATOM     37  N   UNL     1      71.257  61.994  15.066  0.00  0.00    -0.214 NA
BRANCH   4   3
ATOM      1  C   UNL     1      68.929  59.215  17.526  0.00  0.00    +0.020 A 
ATOM      2  C   UNL     1      69.535  60.172  16.629  0.00  0.00    +0.013 A 
ATOM      3  C   UNL     1      70.085  61.423  17.136  0.00  0.00    +0.019 A 
ATOM     38  C   UNL     1      70.005  61.677  18.567  0.00  0.00    +0.120 A 
ATOM     39  N   UNL     1      69.414  60.737  19.406  0.00  0.00    -0.263 NA
ATOM     40  C   UNL     1      68.880  59.531  18.930  0.00  0.00    +0.111 A 
ENDBRANCH   4   3
ENDBRANCH  10   9
BRANCH  12  13
ATOM     13  N   UNL     1      71.988  65.119   8.939  0.00  0.00    -0.281 N 
ATOM     14  C   UNL     1      70.928  64.572   8.236  0.00  0.00    +0.248 C 
ATOM     30  O   UNL     1      70.609  63.393   8.274  0.00  0.00    -0.270 OA
ATOM     31  H   UNL     1      72.265  66.064   8.669  0.00  0.00    +0.155 HD
BRANCH  14  15
ATOM     15  C   UNL     1      70.112  65.459   7.351  0.00  0.00    +0.037 A 
ATOM     16  C   UNL     1      69.183  66.444   7.912  0.00  0.00    +0.013 A 
ATOM     17  C   UNL     1      68.396  67.275   7.036  0.00  0.00    +0.005 A 
ATOM     18  C   UNL     1      68.536  67.126   5.590  0.00  0.00    -0.033 A 
ATOM     28  C   UNL     1      69.469  66.145   5.061  0.00  0.00    +0.005 A 
ATOM     29  C   UNL     1      70.242  65.328   5.916  0.00  0.00    +0.013 A 
BRANCH  18  19
ATOM     19  C   UNL     1      67.721  67.957   4.581  0.00  0.00    +0.119 C 
BRANCH  19  20
ATOM     20  N   UNL     1      68.335  68.201   3.242  0.00  0.00    -0.302 NA
ATOM     21  C   UNL     1      69.266  69.417   3.249  0.00  0.00    +0.066 C 
ATOM     22  C   UNL     1      69.917  69.645   1.847  0.00  0.00    -0.064 C 
ATOM     23  N   UNL     1      68.817  69.811   0.797  0.00  0.00    +0.379 N 
ATOM     24  C   UNL     1      69.425  70.083  -0.513  0.00  0.00    -0.096 C 
ATOM     25  H   UNL     1      68.211  70.703   1.081  0.00  0.00    -0.082 HD
ATOM     26  C   UNL     1      67.886  68.607   0.785  0.00  0.00    -0.064 C 
ATOM     27  C   UNL     1      67.266  68.372   2.191  0.00  0.00    +0.066 C 
ENDBRANCH  19  20
ENDBRANCH  18  19
ENDBRANCH  14  15
ENDBRANCH  12  13
TORSDOF 6
ENDMDL
MODEL 3
REMARK VINA RESULT:      -8.0      1.238      1.575
REMARK  Name = C:\Users\Docking\Desktop\test protocol\1iep_ligandH.pdb
REMARK  8 active torsions:
REMARK  status: ('A' for Active; 'I' for Inactive)
REMARK    1  A    between atoms: _5  and  _11
REMARK    2  A    between atoms: _19  and  _21
REMARK    3  A    between atoms: _22  and  _66
REMARK    4  A    between atoms: _27  and  _30
REMARK    5  A    between atoms: _32  and  _33
REMARK    6  A    between atoms: _38  and  _43
REMARK    7  A    between atoms: _43  and  _46
REMARK    8  A    between atoms: _53  and  _55
REMARK                            x       y       z     vdW  Elec       q    Type
REMARK                         _______ _______ _______ _____ _____    ______ ____
ROOT
ATOM     10  C   UNL     1      67.666  55.691  18.788  0.00  0.00    +0.038 A 
ATOM     11  C   UNL     1      68.078  56.945  18.268  0.00  0.00    +0.047 A 
ATOM     12  C   UNL     1      68.646  57.968  19.132  0.00  0.00    +0.035 A 
ATOM     32  C   UNL     1      68.782  57.680  20.521  0.00  0.00    +0.024 A 
ATOM     33  C   UNL     1      68.367  56.412  21.067  0.00  0.00    +0.007 A 
ATOM     34  C   UNL     1      67.804  55.400  20.220  0.00  0.00    -0.029 A 
ATOM     35  C   UNL     1      67.371  54.061  20.861  0.00  0.00    +0.045 C 
ENDROOT
BRANCH  10   9
ATOM      4  C   UNL     1      68.092  52.456  15.269  0.00  0.00    +0.077 A 
ATOM      5  C   UNL     1      69.502  52.690  15.144  0.00  0.00    +0.048 A 
ATOM      6  C   UNL     1      70.078  53.656  15.999  0.00  0.00    +0.116 A 
ATOM      7  N   UNL     1      69.292  54.332  16.908  0.00  0.00    -0.223 NA
ATOM      8  C   UNL     1      67.935  54.083  17.001  0.00  0.00    +0.220 A 
ATOM      9  N   UNL     1      67.128  54.745  17.913  0.00  0.00    -0.283 N 
ATOM     36  H   UNL     1      66.130  54.539  17.946  0.00  0.00    +0.155 HD
ATOM     37  N   UNL     1      67.362  53.166  16.195  0.00  0.00    -0.214 NA
BRANCH   4   3
ATOM      1  C   UNL     1      65.390  50.783  12.988  0.00  0.00    +0.020 A 
ATOM      2  C   UNL     1      66.077  51.777  13.780  0.00  0.00    +0.013 A 
ATOM      3  C   UNL     1      67.339  51.464  14.438  0.00  0.00    +0.019 A 
ATOM     38  C   UNL     1      67.884  50.125  14.272  0.00  0.00    +0.120 A 
ATOM     39  N   UNL     1      67.200  49.187  13.505  0.00  0.00    -0.263 NA
ATOM     40  C   UNL     1      65.983  49.477  12.869  0.00  0.00    +0.111 A 
ENDBRANCH   4   3
ENDBRANCH  10   9
BRANCH  12  13
ATOM     13  N   UNL     1      69.075  59.262  18.661  0.00  0.00    -0.281 N 
ATOM     14  C   UNL     1      70.275  59.593  18.055  0.00  0.00    +0.248 C 
ATOM     30  O   UNL     1      71.255  58.863  18.017  0.00  0.00    -0.270 OA
ATOM     31  H   UNL     1      68.413  60.027  18.792  0.00  0.00    +0.155 HD
BRANCH  14  15
ATOM     15  C   UNL     1      70.413  60.934  17.409  0.00  0.00    +0.037 A 
ATOM     16  C   UNL     1      70.376  62.166  18.201  0.00  0.00    +0.013 A 
ATOM     17  C   UNL     1      70.494  63.447  17.551  0.00  0.00    +0.005 A 
ATOM     18  C   UNL     1      70.651  63.502  16.099  0.00  0.00    -0.033 A 
ATOM     28  C   UNL     1      70.689  62.264  15.339  0.00  0.00    +0.005 A 
ATOM     29  C   UNL     1      70.573  61.006  15.972  0.00  0.00    +0.013 A 
BRANCH  18  19
ATOM     19  C   UNL     1      70.762  64.826  15.319  0.00  0.00    +0.119 C 
BRANCH  19  20
ATOM     20  N   UNL     1      72.113  65.208  14.811  0.00  0.00    -0.302 NA
ATOM     21  C   UNL     1      72.469  66.657  15.158  0.00  0.00    +0.066 C 
ATOM     22  C   UNL     1      73.895  67.033  14.638  0.00  0.00    -0.064 C 
ATOM     23  N   UNL     1      73.960  66.805  13.127  0.00  0.00    +0.379 N 
ATOM     24  C   UNL     1      75.281  67.213  12.626  0.00  0.00    -0.096 C 
ATOM     25  H   UNL     1      73.199  67.468  12.652  0.00  0.00    -0.082 HD
ATOM     26  C   UNL     1      73.606  65.368  12.774  0.00  0.00    -0.064 C 
ATOM     27  C   UNL     1      72.199  64.995  13.320  0.00  0.00    +0.066 C 
ENDBRANCH  19  20
ENDBRANCH  18  19
ENDBRANCH  14  15
ENDBRANCH  12  13
TORSDOF 6
ENDMDL
MODEL 4
REMARK VINA RESULT:      -8.0      1.752      2.560
REMARK  Name = C:\Users\Docking\Desktop\test protocol\1iep_ligandH.pdb
REMARK  8 active torsions:
REMARK  status: ('A' for Active; 'I' for Inactive)
REMARK    1  A    between atoms: _5  and  _11
REMARK    2  A    between atoms: _19  and  _21
REMARK    3  A    between atoms: _22  and  _66
REMARK    4  A    between atoms: _27  and  _30
REMARK    5  A    between atoms: _32  and  _33
REMARK    6  A    between atoms: _38  and  _43
REMARK    7  A    between atoms: _43  and  _46
REMARK    8  A    between atoms: _53  and  _55
REMARK                            x       y       z     vdW  Elec       q    Type
REMARK                         _______ _______ _______ _____ _____    ______ ____
ROOT
ATOM     10  C   UNL     1      68.201  53.215  17.534  0.00  0.00    +0.038 A 
ATOM     11  C   UNL     1      68.689  54.439  17.009  0.00  0.00    +0.047 A 
ATOM     12  C   UNL     1      68.588  55.677  17.767  0.00  0.00    +0.035 A 
ATOM     32  C   UNL     1      67.987  55.630  19.059  0.00  0.00    +0.024 A 
ATOM     33  C   UNL     1      67.485  54.395  19.608  0.00  0.00    +0.007 A 
ATOM     34  C   UNL     1      67.580  53.172  18.863  0.00  0.00    -0.029 A 
ATOM     35  C   UNL     1      67.019  51.878  19.498  0.00  0.00    +0.045 C 
ENDROOT
BRANCH  10   9
ATOM      4  C   UNL     1      67.167  50.583  13.656  0.00  0.00    +0.077 A 
ATOM      5  C   UNL     1      66.287  51.589  13.135  0.00  0.00    +0.048 A 
ATOM      6  C   UNL     1      66.123  52.766  13.899  0.00  0.00    +0.116 A 
ATOM      7  N   UNL     1      66.793  52.915  15.094  0.00  0.00    -0.223 NA
ATOM      8  C   UNL     1      67.633  51.925  15.568  0.00  0.00    +0.220 A 
ATOM      9  N   UNL     1      68.324  52.057  16.763  0.00  0.00    -0.283 N 
ATOM     36  H   UNL     1      68.928  51.301  17.082  0.00  0.00    +0.155 HD
ATOM     37  N   UNL     1      67.806  50.791  14.858  0.00  0.00    -0.214 NA
BRANCH   4   3
ATOM      1  C   UNL     1      67.508  47.812  10.917  0.00  0.00    +0.020 A 
ATOM      2  C   UNL     1      67.220  49.084  11.537  0.00  0.00    +0.013 A 
ATOM      3  C   UNL     1      67.447  49.286  12.963  0.00  0.00    +0.019 A 
ATOM     38  C   UNL     1      67.970  48.171  13.738  0.00  0.00    +0.120 A 
ATOM     39  N   UNL     1      68.236  46.956  13.113  0.00  0.00    -0.263 NA
ATOM     40  C   UNL     1      68.020  46.750  11.743  0.00  0.00    +0.111 A 
ENDBRANCH   4   3
ENDBRANCH  10   9
BRANCH  12  13
ATOM     13  N   UNL     1      69.058  56.951  17.282  0.00  0.00    -0.281 N 
ATOM     14  C   UNL     1      70.351  57.305  16.933  0.00  0.00    +0.248 C 
ATOM     30  O   UNL     1      71.343  56.638  17.188  0.00  0.00    -0.270 OA
ATOM     31  H   UNL     1      68.352  57.680  17.185  0.00  0.00    +0.155 HD
BRANCH  14  15
ATOM     15  C   UNL     1      70.576  58.592  16.207  0.00  0.00    +0.037 A 
ATOM     16  C   UNL     1      71.610  58.712  15.176  0.00  0.00    +0.013 A 
ATOM     17  C   UNL     1      71.817  59.970  14.504  0.00  0.00    +0.005 A 
ATOM     18  C   UNL     1      70.987  61.118  14.860  0.00  0.00    -0.033 A 
ATOM     28  C   UNL     1      69.966  60.970  15.883  0.00  0.00    +0.005 A 
ATOM     29  C   UNL     1      69.760  59.739  16.545  0.00  0.00    +0.013 A 
BRANCH  18  19
ATOM     19  C   UNL     1      71.153  62.505  14.210  0.00  0.00    +0.119 C 
BRANCH  19  20
ATOM     20  N   UNL     1      71.767  62.552  12.849  0.00  0.00    -0.302 NA
ATOM     21  C   UNL     1      72.978  63.487  12.797  0.00  0.00    +0.066 C 
ATOM     22  C   UNL     1      73.621  63.508  11.372  0.00  0.00    -0.064 C 
ATOM     23  N   UNL     1      72.568  63.929  10.346  0.00  0.00    +0.379 N 
ATOM     24  C   UNL     1      73.184  64.005   9.014  0.00  0.00    -0.096 C 
ATOM     25  H   UNL     1      72.222  64.953  10.619  0.00  0.00    -0.082 HD
ATOM     26  C   UNL     1      71.358  63.006  10.393  0.00  0.00    -0.064 C 
ATOM     27  C   UNL     1      70.745  62.970  11.820  0.00  0.00    +0.066 C 
ENDBRANCH  19  20
ENDBRANCH  18  19
ENDBRANCH  14  15
ENDBRANCH  12  13
TORSDOF 6
ENDMDL
MODEL 5
REMARK VINA RESULT:      -8.0      1.709      2.209
REMARK  Name = C:\Users\Docking\Desktop\test protocol\1iep_ligandH.pdb
REMARK  8 active torsions:
REMARK  status: ('A' for Active; 'I' for Inactive)
REMARK    1  A    between atoms: _5  and  _11
REMARK    2  A    between atoms: _19  and  _21
REMARK    3  A    between atoms: _22  and  _66
REMARK    4  A    between atoms: _27  and  _30
REMARK    5  A    between atoms: _32  and  _33
REMARK    6  A    between atoms: _38  and  _43
REMARK    7  A    between atoms: _43  and  _46
REMARK    8  A    between atoms: _53  and  _55
REMARK                            x       y       z     vdW  Elec       q    Type
REMARK                         _______ _______ _______ _____ _____    ______ ____
ROOT
ATOM     10  C   UNL     1      67.893  55.021  18.104  0.00  0.00    +0.038 A 
ATOM     11  C   UNL     1      68.677  56.028  17.485  0.00  0.00    +0.047 A 
ATOM     12  C   UNL     1      68.761  57.367  18.047  0.00  0.00    +0.035 A 
ATOM     32  C   UNL     1      68.035  57.646  19.241  0.00  0.00    +0.024 A 
ATOM     33  C   UNL     1      67.232  56.634  19.883  0.00  0.00    +0.007 A 
ATOM     34  C   UNL     1      67.144  55.312  19.333  0.00  0.00    -0.029 A 
ATOM     35  C   UNL     1      66.263  54.269  20.059  0.00  0.00    +0.045 C 
ENDROOT
BRANCH  10   9
ATOM      4  C   UNL     1      66.956  52.081  14.428  0.00  0.00    +0.077 A 
ATOM      5  C   UNL     1      66.491  53.161  13.606  0.00  0.00    +0.048 A 
ATOM      6  C   UNL     1      66.502  54.456  14.169  0.00  0.00    +0.116 A 
ATOM      7  N   UNL     1      66.948  54.646  15.459  0.00  0.00    -0.223 NA
ATOM      8  C   UNL     1      67.388  53.583  16.225  0.00  0.00    +0.220 A 
ATOM      9  N   UNL     1      67.848  53.752  17.522  0.00  0.00    -0.283 N 
ATOM     36  H   UNL     1      68.158  52.941  18.057  0.00  0.00    +0.155 HD
ATOM     37  N   UNL     1      67.386  52.336  15.711  0.00  0.00    -0.214 NA
BRANCH   4   3
ATOM      1  C   UNL     1      66.182  48.721  12.581  0.00  0.00    +0.020 A 
ATOM      2  C   UNL     1      66.089  50.105  12.985  0.00  0.00    +0.013 A 
ATOM      3  C   UNL     1      67.008  50.655  13.973  0.00  0.00    +0.019 A 
ATOM     38  C   UNL     1      68.018  49.772  14.536  0.00  0.00    +0.120 A 
ATOM     39  N   UNL     1      68.083  48.444  14.128  0.00  0.00    -0.263 NA
ATOM     40  C   UNL     1      67.203  47.902  13.180  0.00  0.00    +0.111 A 
ENDBRANCH   4   3
ENDBRANCH  10   9
BRANCH  12  13
ATOM     13  N   UNL     1      69.534  58.432  17.458  0.00  0.00    -0.281 N 
ATOM     14  C   UNL     1      70.867  58.411  17.084  0.00  0.00    +0.248 C 
ATOM     30  O   UNL     1      71.659  57.534  17.397  0.00  0.00    -0.270 OA
ATOM     31  H   UNL     1      69.038  59.309  17.298  0.00  0.00    +0.155 HD
BRANCH  14  15
ATOM     15  C   UNL     1      71.403  59.532  16.254  0.00  0.00    +0.037 A 
ATOM     16  C   UNL     1      70.506  60.472  15.576  0.00  0.00    +0.013 A 
ATOM     17  C   UNL     1      71.048  61.535  14.768  0.00  0.00    +0.005 A 
ATOM     18  C   UNL     1      72.497  61.664  14.634  0.00  0.00    -0.033 A 
ATOM     28  C   UNL     1      73.364  60.722  15.321  0.00  0.00    +0.005 A 
ATOM     29  C   UNL     1      72.836  59.678  16.114  0.00  0.00    +0.013 A 
BRANCH  18  19
ATOM     19  C   UNL     1      73.164  62.755  13.775  0.00  0.00    +0.119 C 
BRANCH  19  20
ATOM     20  N   UNL     1      72.378  63.295  12.625  0.00  0.00    -0.302 NA
ATOM     21  C   UNL     1      72.300  62.299  11.465  0.00  0.00    +0.066 C 
ATOM     22  C   UNL     1      71.456  62.870  10.280  0.00  0.00    -0.064 C 
ATOM     23  N   UNL     1      72.064  64.195   9.816  0.00  0.00    +0.379 N 
ATOM     24  C   UNL     1      71.307  64.706   8.664  0.00  0.00    -0.096 C 
ATOM     25  H   UNL     1      73.104  63.987   9.472  0.00  0.00    -0.082 HD
ATOM     26  C   UNL     1      72.148  65.191  10.964  0.00  0.00    -0.064 C 
ATOM     27  C   UNL     1      72.964  64.601  12.148  0.00  0.00    +0.066 C 
ENDBRANCH  19  20
ENDBRANCH  18  19
ENDBRANCH  14  15
ENDBRANCH  12  13
TORSDOF 6
ENDMDL
