MODEL 1
REMARK VINA RESULT:      -8.1      0.000      0.000
REMARK  Name = C:\Users\Docking\Desktop\test protocol\1iep_ligandH.pdb
REMARK  8 active torsions:
REMARK  status: ('A' for Active; 'I' for Inactive)
REMARK    1  A    between atoms: _5  and  _11
REMARK    2  A    between atoms: _19  and  _21
REMARK    3  A    between atoms: _22  and  _66
REMARK    4  A    between atoms: _27  and  _30
REMARK    5  A    between atoms: _32  and  _33
REMARK    6  A    between atoms: _38  and  _43
REMARK    7  A    between atoms: _43  and  _46
REMARK    8  A    between atoms: _53  and  _55
REMARK                            x       y       z     vdW  Elec       q    Type
REMARK                         _______ _______ _______ _____ _____    ______ ____
ROOT
ATOM     10  C   UNL     1      68.141  53.217  17.589  0.00  0.00    +0.038 A 
ATOM     11  C   UNL     1      68.672  54.422  17.063  0.00  0.00    +0.047 A 
ATOM     12  C   UNL     1      68.495  55.688  17.756  0.00  0.00    +0.035 A 
ATOM     32  C   UNL     1      67.773  55.690  18.985  0.00  0.00    +0.024 A 
ATOM     33  C   UNL     1      67.225  54.475  19.534  0.00  0.00    +0.007 A 
ATOM     34  C   UNL     1      67.395  53.223  18.853  0.00  0.00    -0.029 A 
ATOM     35  C   UNL     1      66.780  51.952  19.485  0.00  0.00    +0.045 C 
ENDROOT
BRANCH  10   9
ATOM      4  C   UNL     1      67.352  50.350  13.821  0.00  0.00    +0.077 A 
ATOM      5  C   UNL     1      66.444  51.286  13.224  0.00  0.00    +0.048 A 
ATOM      6  C   UNL     1      66.201  52.490  13.923  0.00  0.00    +0.116 A 
ATOM      7  N   UNL     1      66.826  52.730  15.127  0.00  0.00    -0.223 NA
ATOM      8  C   UNL     1      67.695  51.805  15.676  0.00  0.00    +0.220 A 
ATOM      9  N   UNL     1      68.341  52.029  16.882  0.00  0.00    -0.283 N 
ATOM     36  H   UNL     1      68.969  51.319  17.257  0.00  0.00    +0.155 HD
ATOM     37  N   UNL     1      67.943  50.647  15.029  0.00  0.00    -0.214 NA
BRANCH   4   3
ATOM      1  C   UNL     1      67.782  47.417  11.269  0.00  0.00    +0.020 A 
ATOM      2  C   UNL     1      67.411  48.701  11.817  0.00  0.00    +0.013 A 
ATOM      3  C   UNL     1      67.713  49.035  13.204  0.00  0.00    +0.019 A 
ATOM     38  C   UNL     1      68.397  48.039  14.015  0.00  0.00    +0.120 A 
ATOM     39  N   UNL     1      68.741  46.810  13.460  0.00  0.00    -0.263 NA
ATOM     40  C   UNL     1      68.454  46.477  12.128  0.00  0.00    +0.111 A 
ENDBRANCH   4   3
ENDBRANCH  10   9
BRANCH  12  13
ATOM     13  N   UNL     1      69.005  56.945  17.267  0.00  0.00    -0.281 N 
ATOM     14  C   UNL     1      70.322  57.287  17.007  0.00  0.00    +0.248 C 
ATOM     30  O   UNL     1      71.289  56.629  17.361  0.00  0.00    -0.270 OA
ATOM     31  H   UNL     1      68.310  57.671  17.090  0.00  0.00    +0.155 HD
BRANCH  14  15
ATOM     15  C   UNL     1      70.606  58.548  16.258  0.00  0.00    +0.037 A 
ATOM     16  C   UNL     1      71.643  58.601  15.224  0.00  0.00    +0.013 A 
ATOM     17  C   UNL     1      71.909  59.835  14.528  0.00  0.00    +0.005 A 
ATOM     18  C   UNL     1      71.135  61.027  14.864  0.00  0.00    -0.033 A 
ATOM     28  C   UNL     1      70.109  60.946  15.891  0.00  0.00    +0.005 A 
ATOM     29  C   UNL     1      69.846  59.738  16.575  0.00  0.00    +0.013 A 
BRANCH  18  19
ATOM     19  C   UNL     1      71.365  62.392  14.188  0.00  0.00    +0.119 C 
BRANCH  19  20
ATOM     20  N   UNL     1      71.855  62.382  12.778  0.00  0.00    -0.302 NA
ATOM     21  C   UNL     1      72.993  63.383  12.558  0.00  0.00    +0.066 C 
ATOM     22  C   UNL     1      73.508  63.344  11.082  0.00  0.00    -0.064 C 
ATOM     23  N   UNL     1      72.345  63.628  10.131  0.00  0.00    +0.379 N 
ATOM     24  C   UNL     1      72.838  63.649   8.746  0.00  0.00    -0.096 C 
ATOM     25  H   UNL     1      71.956  64.646  10.367  0.00  0.00    -0.082 HD
ATOM     26  C   UNL     1      71.208  62.639  10.344  0.00  0.00    -0.064 C 
ATOM     27  C   UNL     1      70.723  62.665  11.821  0.00  0.00    +0.066 C 
ENDBRANCH  19  20
ENDBRANCH  18  19
ENDBRANCH  14  15
ENDBRANCH  12  13
TORSDOF 6
ENDMDL
MODEL 2
REMARK VINA RESULT:      -8.0      1.413      1.683
REMARK  Name = C:\Users\Docking\Desktop\test protocol\1iep_ligandH.pdb
REMARK  8 active torsions:
REMARK  status: ('A' for Active; 'I' for Inactive)
REMARK    1  A    between atoms: _5  and  _11
REMARK    2  A    between atoms: _19  and  _21
REMARK    3  A    between atoms: _22  and  _66
REMARK    4  A    between atoms: _27  and  _30
REMARK    5  A    between atoms: _32  and  _33
REMARK    6  A    between atoms: _38  and  _43
REMARK    7  A    between atoms: _43  and  _46
REMARK    8  A    between atoms: _53  and  _55
REMARK                            x       y       z     vdW  Elec       q    Type
REMARK                         _______ _______ _______ _____ _____    ______ ____
ROOT
ATOM     10  C   UNL     1      67.997  53.390  18.646  0.00  0.00    +0.038 A 
ATOM     11  C   UNL     1      68.313  54.682  18.153  0.00  0.00    +0.047 A 
ATOM     12  C   UNL     1      68.175  55.862  18.992  0.00  0.00    +0.035 A 
ATOM     32  C   UNL     1      67.715  55.689  20.330  0.00  0.00    +0.024 A 
ATOM     33  C   UNL     1      67.388  54.383  20.847  0.00  0.00    +0.007 A 
ATOM     34  C   UNL     1      67.520  53.216  20.023  0.00  0.00    -0.029 A 
ATOM     35  C   UNL     1      67.149  51.842  20.628  0.00  0.00    +0.045 C 
ENDROOT
BRANCH  10   9
ATOM      4  C   UNL     1      67.361  51.177  14.434  0.00  0.00    +0.077 A 
ATOM      5  C   UNL     1      66.644  52.293  13.889  0.00  0.00    +0.048 A 
ATOM      6  C   UNL     1      66.454  53.414  14.727  0.00  0.00    +0.116 A 
ATOM      7  N   UNL     1      66.949  53.409  16.013  0.00  0.00    -0.223 NA
ATOM      8  C   UNL     1      67.635  52.315  16.509  0.00  0.00    +0.220 A 
ATOM      9  N   UNL     1      68.148  52.291  17.796  0.00  0.00    -0.283 N 
ATOM     36  H   UNL     1      68.642  51.463  18.127  0.00  0.00    +0.155 HD
ATOM     37  N   UNL     1      67.828  51.232  15.729  0.00  0.00    -0.214 NA
BRANCH   4   3
ATOM      1  C   UNL     1      67.481  48.467  11.616  0.00  0.00    +0.020 A 
ATOM      2  C   UNL     1      67.179  49.698  12.309  0.00  0.00    +0.013 A 
ATOM      3  C   UNL     1      67.646  49.920  13.671  0.00  0.00    +0.019 A 
ATOM     38  C   UNL     1      68.423  48.869  14.309  0.00  0.00    +0.120 A 
ATOM     39  N   UNL     1      68.698  47.693  13.618  0.00  0.00    -0.263 NA
ATOM     40  C   UNL     1      68.252  47.467  12.307  0.00  0.00    +0.111 A 
ENDBRANCH   4   3
ENDBRANCH  10   9
BRANCH  12  13
ATOM     13  N   UNL     1      68.473  57.199  18.544  0.00  0.00    -0.281 N 
ATOM     14  C   UNL     1      69.530  58.010  18.925  0.00  0.00    +0.248 C 
ATOM     30  O   UNL     1      70.264  57.786  19.876  0.00  0.00    -0.270 OA
ATOM     31  H   UNL     1      67.826  57.597  17.863  0.00  0.00    +0.155 HD
BRANCH  14  15
ATOM     15  C   UNL     1      69.801  59.257  18.147  0.00  0.00    +0.037 A 
ATOM     16  C   UNL     1      70.086  59.209  16.711  0.00  0.00    +0.013 A 
ATOM     17  C   UNL     1      70.361  60.425  15.988  0.00  0.00    +0.005 A 
ATOM     18  C   UNL     1      70.351  61.700  16.700  0.00  0.00    -0.033 A 
ATOM     28  C   UNL     1      70.059  61.719  18.124  0.00  0.00    +0.005 A 
ATOM     29  C   UNL     1      69.790  60.529  18.837  0.00  0.00    +0.013 A 
BRANCH  18  19
ATOM     19  C   UNL     1      70.654  63.045  16.013  0.00  0.00    +0.119 C 
BRANCH  19  20
ATOM     20  N   UNL     1      71.079  63.001  14.582  0.00  0.00    -0.302 NA
ATOM     21  C   UNL     1      72.161  64.040  14.272  0.00  0.00    +0.066 C 
ATOM     22  C   UNL     1      72.610  63.965  12.777  0.00  0.00    -0.064 C 
ATOM     23  N   UNL     1      71.393  64.163  11.871  0.00  0.00    +0.379 N 
ATOM     24  C   UNL     1      71.821  64.151  10.465  0.00  0.00    -0.096 C 
ATOM     25  H   UNL     1      70.972  65.172  12.088  0.00  0.00    -0.082 HD
ATOM     26  C   UNL     1      70.311  63.136  12.175  0.00  0.00    -0.064 C 
ATOM     27  C   UNL     1      69.893  63.199  13.670  0.00  0.00    +0.066 C 
ENDBRANCH  19  20
ENDBRANCH  18  19
ENDBRANCH  14  15
ENDBRANCH  12  13
TORSDOF 6
ENDMDL
MODEL 3
REMARK VINA RESULT:      -8.0      2.692     11.900
REMARK  Name = C:\Users\Docking\Desktop\test protocol\1iep_ligandH.pdb
REMARK  8 active torsions:
REMARK  status: ('A' for Active; 'I' for Inactive)
REMARK    1  A    between atoms: _5  and  _11
REMARK    2  A    between atoms: _19  and  _21
REMARK    3  A    between atoms: _22  and  _66
REMARK    4  A    between atoms: _27  and  _30
REMARK    5  A    between atoms: _32  and  _33
REMARK    6  A    between atoms: _38  and  _43
REMARK    7  A    between atoms: _43  and  _46
REMARK    8  A    between atoms: _53  and  _55
REMARK                            x       y       z     vdW  Elec       q    Type
REMARK                         _______ _______ _______ _____ _____    ______ ____
ROOT
ATOM     10  C   UNL     1      68.499  56.963  18.729  0.00  0.00    +0.038 A 
ATOM     11  C   UNL     1      68.309  55.987  17.718  0.00  0.00    +0.047 A 
ATOM     12  C   UNL     1      68.187  54.575  18.048  0.00  0.00    +0.035 A 
ATOM     32  C   UNL     1      68.261  54.193  19.419  0.00  0.00    +0.024 A 
ATOM     33  C   UNL     1      68.455  55.172  20.460  0.00  0.00    +0.007 A 
ATOM     34  C   UNL     1      68.578  56.565  20.140  0.00  0.00    -0.029 A 
ATOM     35  C   UNL     1      68.791  57.570  21.296  0.00  0.00    +0.045 C 
ENDROOT
BRANCH  10   9
ATOM      4  C   UNL     1      70.572  60.509  16.247  0.00  0.00    +0.077 A 
ATOM      5  C   UNL     1      71.534  59.618  15.664  0.00  0.00    +0.048 A 
ATOM      6  C   UNL     1      71.466  58.256  16.035  0.00  0.00    +0.116 A 
ATOM      7  N   UNL     1      70.503  57.828  16.923  0.00  0.00    -0.223 NA
ATOM      8  C   UNL     1      69.591  58.714  17.468  0.00  0.00    +0.220 A 
ATOM      9  N   UNL     1      68.609  58.304  18.356  0.00  0.00    -0.283 N 
ATOM     36  H   UNL     1      67.960  58.990  18.741  0.00  0.00    +0.155 HD
ATOM     37  N   UNL     1      69.636  60.020  17.130  0.00  0.00    -0.214 NA
BRANCH   4   3
ATOM      1  C   UNL     1      70.380  63.933  14.366  0.00  0.00    +0.020 A 
ATOM      2  C   UNL     1      70.434  62.508  14.597  0.00  0.00    +0.013 A 
ATOM      3  C   UNL     1      70.514  61.975  15.951  0.00  0.00    +0.019 A 
ATOM     38  C   UNL     1      70.536  62.919  17.058  0.00  0.00    +0.120 A 
ATOM     39  N   UNL     1      70.483  64.286  16.805  0.00  0.00    -0.263 NA
ATOM     40  C   UNL     1      70.408  64.810  15.506  0.00  0.00    +0.111 A 
ENDBRANCH   4   3
ENDBRANCH  10   9
BRANCH  12  13
ATOM     13  N   UNL     1      68.001  53.538  17.063  0.00  0.00    -0.281 N 
ATOM     14  C   UNL     1      66.926  53.358  16.209  0.00  0.00    +0.248 C 
ATOM     30  O   UNL     1      65.857  53.942  16.310  0.00  0.00    -0.270 OA
ATOM     31  H   UNL     1      68.754  52.854  16.987  0.00  0.00    +0.155 HD
BRANCH  14  15
ATOM     15  C   UNL     1      67.050  52.377  15.088  0.00  0.00    +0.037 A 
ATOM     16  C   UNL     1      66.329  52.568  13.827  0.00  0.00    +0.013 A 
ATOM     17  C   UNL     1      66.454  51.598  12.769  0.00  0.00    +0.005 A 
ATOM     18  C   UNL     1      67.305  50.427  12.967  0.00  0.00    -0.033 A 
ATOM     28  C   UNL     1      68.013  50.265  14.226  0.00  0.00    +0.005 A 
ATOM     29  C   UNL     1      67.893  51.213  15.266  0.00  0.00    +0.013 A 
BRANCH  18  19
ATOM     19  C   UNL     1      67.480  49.330  11.900  0.00  0.00    +0.119 C 
BRANCH  19  20
ATOM     20  N   UNL     1      67.691  47.933  12.384  0.00  0.00    -0.302 NA
ATOM     21  C   UNL     1      68.576  47.123  11.432  0.00  0.00    +0.066 C 
ATOM     22  C   UNL     1      68.804  45.671  11.965  0.00  0.00    -0.064 C 
ATOM     23  N   UNL     1      67.452  44.984  12.164  0.00  0.00    +0.379 N 
ATOM     24  C   UNL     1      67.666  43.600  12.610  0.00  0.00    -0.096 C 
ATOM     25  H   UNL     1      66.944  44.946  11.173  0.00  0.00    -0.082 HD
ATOM     26  C   UNL     1      66.565  45.785  13.107  0.00  0.00    -0.064 C 
ATOM     27  C   UNL     1      66.368  47.235  12.583  0.00  0.00    +0.066 C 
ENDBRANCH  19  20
ENDBRANCH  18  19
ENDBRANCH  14  15
ENDBRANCH  12  13
TORSDOF 6
ENDMDL
MODEL 4
REMARK VINA RESULT:      -7.8      1.504      2.316
REMARK  Name = C:\Users\Docking\Desktop\test protocol\1iep_ligandH.pdb
REMARK  8 active torsions:
REMARK  status: ('A' for Active; 'I' for Inactive)
REMARK    1  A    between atoms: _5  and  _11
REMARK    2  A    between atoms: _19  and  _21
REMARK    3  A    between atoms: _22  and  _66
REMARK    4  A    between atoms: _27  and  _30
REMARK    5  A    between atoms: _32  and  _33
REMARK    6  A    between atoms: _38  and  _43
REMARK    7  A    between atoms: _43  and  _46
REMARK    8  A    between atoms: _53  and  _55
REMARK                            x       y       z     vdW  Elec       q    Type
REMARK                         _______ _______ _______ _____ _____    ______ ____
ROOT
ATOM     10  C   UNL     1      68.331  53.055  17.220  0.00  0.00    +0.038 A 
ATOM     11  C   UNL     1      68.786  54.283  16.676  0.00  0.00    +0.047 A 
ATOM     12  C   UNL     1      68.632  55.532  17.405  0.00  0.00    +0.035 A 
ATOM     32  C   UNL     1      68.013  55.494  18.688  0.00  0.00    +0.024 A 
ATOM     33  C   UNL     1      67.544  54.254  19.256  0.00  0.00    +0.007 A 
ATOM     34  C   UNL     1      67.691  53.019  18.541  0.00  0.00    -0.029 A 
ATOM     35  C   UNL     1      67.164  51.721  19.195  0.00  0.00    +0.045 C 
ENDROOT
BRANCH  10   9
ATOM      4  C   UNL     1      67.280  50.210  13.501  0.00  0.00    +0.077 A 
ATOM      5  C   UNL     1      66.281  51.117  13.013  0.00  0.00    +0.048 A 
ATOM      6  C   UNL     1      66.064  52.302  13.752  0.00  0.00    +0.116 A 
ATOM      7  N   UNL     1      66.797  52.550  14.892  0.00  0.00    -0.223 NA
ATOM      8  C   UNL     1      67.751  51.653  15.337  0.00  0.00    +0.220 A 
ATOM      9  N   UNL     1      68.504  51.886  16.476  0.00  0.00    -0.283 N 
ATOM     36  H   UNL     1      69.193  51.196  16.775  0.00  0.00    +0.155 HD
ATOM     37  N   UNL     1      67.976  50.514  14.649  0.00  0.00    -0.214 NA
BRANCH   4   3
ATOM      1  C   UNL     1      67.080  46.575  12.068  0.00  0.00    +0.020 A 
ATOM      2  C   UNL     1      66.695  47.801  12.729  0.00  0.00    +0.013 A 
ATOM      3  C   UNL     1      67.626  48.918  12.828  0.00  0.00    +0.019 A 
ATOM     38  C   UNL     1      68.950  48.761  12.243  0.00  0.00    +0.120 A 
ATOM     39  N   UNL     1      69.293  47.568  11.614  0.00  0.00    -0.263 NA
ATOM     40  C   UNL     1      68.405  46.486  11.514  0.00  0.00    +0.111 A 
ENDBRANCH   4   3
ENDBRANCH  10   9
BRANCH  12  13
ATOM     13  N   UNL     1      69.066  56.811  16.900  0.00  0.00    -0.281 N 
ATOM     14  C   UNL     1      70.293  57.427  17.084  0.00  0.00    +0.248 C 
ATOM     30  O   UNL     1      71.133  57.066  17.894  0.00  0.00    -0.270 OA
ATOM     31  H   UNL     1      68.387  57.324  16.337  0.00  0.00    +0.155 HD
BRANCH  14  15
ATOM     15  C   UNL     1      70.630  58.627  16.259  0.00  0.00    +0.037 A 
ATOM     16  C   UNL     1      69.911  59.893  16.429  0.00  0.00    +0.013 A 
ATOM     17  C   UNL     1      70.244  61.030  15.608  0.00  0.00    +0.005 A 
ATOM     18  C   UNL     1      71.303  60.907  14.610  0.00  0.00    -0.033 A 
ATOM     28  C   UNL     1      72.004  59.641  14.465  0.00  0.00    +0.005 A 
ATOM     29  C   UNL     1      71.679  58.524  15.267  0.00  0.00    +0.013 A 
BRANCH  18  19
ATOM     19  C   UNL     1      71.711  62.062  13.676  0.00  0.00    +0.119 C 
BRANCH  19  20
ATOM     20  N   UNL     1      72.144  63.339  14.317  0.00  0.00    -0.302 NA
ATOM     21  C   UNL     1      70.979  64.316  14.496  0.00  0.00    +0.066 C 
ATOM     22  C   UNL     1      71.446  65.638  15.188  0.00  0.00    -0.064 C 
ATOM     23  N   UNL     1      72.566  66.275  14.363  0.00  0.00    +0.379 N 
ATOM     24  C   UNL     1      72.968  67.547  14.981  0.00  0.00    -0.096 C 
ATOM     25  H   UNL     1      72.153  66.504  13.353  0.00  0.00    -0.082 HD
ATOM     26  C   UNL     1      73.727  65.308  14.178  0.00  0.00    -0.064 C 
ATOM     27  C   UNL     1      73.247  63.987  13.516  0.00  0.00    +0.066 C 
ENDBRANCH  19  20
ENDBRANCH  18  19
ENDBRANCH  14  15
ENDBRANCH  12  13
TORSDOF 6
ENDMDL
MODEL 5
REMARK VINA RESULT:      -7.8      5.681     12.176
REMARK  Name = C:\Users\Docking\Desktop\test protocol\1iep_ligandH.pdb
REMARK  8 active torsions:
REMARK  status: ('A' for Active; 'I' for Inactive)
REMARK    1  A    between atoms: _5  and  _11
REMARK    2  A    between atoms: _19  and  _21
REMARK    3  A    between atoms: _22  and  _66
REMARK    4  A    between atoms: _27  and  _30
REMARK    5  A    between atoms: _32  and  _33
REMARK    6  A    between atoms: _38  and  _43
REMARK    7  A    between atoms: _43  and  _46
REMARK    8  A    between atoms: _53  and  _55
REMARK                            x       y       z     vdW  Elec       q    Type
REMARK                         _______ _______ _______ _____ _____    ______ ____
ROOT
ATOM     10  C   UNL     1      67.063  55.173  19.775  0.00  0.00    +0.038 A 
ATOM     11  C   UNL     1      66.864  54.117  18.850  0.00  0.00    +0.047 A 
ATOM     12  C   UNL     1      67.544  54.105  17.564  0.00  0.00    +0.035 A 
ATOM     32  C   UNL     1      68.421  55.185  17.254  0.00  0.00    +0.024 A 
ATOM     33  C   UNL     1      68.634  56.267  18.182  0.00  0.00    +0.007 A 
ATOM     34  C   UNL     1      67.964  56.286  19.451  0.00  0.00    -0.029 A 
ATOM     35  C   UNL     1      68.225  57.475  20.404  0.00  0.00    +0.045 C 
ENDROOT
BRANCH  10   9
ATOM      4  C   UNL     1      66.662  53.782  24.351  0.00  0.00    +0.077 A 
ATOM      5  C   UNL     1      67.894  53.049  24.298  0.00  0.00    +0.048 A 
ATOM      6  C   UNL     1      68.597  53.050  23.072  0.00  0.00    +0.116 A 
ATOM      7  N   UNL     1      68.096  53.736  21.987  0.00  0.00    -0.223 NA
ATOM      8  C   UNL     1      66.903  54.431  22.072  0.00  0.00    +0.220 A 
ATOM      9  N   UNL     1      66.385  55.134  20.996  0.00  0.00    -0.283 N 
ATOM     36  H   UNL     1      65.498  55.628  21.096  0.00  0.00    +0.155 HD
ATOM     37  N   UNL     1      66.213  54.444  23.231  0.00  0.00    -0.214 NA
BRANCH   4   3
ATOM      1  C   UNL     1      64.786  52.916  27.673  0.00  0.00    +0.020 A 
ATOM      2  C   UNL     1      65.623  52.770  26.504  0.00  0.00    +0.013 A 
ATOM      3  C   UNL     1      65.806  53.878  25.576  0.00  0.00    +0.019 A 
ATOM     38  C   UNL     1      65.124  55.131  25.862  0.00  0.00    +0.120 A 
ATOM     39  N   UNL     1      64.323  55.242  26.994  0.00  0.00    -0.263 NA
ATOM     40  C   UNL     1      64.138  54.181  27.894  0.00  0.00    +0.111 A 
ENDBRANCH   4   3
ENDBRANCH  10   9
BRANCH  12  13
ATOM     13  N   UNL     1      67.375  53.064  16.581  0.00  0.00    -0.281 N 
ATOM     14  C   UNL     1      66.926  53.189  15.276  0.00  0.00    +0.248 C 
ATOM     30  O   UNL     1      66.397  54.191  14.820  0.00  0.00    -0.270 OA
ATOM     31  H   UNL     1      67.615  52.120  16.884  0.00  0.00    +0.155 HD
BRANCH  14  15
ATOM     15  C   UNL     1      67.075  52.027  14.347  0.00  0.00    +0.037 A 
ATOM     16  C   UNL     1      66.503  52.055  12.999  0.00  0.00    +0.013 A 
ATOM     17  C   UNL     1      66.646  50.914  12.129  0.00  0.00    +0.005 A 
ATOM     18  C   UNL     1      67.366  49.736  12.606  0.00  0.00    -0.033 A 
ATOM     28  C   UNL     1      67.928  49.737  13.947  0.00  0.00    +0.005 A 
ATOM     29  C   UNL     1      67.789  50.853  14.802  0.00  0.00    +0.013 A 
BRANCH  18  19
ATOM     19  C   UNL     1      67.549  48.466  11.754  0.00  0.00    +0.119 C 
BRANCH  19  20
ATOM     20  N   UNL     1      67.762  47.179  12.482  0.00  0.00    -0.302 NA
ATOM     21  C   UNL     1      68.806  46.295  11.793  0.00  0.00    +0.066 C 
ATOM     22  C   UNL     1      69.032  44.963  12.580  0.00  0.00    -0.064 C 
ATOM     23  N   UNL     1      67.700  44.222  12.717  0.00  0.00    +0.379 N 
ATOM     24  C   UNL     1      67.920  42.942  13.406  0.00  0.00    -0.096 C 
ATOM     25  H   UNL     1      67.333  43.995  11.690  0.00  0.00    -0.082 HD
ATOM     26  C   UNL     1      66.656  45.095  13.399  0.00  0.00    -0.064 C 
ATOM     27  C   UNL     1      66.460  46.429  12.625  0.00  0.00    +0.066 C 
ENDBRANCH  19  20
ENDBRANCH  18  19
ENDBRANCH  14  15
ENDBRANCH  12  13
TORSDOF 6
ENDMDL
