MODEL 1
REMARK VINA RESULT:      -8.0      0.000      0.000
REMARK  Name = C:\Users\Docking\Desktop\test protocol\1iep_ligandH.pdb
REMARK  8 active torsions:
REMARK  status: ('A' for Active; 'I' for Inactive)
REMARK    1  A    between atoms: _5  and  _11
REMARK    2  A    between atoms: _19  and  _21
REMARK    3  A    between atoms: _22  and  _66
REMARK    4  A    between atoms: _27  and  _30
REMARK    5  A    between atoms: _32  and  _33
REMARK    6  A    between atoms: _38  and  _43
REMARK    7  A    between atoms: _43  and  _46
REMARK    8  A    between atoms: _53  and  _55
REMARK                            x       y       z     vdW  Elec       q    Type
REMARK                         _______ _______ _______ _____ _____    ______ ____
ROOT
ATOM     10  C   UNL     1      68.208  53.153  17.468  0.00  0.00    +0.038 A 
ATOM     11  C   UNL     1      68.701  54.367  16.926  0.00  0.00    +0.047 A 
ATOM     12  C   UNL     1      68.664  55.603  17.691  0.00  0.00    +0.035 A 
ATOM     32  C   UNL     1      68.120  55.566  19.008  0.00  0.00    +0.024 A 
ATOM     33  C   UNL     1      67.614  54.341  19.575  0.00  0.00    +0.007 A 
ATOM     34  C   UNL     1      67.646  53.119  18.823  0.00  0.00    -0.029 A 
ATOM     35  C   UNL     1      67.083  51.836  19.479  0.00  0.00    +0.045 C 
ENDROOT
BRANCH  10   9
ATOM      4  C   UNL     1      67.013  50.597  13.585  0.00  0.00    +0.077 A 
ATOM      5  C   UNL     1      66.175  51.646  13.080  0.00  0.00    +0.048 A 
ATOM      6  C   UNL     1      66.073  52.825  13.853  0.00  0.00    +0.116 A 
ATOM      7  N   UNL     1      66.763  52.935  15.041  0.00  0.00    -0.223 NA
ATOM      8  C   UNL     1      67.561  51.903  15.501  0.00  0.00    +0.220 A 
ATOM      9  N   UNL     1      68.269  51.995  16.689  0.00  0.00    -0.283 N 
ATOM     36  H   UNL     1      68.841  51.209  16.997  0.00  0.00    +0.155 HD
ATOM     37  N   UNL     1      67.673  50.767  14.782  0.00  0.00    -0.214 NA
BRANCH   4   3
ATOM      1  C   UNL     1      66.836  47.696  10.968  0.00  0.00    +0.020 A 
ATOM      2  C   UNL     1      66.598  48.970  11.606  0.00  0.00    +0.013 A 
ATOM      3  C   UNL     1      67.225  49.293  12.881  0.00  0.00    +0.019 A 
ATOM     38  C   UNL     1      68.095  48.297  13.489  0.00  0.00    +0.120 A 
ATOM     39  N   UNL     1      68.304  47.078  12.852  0.00  0.00    -0.263 NA
ATOM     40  C   UNL     1      67.705  46.755  11.625  0.00  0.00    +0.111 A 
ENDBRANCH   4   3
ENDBRANCH  10   9
BRANCH  12  13
ATOM     13  N   UNL     1      69.142  56.868  17.190  0.00  0.00    -0.281 N 
ATOM     14  C   UNL     1      70.447  57.232  16.904  0.00  0.00    +0.248 C 
ATOM     30  O   UNL     1      71.433  56.592  17.240  0.00  0.00    -0.270 OA
ATOM     31  H   UNL     1      68.431  57.581  17.026  0.00  0.00    +0.155 HD
BRANCH  14  15
ATOM     15  C   UNL     1      70.695  58.497  16.148  0.00  0.00    +0.037 A 
ATOM     16  C   UNL     1      71.675  58.553  15.060  0.00  0.00    +0.013 A 
ATOM     17  C   UNL     1      71.907  59.791  14.359  0.00  0.00    +0.005 A 
ATOM     18  C   UNL     1      71.155  60.983  14.742  0.00  0.00    -0.033 A 
ATOM     28  C   UNL     1      70.185  60.898  15.821  0.00  0.00    +0.005 A 
ATOM     29  C   UNL     1      69.956  59.687  16.512  0.00  0.00    +0.013 A 
BRANCH  18  19
ATOM     19  C   UNL     1      71.353  62.351  14.062  0.00  0.00    +0.119 C 
BRANCH  19  20
ATOM     20  N   UNL     1      71.833  62.349  12.648  0.00  0.00    -0.302 NA
ATOM     21  C   UNL     1      73.073  63.228  12.461  0.00  0.00    +0.066 C 
ATOM     22  C   UNL     1      73.576  63.196  10.981  0.00  0.00    -0.064 C 
ATOM     23  N   UNL     1      72.447  63.647  10.053  0.00  0.00    +0.379 N 
ATOM     24  C   UNL     1      72.934  63.674   8.666  0.00  0.00    -0.096 C 
ATOM     25  H   UNL     1      72.174  64.690  10.336  0.00  0.00    -0.082 HD
ATOM     26  C   UNL     1      71.209  62.780  10.234  0.00  0.00    -0.064 C 
ATOM     27  C   UNL     1      70.736  62.795  11.714  0.00  0.00    +0.066 C 
ENDBRANCH  19  20
ENDBRANCH  18  19
ENDBRANCH  14  15
ENDBRANCH  12  13
TORSDOF 6
ENDMDL
MODEL 2
REMARK VINA RESULT:      -8.0      5.853     10.324
REMARK  Name = C:\Users\Docking\Desktop\test protocol\1iep_ligandH.pdb
REMARK  8 active torsions:
REMARK  status: ('A' for Active; 'I' for Inactive)
REMARK    1  A    between atoms: _5  and  _11
REMARK    2  A    between atoms: _19  and  _21
REMARK    3  A    between atoms: _22  and  _66
REMARK    4  A    between atoms: _27  and  _30
REMARK    5  A    between atoms: _32  and  _33
REMARK    6  A    between atoms: _38  and  _43
REMARK    7  A    between atoms: _43  and  _46
REMARK    8  A    between atoms: _53  and  _55
REMARK                            x       y       z     vdW  Elec       q    Type
REMARK                         _______ _______ _______ _____ _____    ______ ____
ROOT
ATOM     10  C   UNL     1      68.314  52.249  15.836  0.00  0.00    +0.038 A 
ATOM     11  C   UNL     1      67.887  52.262  17.189  0.00  0.00    +0.047 A 
ATOM     12  C   UNL     1      67.919  53.484  17.976  0.00  0.00    +0.035 A 
ATOM     32  C   UNL     1      68.388  54.677  17.353  0.00  0.00    +0.024 A 
ATOM     33  C   UNL     1      68.826  54.683  15.980  0.00  0.00    +0.007 A 
ATOM     34  C   UNL     1      68.800  53.479  15.199  0.00  0.00    -0.029 A 
ATOM     35  C   UNL     1      69.287  53.542  13.732  0.00  0.00    +0.045 C 
ENDROOT
BRANCH  10   9
ATOM      4  C   UNL     1      66.278  49.307  12.637  0.00  0.00    +0.077 A 
ATOM      5  C   UNL     1      65.212  50.231  12.377  0.00  0.00    +0.048 A 
ATOM      6  C   UNL     1      65.221  51.450  13.092  0.00  0.00    +0.116 A 
ATOM      7  N   UNL     1      66.225  51.714  13.998  0.00  0.00    -0.223 NA
ATOM      8  C   UNL     1      67.237  50.800  14.226  0.00  0.00    +0.220 A 
ATOM      9  N   UNL     1      68.262  51.047  15.127  0.00  0.00    -0.283 N 
ATOM     36  H   UNL     1      68.986  50.344  15.273  0.00  0.00    +0.155 HD
ATOM     37  N   UNL     1      67.251  49.628  13.557  0.00  0.00    -0.214 NA
BRANCH   4   3
ATOM      1  C   UNL     1      66.716  46.534   9.913  0.00  0.00    +0.020 A 
ATOM      2  C   UNL     1      66.594  47.840  10.519  0.00  0.00    +0.013 A 
ATOM      3  C   UNL     1      66.409  47.979  11.958  0.00  0.00    +0.019 A 
ATOM     38  C   UNL     1      66.351  46.767  12.762  0.00  0.00    +0.120 A 
ATOM     39  N   UNL     1      66.469  45.523  12.150  0.00  0.00    -0.263 NA
ATOM     40  C   UNL     1      66.646  45.377  10.766  0.00  0.00    +0.111 A 
ENDBRANCH   4   3
ENDBRANCH  10   9
BRANCH  12  13
ATOM     13  N   UNL     1      67.507  53.556  19.356  0.00  0.00    -0.281 N 
ATOM     14  C   UNL     1      67.771  52.653  20.372  0.00  0.00    +0.248 C 
ATOM     30  O   UNL     1      68.225  51.531  20.199  0.00  0.00    -0.270 OA
ATOM     31  H   UNL     1      66.952  54.373  19.615  0.00  0.00    +0.155 HD
BRANCH  14  15
ATOM     15  C   UNL     1      67.475  53.046  21.783  0.00  0.00    +0.037 A 
ATOM     16  C   UNL     1      68.249  52.502  22.902  0.00  0.00    +0.013 A 
ATOM     17  C   UNL     1      67.932  52.885  24.255  0.00  0.00    +0.005 A 
ATOM     18  C   UNL     1      66.835  53.819  24.496  0.00  0.00    -0.033 A 
ATOM     28  C   UNL     1      66.087  54.347  23.368  0.00  0.00    +0.005 A 
ATOM     29  C   UNL     1      66.394  53.973  22.041  0.00  0.00    +0.013 A 
BRANCH  18  19
ATOM     19  C   UNL     1      66.413  54.267  25.909  0.00  0.00    +0.119 C 
BRANCH  19  20
ATOM     20  N   UNL     1      65.008  54.743  26.084  0.00  0.00    -0.302 NA
ATOM     21  C   UNL     1      64.937  56.259  26.290  0.00  0.00    +0.066 C 
ATOM     22  C   UNL     1      63.459  56.743  26.448  0.00  0.00    -0.064 C 
ATOM     23  N   UNL     1      62.807  56.006  27.620  0.00  0.00    +0.379 N 
ATOM     24  C   UNL     1      61.436  56.500  27.808  0.00  0.00    -0.096 C 
ATOM     25  H   UNL     1      63.386  56.254  28.539  0.00  0.00    -0.082 HD
ATOM     26  C   UNL     1      62.876  54.498  27.424  0.00  0.00    -0.064 C 
ATOM     27  C   UNL     1      64.347  54.031  27.238  0.00  0.00    +0.066 C 
ENDBRANCH  19  20
ENDBRANCH  18  19
ENDBRANCH  14  15
ENDBRANCH  12  13
TORSDOF 6
ENDMDL
MODEL 3
REMARK VINA RESULT:      -7.8      5.660     11.009
REMARK  Name = C:\Users\Docking\Desktop\test protocol\1iep_ligandH.pdb
REMARK  8 active torsions:
REMARK  status: ('A' for Active; 'I' for Inactive)
REMARK    1  A    between atoms: _5  and  _11
REMARK    2  A    between atoms: _19  and  _21
REMARK    3  A    between atoms: _22  and  _66
REMARK    4  A    between atoms: _27  and  _30
REMARK    5  A    between atoms: _32  and  _33
REMARK    6  A    between atoms: _38  and  _43
REMARK    7  A    between atoms: _43  and  _46
REMARK    8  A    between atoms: _53  and  _55
REMARK                            x       y       z     vdW  Elec       q    Type
REMARK                         _______ _______ _______ _____ _____    ______ ____
ROOT
ATOM     10  C   UNL     1      68.360  52.694  16.230  0.00  0.00    +0.038 A 
ATOM     11  C   UNL     1      67.930  52.561  17.576  0.00  0.00    +0.047 A 
ATOM     12  C   UNL     1      67.807  53.722  18.444  0.00  0.00    +0.035 A 
ATOM     32  C   UNL     1      68.127  55.003  17.908  0.00  0.00    +0.024 A 
ATOM     33  C   UNL     1      68.566  55.156  16.543  0.00  0.00    +0.007 A 
ATOM     34  C   UNL     1      68.692  54.015  15.683  0.00  0.00    -0.029 A 
ATOM     35  C   UNL     1      69.174  54.237  14.230  0.00  0.00    +0.045 C 
ENDROOT
BRANCH  10   9
ATOM      4  C   UNL     1      66.713  49.743  12.822  0.00  0.00    +0.077 A 
ATOM      5  C   UNL     1      65.539  50.543  12.614  0.00  0.00    +0.048 A 
ATOM      6  C   UNL     1      65.394  51.701  13.410  0.00  0.00    +0.116 A 
ATOM      7  N   UNL     1      66.357  52.027  14.340  0.00  0.00    -0.223 NA
ATOM      8  C   UNL     1      67.476  51.233  14.517  0.00  0.00    +0.220 A 
ATOM      9  N   UNL     1      68.460  51.546  15.441  0.00  0.00    -0.283 N 
ATOM     36  H   UNL     1      69.267  50.931  15.546  0.00  0.00    +0.155 HD
ATOM     37  N   UNL     1      67.637  50.121  13.770  0.00  0.00    -0.214 NA
BRANCH   4   3
ATOM      1  C   UNL     1      66.312  46.382  10.862  0.00  0.00    +0.020 A 
ATOM      2  C   UNL     1      65.971  47.577  11.598  0.00  0.00    +0.013 A 
ATOM      3  C   UNL     1      67.010  48.492  12.056  0.00  0.00    +0.019 A 
ATOM     38  C   UNL     1      68.394  48.165  11.749  0.00  0.00    +0.120 A 
ATOM     39  N   UNL     1      68.693  47.006  11.039  0.00  0.00    -0.263 NA
ATOM     40  C   UNL     1      67.702  46.118  10.595  0.00  0.00    +0.111 A 
ENDBRANCH   4   3
ENDBRANCH  10   9
BRANCH  12  13
ATOM     13  N   UNL     1      67.384  53.648  19.820  0.00  0.00    -0.281 N 
ATOM     14  C   UNL     1      68.055  53.075  20.888  0.00  0.00    +0.248 C 
ATOM     30  O   UNL     1      69.030  52.346  20.780  0.00  0.00    -0.270 OA
ATOM     31  H   UNL     1      66.480  54.070  20.033  0.00  0.00    +0.155 HD
BRANCH  14  15
ATOM     15  C   UNL     1      67.563  53.337  22.275  0.00  0.00    +0.037 A 
ATOM     16  C   UNL     1      68.308  52.869  23.446  0.00  0.00    +0.013 A 
ATOM     17  C   UNL     1      67.802  53.121  24.773  0.00  0.00    +0.005 A 
ATOM     18  C   UNL     1      66.545  53.847  24.934  0.00  0.00    -0.033 A 
ATOM     28  C   UNL     1      65.829  54.305  23.754  0.00  0.00    +0.005 A 
ATOM     29  C   UNL     1      66.321  54.059  22.453  0.00  0.00    +0.013 A 
BRANCH  18  19
ATOM     19  C   UNL     1      65.920  54.142  26.310  0.00  0.00    +0.119 C 
BRANCH  19  20
ATOM     20  N   UNL     1      64.539  53.630  26.559  0.00  0.00    -0.302 NA
ATOM     21  C   UNL     1      63.842  54.384  27.695  0.00  0.00    +0.066 C 
ATOM     22  C   UNL     1      62.391  53.850  27.926  0.00  0.00    -0.064 C 
ATOM     23  N   UNL     1      62.444  52.350  28.223  0.00  0.00    +0.379 N 
ATOM     24  C   UNL     1      61.087  51.857  28.499  0.00  0.00    -0.096 C 
ATOM     25  H   UNL     1      63.049  52.210  29.149  0.00  0.00    -0.082 HD
ATOM     26  C   UNL     1      63.138  51.593  27.100  0.00  0.00    -0.064 C 
ATOM     27  C   UNL     1      64.568  52.151  26.859  0.00  0.00    +0.066 C 
ENDBRANCH  19  20
ENDBRANCH  18  19
ENDBRANCH  14  15
ENDBRANCH  12  13
TORSDOF 6
ENDMDL
MODEL 4
REMARK VINA RESULT:      -7.8      1.416      2.241
REMARK  Name = C:\Users\Docking\Desktop\test protocol\1iep_ligandH.pdb
REMARK  8 active torsions:
REMARK  status: ('A' for Active; 'I' for Inactive)
REMARK    1  A    between atoms: _5  and  _11
REMARK    2  A    between atoms: _19  and  _21
REMARK    3  A    between atoms: _22  and  _66
REMARK    4  A    between atoms: _27  and  _30
REMARK    5  A    between atoms: _32  and  _33
REMARK    6  A    between atoms: _38  and  _43
REMARK    7  A    between atoms: _43  and  _46
REMARK    8  A    between atoms: _53  and  _55
REMARK                            x       y       z     vdW  Elec       q    Type
REMARK                         _______ _______ _______ _____ _____    ______ ____
ROOT
ATOM     10  C   UNL     1      68.171  53.146  17.359  0.00  0.00    +0.038 A 
ATOM     11  C   UNL     1      68.627  54.364  16.794  0.00  0.00    +0.047 A 
ATOM     12  C   UNL     1      68.565  55.610  17.543  0.00  0.00    +0.035 A 
ATOM     32  C   UNL     1      68.036  55.577  18.866  0.00  0.00    +0.024 A 
ATOM     33  C   UNL     1      67.568  54.347  19.455  0.00  0.00    +0.007 A 
ATOM     34  C   UNL     1      67.624  53.116  18.720  0.00  0.00    -0.029 A 
ATOM     35  C   UNL     1      67.102  51.828  19.399  0.00  0.00    +0.045 C 
ENDROOT
BRANCH  10   9
ATOM      4  C   UNL     1      67.051  50.528  13.495  0.00  0.00    +0.077 A 
ATOM      5  C   UNL     1      66.208  51.561  12.966  0.00  0.00    +0.048 A 
ATOM      6  C   UNL     1      66.083  52.748  13.723  0.00  0.00    +0.116 A 
ATOM      7  N   UNL     1      66.757  52.881  14.918  0.00  0.00    -0.223 NA
ATOM      8  C   UNL     1      67.561  51.864  15.400  0.00  0.00    +0.220 A 
ATOM      9  N   UNL     1      68.254  51.979  16.595  0.00  0.00    -0.283 N 
ATOM     36  H   UNL     1      68.831  51.204  16.920  0.00  0.00    +0.155 HD
ATOM     37  N   UNL     1      67.695  50.721  14.696  0.00  0.00    -0.214 NA
BRANCH   4   3
ATOM      1  C   UNL     1      66.838  47.538  10.981  0.00  0.00    +0.020 A 
ATOM      2  C   UNL     1      66.573  48.815  11.604  0.00  0.00    +0.013 A 
ATOM      3  C   UNL     1      67.286  49.218  12.810  0.00  0.00    +0.019 A 
ATOM     38  C   UNL     1      68.268  48.298  13.365  0.00  0.00    +0.120 A 
ATOM     39  N   UNL     1      68.500  47.075  12.744  0.00  0.00    -0.263 NA
ATOM     40  C   UNL     1      67.820  46.676  11.584  0.00  0.00    +0.111 A 
ENDBRANCH   4   3
ENDBRANCH  10   9
BRANCH  12  13
ATOM     13  N   UNL     1      69.005  56.879  17.019  0.00  0.00    -0.281 N 
ATOM     14  C   UNL     1      70.269  57.441  17.097  0.00  0.00    +0.248 C 
ATOM     30  O   UNL     1      71.164  57.029  17.819  0.00  0.00    -0.270 OA
ATOM     31  H   UNL     1      68.298  57.431  16.532  0.00  0.00    +0.155 HD
BRANCH  14  15
ATOM     15  C   UNL     1      70.578  58.642  16.263  0.00  0.00    +0.037 A 
ATOM     16  C   UNL     1      69.832  59.893  16.426  0.00  0.00    +0.013 A 
ATOM     17  C   UNL     1      70.139  61.031  15.597  0.00  0.00    +0.005 A 
ATOM     18  C   UNL     1      71.199  60.924  14.597  0.00  0.00    -0.033 A 
ATOM     28  C   UNL     1      71.926  59.673  14.460  0.00  0.00    +0.005 A 
ATOM     29  C   UNL     1      71.627  58.555  15.270  0.00  0.00    +0.013 A 
BRANCH  18  19
ATOM     19  C   UNL     1      71.580  62.081  13.655  0.00  0.00    +0.119 C 
BRANCH  19  20
ATOM     20  N   UNL     1      72.070  63.343  14.285  0.00  0.00    -0.302 NA
ATOM     21  C   UNL     1      70.936  64.343  14.526  0.00  0.00    +0.066 C 
ATOM     22  C   UNL     1      71.463  65.649  15.206  0.00  0.00    -0.064 C 
ATOM     23  N   UNL     1      72.556  66.269  14.334  0.00  0.00    +0.379 N 
ATOM     24  C   UNL     1      73.014  67.527  14.942  0.00  0.00    -0.096 C 
ATOM     25  H   UNL     1      72.102  66.516  13.346  0.00  0.00    -0.082 HD
ATOM     26  C   UNL     1      73.687  65.280  14.087  0.00  0.00    -0.064 C 
ATOM     27  C   UNL     1      73.148  63.975  13.438  0.00  0.00    +0.066 C 
ENDBRANCH  19  20
ENDBRANCH  18  19
ENDBRANCH  14  15
ENDBRANCH  12  13
TORSDOF 6
ENDMDL
MODEL 5
REMARK VINA RESULT:      -7.7      5.636     12.146
REMARK  Name = C:\Users\Docking\Desktop\test protocol\1iep_ligandH.pdb
REMARK  8 active torsions:
REMARK  status: ('A' for Active; 'I' for Inactive)
REMARK    1  A    between atoms: _5  and  _11
REMARK    2  A    between atoms: _19  and  _21
REMARK    3  A    between atoms: _22  and  _66
REMARK    4  A    between atoms: _27  and  _30
REMARK    5  A    between atoms: _32  and  _33
REMARK    6  A    between atoms: _38  and  _43
REMARK    7  A    between atoms: _43  and  _46
REMARK    8  A    between atoms: _53  and  _55
REMARK                            x       y       z     vdW  Elec       q    Type
REMARK                         _______ _______ _______ _____ _____    ______ ____
ROOT
ATOM     10  C   UNL     1      67.276  55.218  19.537  0.00  0.00    +0.038 A 
ATOM     11  C   UNL     1      66.896  54.184  18.644  0.00  0.00    +0.047 A 
ATOM     12  C   UNL     1      67.463  54.098  17.307  0.00  0.00    +0.035 A 
ATOM     32  C   UNL     1      68.417  55.081  16.914  0.00  0.00    +0.024 A 
ATOM     33  C   UNL     1      68.814  56.140  17.808  0.00  0.00    +0.007 A 
ATOM     34  C   UNL     1      68.256  56.232  19.127  0.00  0.00    -0.029 A 
ATOM     35  C   UNL     1      68.713  57.392  20.041  0.00  0.00    +0.045 C 
ENDROOT
BRANCH  10   9
ATOM      4  C   UNL     1      66.985  53.741  24.094  0.00  0.00    +0.077 A 
ATOM      5  C   UNL     1      68.054  52.800  23.919  0.00  0.00    +0.048 A 
ATOM      6  C   UNL     1      68.648  52.723  22.639  0.00  0.00    +0.116 A 
ATOM      7  N   UNL     1      68.197  53.531  21.618  0.00  0.00    -0.223 NA
ATOM      8  C   UNL     1      67.163  54.426  21.819  0.00  0.00    +0.220 A 
ATOM      9  N   UNL     1      66.699  55.253  20.808  0.00  0.00    -0.283 N 
ATOM     36  H   UNL     1      65.929  55.895  20.995  0.00  0.00    +0.155 HD
ATOM     37  N   UNL     1      66.578  54.517  23.032  0.00  0.00    -0.214 NA
BRANCH   4   3
ATOM      1  C   UNL     1      64.700  55.221  26.902  0.00  0.00    +0.020 A 
ATOM      2  C   UNL     1      65.377  55.075  25.634  0.00  0.00    +0.013 A 
ATOM      3  C   UNL     1      66.260  53.941  25.388  0.00  0.00    +0.019 A 
ATOM     38  C   UNL     1      66.436  52.966  26.454  0.00  0.00    +0.120 A 
ATOM     39  N   UNL     1      65.772  53.134  27.665  0.00  0.00    -0.263 NA
ATOM     40  C   UNL     1      64.922  54.222  27.914  0.00  0.00    +0.111 A 
ENDBRANCH   4   3
ENDBRANCH  10   9
BRANCH  12  13
ATOM     13  N   UNL     1      67.110  53.075  16.354  0.00  0.00    -0.281 N 
ATOM     14  C   UNL     1      66.671  53.240  15.051  0.00  0.00    +0.248 C 
ATOM     30  O   UNL     1      66.310  54.305  14.573  0.00  0.00    -0.270 OA
ATOM     31  H   UNL     1      67.194  52.112  16.680  0.00  0.00    +0.155 HD
BRANCH  14  15
ATOM     15  C   UNL     1      66.612  52.047  14.152  0.00  0.00    +0.037 A 
ATOM     16  C   UNL     1      65.628  51.960  13.070  0.00  0.00    +0.013 A 
ATOM     17  C   UNL     1      65.581  50.791  12.228  0.00  0.00    +0.005 A 
ATOM     18  C   UNL     1      66.523  49.699  12.465  0.00  0.00    -0.033 A 
ATOM     28  C   UNL     1      67.491  49.814  13.543  0.00  0.00    +0.005 A 
ATOM     29  C   UNL     1      67.540  50.958  14.371  0.00  0.00    +0.013 A 
BRANCH  18  19
ATOM     19  C   UNL     1      66.530  48.405  11.630  0.00  0.00    +0.119 C 
BRANCH  19  20
ATOM     20  N   UNL     1      67.330  47.258  12.155  0.00  0.00    -0.302 NA
ATOM     21  C   UNL     1      68.080  46.523  11.040  0.00  0.00    +0.066 C 
ATOM     22  C   UNL     1      68.929  45.340  11.608  0.00  0.00    -0.064 C 
ATOM     23  N   UNL     1      68.014  44.379  12.370  0.00  0.00    +0.379 N 
ATOM     24  C   UNL     1      68.800  43.236  12.857  0.00  0.00    -0.096 C 
ATOM     25  H   UNL     1      67.259  43.989  11.649  0.00  0.00    -0.082 HD
ATOM     26  C   UNL     1      67.263  45.102  13.479  0.00  0.00    -0.064 C 
ATOM     27  C   UNL     1      66.446  46.294  12.907  0.00  0.00    +0.066 C 
ENDBRANCH  19  20
ENDBRANCH  18  19
ENDBRANCH  14  15
ENDBRANCH  12  13
TORSDOF 6
ENDMDL
