MODEL 1
REMARK VINA RESULT:      -8.0      0.000      0.000
REMARK  Name = C:\Users\Docking\Desktop\test protocol\1iep_ligandH.pdb
REMARK  8 active torsions:
REMARK  status: ('A' for Active; 'I' for Inactive)
REMARK    1  A    between atoms: _5  and  _11
REMARK    2  A    between atoms: _19  and  _21
REMARK    3  A    between atoms: _22  and  _66
REMARK    4  A    between atoms: _27  and  _30
REMARK    5  A    between atoms: _32  and  _33
REMARK    6  A    between atoms: _38  and  _43
REMARK    7  A    between atoms: _43  and  _46
REMARK    8  A    between atoms: _53  and  _55
REMARK                            x       y       z     vdW  Elec       q    Type
REMARK                         _______ _______ _______ _____ _____    ______ ____
ROOT
ATOM     10  C   UNL     1      68.527  52.516  15.696  0.00  0.00    +0.038 A 
ATOM     11  C   UNL     1      68.106  52.486  17.050  0.00  0.00    +0.047 A 
ATOM     12  C   UNL     1      68.080  53.696  17.856  0.00  0.00    +0.035 A 
ATOM     32  C   UNL     1      68.487  54.921  17.251  0.00  0.00    +0.024 A 
ATOM     33  C   UNL     1      68.918  54.969  15.876  0.00  0.00    +0.007 A 
ATOM     34  C   UNL     1      68.949  53.778  15.076  0.00  0.00    -0.029 A 
ATOM     35  C   UNL     1      69.427  53.887  13.610  0.00  0.00    +0.045 C 
ENDROOT
BRANCH  10   9
ATOM      4  C   UNL     1      66.518  49.422  12.626  0.00  0.00    +0.077 A 
ATOM      5  C   UNL     1      65.346  50.236  12.480  0.00  0.00    +0.048 A 
ATOM      6  C   UNL     1      65.296  51.440  13.218  0.00  0.00    +0.116 A 
ATOM      7  N   UNL     1      66.346  51.793  14.037  0.00  0.00    -0.223 NA
ATOM      8  C   UNL     1      67.462  50.984  14.156  0.00  0.00    +0.220 A 
ATOM      9  N   UNL     1      68.533  51.324  14.968  0.00  0.00    -0.283 N 
ATOM     36  H   UNL     1      69.334  50.696  15.034  0.00  0.00    +0.155 HD
ATOM     37  N   UNL     1      67.532  49.829  13.463  0.00  0.00    -0.214 NA
BRANCH   4   3
ATOM      1  C   UNL     1      67.458  46.758   9.921  0.00  0.00    +0.020 A 
ATOM      2  C   UNL     1      67.284  48.037  10.568  0.00  0.00    +0.013 A 
ATOM      3  C   UNL     1      66.720  48.123  11.909  0.00  0.00    +0.019 A 
ATOM     38  C   UNL     1      66.340  46.885  12.573  0.00  0.00    +0.120 A 
ATOM     39  N   UNL     1      66.519  45.667  11.924  0.00  0.00    -0.263 NA
ATOM     40  C   UNL     1      67.059  45.573  10.633  0.00  0.00    +0.111 A 
ENDBRANCH   4   3
ENDBRANCH  10   9
BRANCH  12  13
ATOM     13  N   UNL     1      67.670  53.726  19.239  0.00  0.00    -0.281 N 
ATOM     14  C   UNL     1      68.006  52.836  20.246  0.00  0.00    +0.248 C 
ATOM     30  O   UNL     1      68.541  51.753  20.061  0.00  0.00    -0.270 OA
ATOM     31  H   UNL     1      67.058  54.497  19.507  0.00  0.00    +0.155 HD
BRANCH  14  15
ATOM     15  C   UNL     1      67.688  53.195  21.662  0.00  0.00    +0.037 A 
ATOM     16  C   UNL     1      68.506  52.702  22.772  0.00  0.00    +0.013 A 
ATOM     17  C   UNL     1      68.168  53.049  24.130  0.00  0.00    +0.005 A 
ATOM     18  C   UNL     1      67.006  53.896  24.384  0.00  0.00    -0.033 A 
ATOM     28  C   UNL     1      66.214  54.376  23.263  0.00  0.00    +0.005 A 
ATOM     29  C   UNL     1      66.542  54.037  21.931  0.00  0.00    +0.013 A 
BRANCH  18  19
ATOM     19  C   UNL     1      66.558  54.300  25.801  0.00  0.00    +0.119 C 
BRANCH  19  20
ATOM     20  N   UNL     1      65.189  54.879  25.947  0.00  0.00    -0.302 NA
ATOM     21  C   UNL     1      65.222  56.404  26.081  0.00  0.00    +0.066 C 
ATOM     22  C   UNL     1      63.780  56.995  26.211  0.00  0.00    -0.064 C 
ATOM     23  N   UNL     1      63.078  56.360  27.413  0.00  0.00    +0.379 N 
ATOM     24  C   UNL     1      61.744  56.956  27.572  0.00  0.00    -0.096 C 
ATOM     25  H   UNL     1      63.672  56.612  28.322  0.00  0.00    -0.082 HD
ATOM     26  C   UNL     1      63.044  54.844  27.289  0.00  0.00    -0.064 C 
ATOM     27  C   UNL     1      64.479  54.269  27.131  0.00  0.00    +0.066 C 
ENDBRANCH  19  20
ENDBRANCH  18  19
ENDBRANCH  14  15
ENDBRANCH  12  13
TORSDOF 6
ENDMDL
MODEL 2
REMARK VINA RESULT:      -7.8      1.198      1.652
REMARK  Name = C:\Users\Docking\Desktop\test protocol\1iep_ligandH.pdb
REMARK  8 active torsions:
REMARK  status: ('A' for Active; 'I' for Inactive)
REMARK    1  A    between atoms: _5  and  _11
REMARK    2  A    between atoms: _19  and  _21
REMARK    3  A    between atoms: _22  and  _66
REMARK    4  A    between atoms: _27  and  _30
REMARK    5  A    between atoms: _32  and  _33
REMARK    6  A    between atoms: _38  and  _43
REMARK    7  A    between atoms: _43  and  _46
REMARK    8  A    between atoms: _53  and  _55
REMARK                            x       y       z     vdW  Elec       q    Type
REMARK                         _______ _______ _______ _____ _____    ______ ____
ROOT
ATOM     10  C   UNL     1      68.402  52.532  15.927  0.00  0.00    +0.038 A 
ATOM     11  C   UNL     1      68.014  52.432  17.288  0.00  0.00    +0.047 A 
ATOM     12  C   UNL     1      67.911  53.614  18.129  0.00  0.00    +0.035 A 
ATOM     32  C   UNL     1      68.208  54.883  17.551  0.00  0.00    +0.024 A 
ATOM     33  C   UNL     1      68.605  55.003  16.171  0.00  0.00    +0.007 A 
ATOM     34  C   UNL     1      68.711  53.840  15.336  0.00  0.00    -0.029 A 
ATOM     35  C   UNL     1      69.148  54.027  13.865  0.00  0.00    +0.045 C 
ENDROOT
BRANCH  10   9
ATOM      4  C   UNL     1      66.637  49.451  12.698  0.00  0.00    +0.077 A 
ATOM      5  C   UNL     1      65.436  50.219  12.535  0.00  0.00    +0.048 A 
ATOM      6  C   UNL     1      65.309  51.396  13.306  0.00  0.00    +0.116 A 
ATOM      7  N   UNL     1      66.314  51.768  14.172  0.00  0.00    -0.223 NA
ATOM      8  C   UNL     1      67.458  51.005  14.306  0.00  0.00    +0.220 A 
ATOM      9  N   UNL     1      68.485  51.364  15.165  0.00  0.00    -0.283 N 
ATOM     36  H   UNL     1      69.311  50.770  15.241  0.00  0.00    +0.155 HD
ATOM     37  N   UNL     1      67.604  49.875  13.582  0.00  0.00    -0.214 NA
BRANCH   4   3
ATOM      1  C   UNL     1      66.822  45.679  11.680  0.00  0.00    +0.020 A 
ATOM      2  C   UNL     1      66.524  46.871  12.440  0.00  0.00    +0.013 A 
ATOM      3  C   UNL     1      66.921  48.185  11.951  0.00  0.00    +0.019 A 
ATOM     38  C   UNL     1      67.622  48.259  10.678  0.00  0.00    +0.120 A 
ATOM     39  N   UNL     1      67.896  47.094   9.968  0.00  0.00    -0.263 NA
ATOM     40  C   UNL     1      67.520  45.824  10.430  0.00  0.00    +0.111 A 
ENDBRANCH   4   3
ENDBRANCH  10   9
BRANCH  12  13
ATOM     13  N   UNL     1      67.529  53.574  19.519  0.00  0.00    -0.281 N 
ATOM     14  C   UNL     1      68.263  53.090  20.590  0.00  0.00    +0.248 C 
ATOM     30  O   UNL     1      69.279  52.418  20.485  0.00  0.00    -0.270 OA
ATOM     31  H   UNL     1      66.606  53.948  19.741  0.00  0.00    +0.155 HD
BRANCH  14  15
ATOM     15  C   UNL     1      67.792  53.381  21.978  0.00  0.00    +0.037 A 
ATOM     16  C   UNL     1      68.546  52.923  23.148  0.00  0.00    +0.013 A 
ATOM     17  C   UNL     1      68.061  53.203  24.476  0.00  0.00    +0.005 A 
ATOM     18  C   UNL     1      66.815  53.947  24.641  0.00  0.00    -0.033 A 
ATOM     28  C   UNL     1      66.090  54.394  23.464  0.00  0.00    +0.005 A 
ATOM     29  C   UNL     1      66.561  54.121  22.160  0.00  0.00    +0.013 A 
BRANCH  18  19
ATOM     19  C   UNL     1      66.211  54.272  26.021  0.00  0.00    +0.119 C 
BRANCH  19  20
ATOM     20  N   UNL     1      64.833  53.770  26.300  0.00  0.00    -0.302 NA
ATOM     21  C   UNL     1      64.127  54.598  27.377  0.00  0.00    +0.066 C 
ATOM     22  C   UNL     1      62.678  54.072  27.641  0.00  0.00    -0.064 C 
ATOM     23  N   UNL     1      62.739  52.598  28.044  0.00  0.00    +0.379 N 
ATOM     24  C   UNL     1      61.384  52.116  28.348  0.00  0.00    -0.096 C 
ATOM     25  H   UNL     1      63.341  52.528  28.979  0.00  0.00    -0.082 HD
ATOM     26  C   UNL     1      63.442  51.768  26.979  0.00  0.00    -0.064 C 
ATOM     27  C   UNL     1      64.870  52.316  26.704  0.00  0.00    +0.066 C 
ENDBRANCH  19  20
ENDBRANCH  18  19
ENDBRANCH  14  15
ENDBRANCH  12  13
TORSDOF 6
ENDMDL
MODEL 3
REMARK VINA RESULT:      -7.7     21.048     23.642
REMARK  Name = C:\Users\Docking\Desktop\test protocol\1iep_ligandH.pdb
REMARK  8 active torsions:
REMARK  status: ('A' for Active; 'I' for Inactive)
REMARK    1  A    between atoms: _5  and  _11
REMARK    2  A    between atoms: _19  and  _21
REMARK    3  A    between atoms: _22  and  _66
REMARK    4  A    between atoms: _27  and  _30
REMARK    5  A    between atoms: _32  and  _33
REMARK    6  A    between atoms: _38  and  _43
REMARK    7  A    between atoms: _43  and  _46
REMARK    8  A    between atoms: _53  and  _55
REMARK                            x       y       z     vdW  Elec       q    Type
REMARK                         _______ _______ _______ _____ _____    ______ ____
ROOT
ATOM     10  C   UNL     1      70.011  70.354   1.221  0.00  0.00    +0.038 A 
ATOM     11  C   UNL     1      70.799  70.303   2.399  0.00  0.00    +0.047 A 
ATOM     12  C   UNL     1      72.227  70.574   2.361  0.00  0.00    +0.035 A 
ATOM     32  C   UNL     1      72.821  70.897   1.106  0.00  0.00    +0.024 A 
ATOM     33  C   UNL     1      72.034  70.952  -0.101  0.00  0.00    +0.007 A 
ATOM     34  C   UNL     1      70.625  70.683  -0.070  0.00  0.00    -0.029 A 
ATOM     35  C   UNL     1      69.833  70.751  -1.397  0.00  0.00    +0.045 C 
ENDROOT
BRANCH  10   9
ATOM      4  C   UNL     1      66.200  68.550   3.516  0.00  0.00    +0.077 A 
ATOM      5  C   UNL     1      67.005  68.080   4.607  0.00  0.00    +0.048 A 
ATOM      6  C   UNL     1      68.397  68.317   4.535  0.00  0.00    +0.116 A 
ATOM      7  N   UNL     1      68.932  68.975   3.449  0.00  0.00    -0.223 NA
ATOM      8  C   UNL     1      68.127  69.414   2.414  0.00  0.00    +0.220 A 
ATOM      9  N   UNL     1      68.643  70.085   1.316  0.00  0.00    -0.283 N 
ATOM     36  H   UNL     1      68.018  70.386   0.569  0.00  0.00    +0.155 HD
ATOM     37  N   UNL     1      66.796  69.199   2.458  0.00  0.00    -0.214 NA
BRANCH   4   3
ATOM      1  C   UNL     1      62.381  68.722   4.342  0.00  0.00    +0.020 A 
ATOM      2  C   UNL     1      63.808  68.915   4.456  0.00  0.00    +0.013 A 
ATOM      3  C   UNL     1      64.715  68.379   3.448  0.00  0.00    +0.019 A 
ATOM     38  C   UNL     1      64.140  67.648   2.328  0.00  0.00    +0.120 A 
ATOM     39  N   UNL     1      62.761  67.477   2.246  0.00  0.00    -0.263 NA
ATOM     40  C   UNL     1      61.880  67.986   3.211  0.00  0.00    +0.111 A 
ENDBRANCH   4   3
ENDBRANCH  10   9
BRANCH  12  13
ATOM     13  N   UNL     1      73.080  70.529   3.523  0.00  0.00    -0.281 N 
ATOM     14  C   UNL     1      73.875  69.481   3.956  0.00  0.00    +0.248 C 
ATOM     30  O   UNL     1      73.810  68.339   3.524  0.00  0.00    -0.270 OA
ATOM     31  H   UNL     1      73.099  71.372   4.097  0.00  0.00    +0.155 HD
BRANCH  14  15
ATOM     15  C   UNL     1      74.879  69.733   5.035  0.00  0.00    +0.037 A 
ATOM     16  C   UNL     1      74.741  70.869   5.950  0.00  0.00    +0.013 A 
ATOM     17  C   UNL     1      75.732  71.099   6.971  0.00  0.00    +0.005 A 
ATOM     18  C   UNL     1      76.870  70.189   7.083  0.00  0.00    -0.033 A 
ATOM     28  C   UNL     1      76.979  69.067   6.165  0.00  0.00    +0.005 A 
ATOM     29  C   UNL     1      76.010  68.839   5.163  0.00  0.00    +0.013 A 
BRANCH  18  19
ATOM     19  C   UNL     1      77.986  70.370   8.129  0.00  0.00    +0.119 C 
BRANCH  19  20
ATOM     20  N   UNL     1      77.663  70.014   9.542  0.00  0.00    -0.302 NA
ATOM     21  C   UNL     1      78.443  70.870  10.544  0.00  0.00    +0.066 C 
ATOM     22  C   UNL     1      78.076  70.499  12.017  0.00  0.00    -0.064 C 
ATOM     23  N   UNL     1      78.349  69.012  12.249  0.00  0.00    +0.379 N 
ATOM     24  C   UNL     1      78.059  68.673  13.650  0.00  0.00    -0.096 C 
ATOM     25  H   UNL     1      79.436  68.837  12.076  0.00  0.00    -0.082 HD
ATOM     26  C   UNL     1      77.579  68.153  11.256  0.00  0.00    -0.064 C 
ATOM     27  C   UNL     1      77.929  68.550   9.794  0.00  0.00    +0.066 C 
ENDBRANCH  19  20
ENDBRANCH  18  19
ENDBRANCH  14  15
ENDBRANCH  12  13
TORSDOF 6
ENDMDL
MODEL 4
REMARK VINA RESULT:      -7.7      0.993      1.399
REMARK  Name = C:\Users\Docking\Desktop\test protocol\1iep_ligandH.pdb
REMARK  8 active torsions:
REMARK  status: ('A' for Active; 'I' for Inactive)
REMARK    1  A    between atoms: _5  and  _11
REMARK    2  A    between atoms: _19  and  _21
REMARK    3  A    between atoms: _22  and  _66
REMARK    4  A    between atoms: _27  and  _30
REMARK    5  A    between atoms: _32  and  _33
REMARK    6  A    between atoms: _38  and  _43
REMARK    7  A    between atoms: _43  and  _46
REMARK    8  A    between atoms: _53  and  _55
REMARK                            x       y       z     vdW  Elec       q    Type
REMARK                         _______ _______ _______ _____ _____    ______ ____
ROOT
ATOM     10  C   UNL     1      68.512  52.469  15.699  0.00  0.00    +0.038 A 
ATOM     11  C   UNL     1      68.062  52.451  17.044  0.00  0.00    +0.047 A 
ATOM     12  C   UNL     1      68.011  53.669  17.837  0.00  0.00    +0.035 A 
ATOM     32  C   UNL     1      68.425  54.889  17.229  0.00  0.00    +0.024 A 
ATOM     33  C   UNL     1      68.887  54.926  15.863  0.00  0.00    +0.007 A 
ATOM     34  C   UNL     1      68.941  53.727  15.076  0.00  0.00    -0.029 A 
ATOM     35  C   UNL     1      69.451  53.825  13.620  0.00  0.00    +0.045 C 
ENDROOT
BRANCH  10   9
ATOM      4  C   UNL     1      66.569  49.316  12.647  0.00  0.00    +0.077 A 
ATOM      5  C   UNL     1      65.386  50.111  12.485  0.00  0.00    +0.048 A 
ATOM      6  C   UNL     1      65.314  51.322  13.211  0.00  0.00    +0.116 A 
ATOM      7  N   UNL     1      66.354  51.698  14.033  0.00  0.00    -0.223 NA
ATOM      8  C   UNL     1      67.480  50.907  14.168  0.00  0.00    +0.220 A 
ATOM      9  N   UNL     1      68.540  51.270  14.983  0.00  0.00    -0.283 N 
ATOM     36  H   UNL     1      69.350  50.655  15.061  0.00  0.00    +0.155 HD
ATOM     37  N   UNL     1      67.572  49.746  13.487  0.00  0.00    -0.214 NA
BRANCH   4   3
ATOM      1  C   UNL     1      66.827  45.491  11.867  0.00  0.00    +0.020 A 
ATOM      2  C   UNL     1      66.595  46.721  12.589  0.00  0.00    +0.013 A 
ATOM      3  C   UNL     1      66.795  48.013  11.945  0.00  0.00    +0.019 A 
ATOM     38  C   UNL     1      67.232  48.026  10.557  0.00  0.00    +0.120 A 
ATOM     39  N   UNL     1      67.448  46.826   9.887  0.00  0.00    -0.263 NA
ATOM     40  C   UNL     1      67.261  45.577  10.497  0.00  0.00    +0.111 A 
ENDBRANCH   4   3
ENDBRANCH  10   9
BRANCH  12  13
ATOM     13  N   UNL     1      67.570  53.710  19.210  0.00  0.00    -0.281 N 
ATOM     14  C   UNL     1      68.004  52.928  20.267  0.00  0.00    +0.248 C 
ATOM     30  O   UNL     1      68.689  51.923  20.148  0.00  0.00    -0.270 OA
ATOM     31  H   UNL     1      66.851  54.399  19.428  0.00  0.00    +0.155 HD
BRANCH  14  15
ATOM     15  C   UNL     1      67.609  53.309  21.657  0.00  0.00    +0.037 A 
ATOM     16  C   UNL     1      68.401  52.888  22.816  0.00  0.00    +0.013 A 
ATOM     17  C   UNL     1      67.988  53.255  24.147  0.00  0.00    +0.005 A 
ATOM     18  C   UNL     1      66.775  54.050  24.326  0.00  0.00    -0.033 A 
ATOM     28  C   UNL     1      66.010  54.458  23.160  0.00  0.00    +0.005 A 
ATOM     29  C   UNL     1      66.412  54.099  21.853  0.00  0.00    +0.013 A 
BRANCH  18  19
ATOM     19  C   UNL     1      66.247  54.469  25.711  0.00  0.00    +0.119 C 
BRANCH  19  20
ATOM     20  N   UNL     1      65.847  55.897  25.887  0.00  0.00    -0.302 NA
ATOM     21  C   UNL     1      66.800  56.651  26.818  0.00  0.00    +0.066 C 
ATOM     22  C   UNL     1      66.380  58.148  26.973  0.00  0.00    -0.064 C 
ATOM     23  N   UNL     1      64.944  58.221  27.494  0.00  0.00    +0.379 N 
ATOM     24  C   UNL     1      64.565  59.627  27.696  0.00  0.00    -0.096 C 
ATOM     25  H   UNL     1      64.920  57.718  28.489  0.00  0.00    -0.082 HD
ATOM     26  C   UNL     1      63.989  57.471  26.576  0.00  0.00    -0.064 C 
ATOM     27  C   UNL     1      64.433  55.992  26.406  0.00  0.00    +0.066 C 
ENDBRANCH  19  20
ENDBRANCH  18  19
ENDBRANCH  14  15
ENDBRANCH  12  13
TORSDOF 6
ENDMDL
MODEL 5
REMARK VINA RESULT:      -7.7     22.102     24.844
REMARK  Name = C:\Users\Docking\Desktop\test protocol\1iep_ligandH.pdb
REMARK  8 active torsions:
REMARK  status: ('A' for Active; 'I' for Inactive)
REMARK    1  A    between atoms: _5  and  _11
REMARK    2  A    between atoms: _19  and  _21
REMARK    3  A    between atoms: _22  and  _66
REMARK    4  A    between atoms: _27  and  _30
REMARK    5  A    between atoms: _32  and  _33
REMARK    6  A    between atoms: _38  and  _43
REMARK    7  A    between atoms: _43  and  _46
REMARK    8  A    between atoms: _53  and  _55
REMARK                            x       y       z     vdW  Elec       q    Type
REMARK                         _______ _______ _______ _____ _____    ______ ____
ROOT
ATOM     10  C   UNL     1      64.324  67.878   1.252  0.00  0.00    +0.038 A 
ATOM     11  C   UNL     1      65.710  68.048   1.504  0.00  0.00    +0.047 A 
ATOM     12  C   UNL     1      66.187  68.543   2.785  0.00  0.00    +0.035 A 
ATOM     32  C   UNL     1      65.225  68.853   3.791  0.00  0.00    +0.024 A 
ATOM     33  C   UNL     1      63.813  68.687   3.552  0.00  0.00    +0.007 A 
ATOM     34  C   UNL     1      63.336  68.201   2.289  0.00  0.00    -0.029 A 
ATOM     35  C   UNL     1      61.811  68.049   2.086  0.00  0.00    +0.045 C 
ENDROOT
BRANCH  10   9
ATOM      4  C   UNL     1      63.046  68.546  -3.325  0.00  0.00    +0.077 A 
ATOM      5  C   UNL     1      63.164  69.971  -3.212  0.00  0.00    +0.048 A 
ATOM      6  C   UNL     1      63.549  70.493  -1.957  0.00  0.00    +0.116 A 
ATOM      7  N   UNL     1      63.796  69.643  -0.900  0.00  0.00    -0.223 NA
ATOM      8  C   UNL     1      63.671  68.273  -1.043  0.00  0.00    +0.220 A 
ATOM      9  N   UNL     1      63.922  67.399   0.004  0.00  0.00    -0.283 N 
ATOM     36  H   UNL     1      63.812  66.396  -0.140  0.00  0.00    +0.155 HD
ATOM     37  N   UNL     1      63.303  67.751  -2.231  0.00  0.00    -0.214 NA
BRANCH   4   3
ATOM      1  C   UNL     1      62.210  67.788  -7.071  0.00  0.00    +0.020 A 
ATOM      2  C   UNL     1      62.597  68.512  -5.882  0.00  0.00    +0.013 A 
ATOM      3  C   UNL     1      62.652  67.844  -4.588  0.00  0.00    +0.019 A 
ATOM     38  C   UNL     1      62.307  66.431  -4.530  0.00  0.00    +0.120 A 
ATOM     39  N   UNL     1      61.937  65.760  -5.691  0.00  0.00    -0.263 NA
ATOM     40  C   UNL     1      61.879  66.393  -6.942  0.00  0.00    +0.111 A 
ENDBRANCH   4   3
ENDBRANCH  10   9
BRANCH  12  13
ATOM     13  N   UNL     1      67.581  68.743   3.095  0.00  0.00    -0.281 N 
ATOM     14  C   UNL     1      68.279  68.301   4.207  0.00  0.00    +0.248 C 
ATOM     30  O   UNL     1      67.757  67.844   5.214  0.00  0.00    -0.270 OA
ATOM     31  H   UNL     1      68.119  69.277   2.412  0.00  0.00    +0.155 HD
BRANCH  14  15
ATOM     15  C   UNL     1      69.771  68.391   4.207  0.00  0.00    +0.037 A 
ATOM     16  C   UNL     1      70.494  69.019   3.098  0.00  0.00    +0.013 A 
ATOM     17  C   UNL     1      71.934  69.078   3.115  0.00  0.00    +0.005 A 
ATOM     18  C   UNL     1      72.661  68.507   4.246  0.00  0.00    -0.033 A 
ATOM     28  C   UNL     1      71.918  67.895   5.335  0.00  0.00    +0.005 A 
ATOM     29  C   UNL     1      70.507  67.834   5.322  0.00  0.00    +0.013 A 
BRANCH  18  19
ATOM     19  C   UNL     1      74.198  68.506   4.338  0.00  0.00    +0.119 C 
BRANCH  19  20
ATOM     20  N   UNL     1      74.827  69.468   5.292  0.00  0.00    -0.302 NA
ATOM     21  C   UNL     1      74.660  70.920   4.837  0.00  0.00    +0.066 C 
ATOM     22  C   UNL     1      75.304  71.914   5.859  0.00  0.00    -0.064 C 
ATOM     23  N   UNL     1      76.783  71.569   6.038  0.00  0.00    +0.379 N 
ATOM     24  C   UNL     1      77.405  72.537   6.953  0.00  0.00    -0.096 C 
ATOM     25  H   UNL     1      77.278  71.676   5.044  0.00  0.00    -0.082 HD
ATOM     26  C   UNL     1      76.959  70.126   6.487  0.00  0.00    -0.064 C 
ATOM     27  C   UNL     1      76.290  69.148   5.480  0.00  0.00    +0.066 C 
ENDBRANCH  19  20
ENDBRANCH  18  19
ENDBRANCH  14  15
ENDBRANCH  12  13
TORSDOF 6
ENDMDL
