MODEL 1
REMARK VINA RESULT:      -8.7      0.000      0.000
REMARK  Name = C:\Users\Docking\Desktop\test protocol\1iep_ligandH.pdb
REMARK  8 active torsions:
REMARK  status: ('A' for Active; 'I' for Inactive)
REMARK    1  A    between atoms: _5  and  _11
REMARK    2  A    between atoms: _19  and  _21
REMARK    3  A    between atoms: _22  and  _66
REMARK    4  A    between atoms: _27  and  _30
REMARK    5  A    between atoms: _32  and  _33
REMARK    6  A    between atoms: _38  and  _43
REMARK    7  A    between atoms: _43  and  _46
REMARK    8  A    between atoms: _53  and  _55
REMARK                            x       y       z     vdW  Elec       q    Type
REMARK                         _______ _______ _______ _____ _____    ______ ____
ROOT
ATOM     10  C   UNL     1      -9.220 -14.459   8.072  0.00  0.00    +0.038 A 
ATOM     11  C   UNL     1      -9.627 -13.714   6.936  0.00  0.00    +0.047 A 
ATOM     12  C   UNL     1     -10.322 -14.351   5.828  0.00  0.00    +0.035 A 
ATOM     32  C   UNL     1     -10.588 -15.749   5.912  0.00  0.00    +0.024 A 
ATOM     33  C   UNL     1     -10.181 -16.522   7.059  0.00  0.00    +0.007 A 
ATOM     34  C   UNL     1      -9.493 -15.899   8.154  0.00  0.00    -0.029 A 
ATOM     35  C   UNL     1      -9.073 -16.777   9.355  0.00  0.00    +0.045 C 
ENDROOT
BRANCH  10   9
ATOM      4  C   UNL     1      -5.242 -13.322  10.505  0.00  0.00    +0.077 A 
ATOM      5  C   UNL     1      -4.420 -14.139   9.660  0.00  0.00    +0.048 A 
ATOM      6  C   UNL     1      -5.061 -14.841   8.615  0.00  0.00    +0.116 A 
ATOM      7  N   UNL     1      -6.423 -14.727   8.437  0.00  0.00    -0.223 NA
ATOM      8  C   UNL     1      -7.187 -13.932   9.272  0.00  0.00    +0.220 A 
ATOM      9  N   UNL     1      -8.556 -13.796   9.107  0.00  0.00    -0.283 N 
ATOM     36  H   UNL     1      -9.085 -13.205   9.748  0.00  0.00    +0.155 HD
ATOM     37  N   UNL     1      -6.599 -13.252  10.278  0.00  0.00    -0.214 NA
BRANCH   4   3
ATOM      1  C   UNL     1      -2.891 -11.215  12.815  0.00  0.00    +0.020 A 
ATOM      2  C   UNL     1      -3.354 -11.988  11.685  0.00  0.00    +0.013 A 
ATOM      3  C   UNL     1      -4.712 -12.517  11.651  0.00  0.00    +0.019 A 
ATOM     38  C   UNL     1      -5.583 -12.244  12.784  0.00  0.00    +0.120 A 
ATOM     39  N   UNL     1      -5.109 -11.498  13.859  0.00  0.00    -0.263 NA
ATOM     40  C   UNL     1      -3.804 -10.985  13.904  0.00  0.00    +0.111 A 
ENDBRANCH   4   3
ENDBRANCH  10   9
BRANCH  12  13
ATOM     13  N   UNL     1     -10.753 -13.648   4.645  0.00  0.00    -0.281 N 
ATOM     14  C   UNL     1     -11.966 -13.018   4.423  0.00  0.00    +0.248 C 
ATOM     30  O   UNL     1     -12.952 -13.147   5.134  0.00  0.00    -0.270 OA
ATOM     31  H   UNL     1     -10.081 -13.611   3.878  0.00  0.00    +0.155 HD
BRANCH  14  15
ATOM     15  C   UNL     1     -12.110 -12.126   3.232  0.00  0.00    +0.037 A 
ATOM     16  C   UNL     1     -13.005 -12.474   2.126  0.00  0.00    +0.013 A 
ATOM     17  C   UNL     1     -13.112 -11.605   0.981  0.00  0.00    +0.005 A 
ATOM     18  C   UNL     1     -12.321 -10.377   0.938  0.00  0.00    -0.033 A 
ATOM     28  C   UNL     1     -11.445 -10.054   2.051  0.00  0.00    +0.005 A 
ATOM     29  C   UNL     1     -11.336 -10.904   3.175  0.00  0.00    +0.013 A 
BRANCH  18  19
ATOM     19  C   UNL     1     -12.356  -9.401  -0.253  0.00  0.00    +0.119 C 
BRANCH  19  20
ATOM     20  N   UNL     1     -11.076  -9.171  -0.986  0.00  0.00    -0.302 NA
ATOM     21  C   UNL     1     -10.430  -7.835  -0.609  0.00  0.00    +0.066 C 
ATOM     22  C   UNL     1      -9.080  -7.620  -1.368  0.00  0.00    -0.064 C 
ATOM     23  N   UNL     1      -9.328  -7.695  -2.875  0.00  0.00    +0.379 N 
ATOM     24  C   UNL     1      -8.072  -7.436  -3.593  0.00  0.00    -0.096 C 
ATOM     25  H   UNL     1     -10.043  -6.881  -3.140  0.00  0.00    -0.082 HD
ATOM     26  C   UNL     1      -9.973  -9.019  -3.259  0.00  0.00    -0.064 C 
ATOM     27  C   UNL     1     -11.299  -9.236  -2.477  0.00  0.00    +0.066 C 
ENDBRANCH  19  20
ENDBRANCH  18  19
ENDBRANCH  14  15
ENDBRANCH  12  13
TORSDOF 6
ENDMDL
MODEL 2
REMARK VINA RESULT:      -8.5      5.723     10.780
REMARK  Name = C:\Users\Docking\Desktop\test protocol\1iep_ligandH.pdb
REMARK  8 active torsions:
REMARK  status: ('A' for Active; 'I' for Inactive)
REMARK    1  A    between atoms: _5  and  _11
REMARK    2  A    between atoms: _19  and  _21
REMARK    3  A    between atoms: _22  and  _66
REMARK    4  A    between atoms: _27  and  _30
REMARK    5  A    between atoms: _32  and  _33
REMARK    6  A    between atoms: _38  and  _43
REMARK    7  A    between atoms: _43  and  _46
REMARK    8  A    between atoms: _53  and  _55
REMARK                            x       y       z     vdW  Elec       q    Type
REMARK                         _______ _______ _______ _____ _____    ______ ____
ROOT
ATOM     10  C   UNL     1      -2.777  -8.262  12.277  0.00  0.00    +0.038 A 
ATOM     11  C   UNL     1      -3.521  -9.194  11.509  0.00  0.00    +0.047 A 
ATOM     12  C   UNL     1      -4.135 -10.359  12.126  0.00  0.00    +0.035 A 
ATOM     32  C   UNL     1      -3.972 -10.544  13.530  0.00  0.00    +0.024 A 
ATOM     33  C   UNL     1      -3.217  -9.608  14.326  0.00  0.00    +0.007 A 
ATOM     34  C   UNL     1      -2.608  -8.458  13.722  0.00  0.00    -0.029 A 
ATOM     35  C   UNL     1      -1.805  -7.491  14.623  0.00  0.00    +0.045 C 
ENDROOT
BRANCH  10   9
ATOM      4  C   UNL     1       0.783  -6.151   9.846  0.00  0.00    +0.077 A 
ATOM      5  C   UNL     1       1.592  -7.335   9.887  0.00  0.00    +0.048 A 
ATOM      6  C   UNL     1       1.059  -8.463  10.550  0.00  0.00    +0.116 A 
ATOM      7  N   UNL     1      -0.192  -8.401  11.124  0.00  0.00    -0.223 NA
ATOM      8  C   UNL     1      -0.946  -7.243  11.068  0.00  0.00    +0.220 A 
ATOM      9  N   UNL     1      -2.210  -7.161  11.633  0.00  0.00    -0.283 N 
ATOM     36  H   UNL     1      -2.731  -6.286  11.576  0.00  0.00    +0.155 HD
ATOM     37  N   UNL     1      -0.458  -6.152  10.443  0.00  0.00    -0.214 NA
BRANCH   4   3
ATOM      1  C   UNL     1       0.997  -3.116   7.389  0.00  0.00    +0.020 A 
ATOM      2  C   UNL     1       0.548  -4.349   7.993  0.00  0.00    +0.013 A 
ATOM      3  C   UNL     1       1.206  -4.879   9.180  0.00  0.00    +0.019 A 
ATOM     38  C   UNL     1       2.323  -4.130   9.737  0.00  0.00    +0.120 A 
ATOM     39  N   UNL     1       2.733  -2.946   9.133  0.00  0.00    -0.263 NA
ATOM     40  C   UNL     1       2.109  -2.427   7.988  0.00  0.00    +0.111 A 
ENDBRANCH   4   3
ENDBRANCH  10   9
BRANCH  12  13
ATOM     13  N   UNL     1      -4.895 -11.343  11.396  0.00  0.00    -0.281 N 
ATOM     14  C   UNL     1      -4.419 -12.445  10.704  0.00  0.00    +0.248 C 
ATOM     30  O   UNL     1      -3.244 -12.634  10.429  0.00  0.00    -0.270 OA
ATOM     31  H   UNL     1      -5.906 -11.210  11.387  0.00  0.00    +0.155 HD
BRANCH  14  15
ATOM     15  C   UNL     1      -5.392 -13.480  10.238  0.00  0.00    +0.037 A 
ATOM     16  C   UNL     1      -6.722 -13.599  10.842  0.00  0.00    +0.013 A 
ATOM     17  C   UNL     1      -7.634 -14.617  10.386  0.00  0.00    +0.005 A 
ATOM     18  C   UNL     1      -7.220 -15.524   9.318  0.00  0.00    -0.033 A 
ATOM     28  C   UNL     1      -5.897 -15.380   8.733  0.00  0.00    +0.005 A 
ATOM     29  C   UNL     1      -4.999 -14.384   9.178  0.00  0.00    +0.013 A 
BRANCH  18  19
ATOM     19  C   UNL     1      -8.120 -16.653   8.783  0.00  0.00    +0.119 C 
BRANCH  19  20
ATOM     20  N   UNL     1      -9.292 -16.255   7.946  0.00  0.00    -0.302 NA
ATOM     21  C   UNL     1      -8.953 -15.106   6.992  0.00  0.00    +0.066 C 
ATOM     22  C   UNL     1     -10.183 -14.718   6.109  0.00  0.00    -0.064 C 
ATOM     23  N   UNL     1     -11.358 -14.342   7.013  0.00  0.00    +0.379 N 
ATOM     24  C   UNL     1     -12.498 -13.921   6.186  0.00  0.00    -0.096 C 
ATOM     25  H   UNL     1     -11.045 -13.467   7.629  0.00  0.00    -0.082 HD
ATOM     26  C   UNL     1     -11.700 -15.478   7.967  0.00  0.00    -0.064 C 
ATOM     27  C   UNL     1     -10.463 -15.876   8.819  0.00  0.00    +0.066 C 
ENDBRANCH  19  20
ENDBRANCH  18  19
ENDBRANCH  14  15
ENDBRANCH  12  13
TORSDOF 6
ENDMDL
MODEL 3
REMARK VINA RESULT:      -8.4      5.584     11.339
REMARK  Name = C:\Users\Docking\Desktop\test protocol\1iep_ligandH.pdb
REMARK  8 active torsions:
REMARK  status: ('A' for Active; 'I' for Inactive)
REMARK    1  A    between atoms: _5  and  _11
REMARK    2  A    between atoms: _19  and  _21
REMARK    3  A    between atoms: _22  and  _66
REMARK    4  A    between atoms: _27  and  _30
REMARK    5  A    between atoms: _32  and  _33
REMARK    6  A    between atoms: _38  and  _43
REMARK    7  A    between atoms: _43  and  _46
REMARK    8  A    between atoms: _53  and  _55
REMARK                            x       y       z     vdW  Elec       q    Type
REMARK                         _______ _______ _______ _____ _____    ______ ____
ROOT
ATOM     10  C   UNL     1      -7.845 -14.577   9.487  0.00  0.00    +0.038 A 
ATOM     11  C   UNL     1      -7.062 -13.470   9.901  0.00  0.00    +0.047 A 
ATOM     12  C   UNL     1      -5.613 -13.486   9.782  0.00  0.00    +0.035 A 
ATOM     32  C   UNL     1      -4.993 -14.646   9.233  0.00  0.00    +0.024 A 
ATOM     33  C   UNL     1      -5.773 -15.781   8.807  0.00  0.00    +0.007 A 
ATOM     34  C   UNL     1      -7.203 -15.772   8.925  0.00  0.00    -0.029 A 
ATOM     35  C   UNL     1      -7.988 -17.020   8.458  0.00  0.00    +0.045 C 
ENDROOT
BRANCH  10   9
ATOM      4  C   UNL     1     -12.240 -13.812   7.716  0.00  0.00    +0.077 A 
ATOM      5  C   UNL     1     -11.726 -13.497   6.415  0.00  0.00    +0.048 A 
ATOM      6  C   UNL     1     -10.324 -13.537   6.244  0.00  0.00    +0.116 A 
ATOM      7  N   UNL     1      -9.507 -13.868   7.304  0.00  0.00    -0.223 NA
ATOM      8  C   UNL     1     -10.035 -14.165   8.546  0.00  0.00    +0.220 A 
ATOM      9  N   UNL     1      -9.233 -14.508   9.624  0.00  0.00    -0.283 N 
ATOM     36  H   UNL     1      -9.661 -14.712  10.526  0.00  0.00    +0.155 HD
ATOM     37  N   UNL     1     -11.371 -14.132   8.735  0.00  0.00    -0.214 NA
BRANCH   4   3
ATOM      1  C   UNL     1     -15.732 -14.802   9.176  0.00  0.00    +0.020 A 
ATOM      2  C   UNL     1     -14.318 -14.844   8.880  0.00  0.00    +0.013 A 
ATOM      3  C   UNL     1     -13.699 -13.816   8.053  0.00  0.00    +0.019 A 
ATOM     38  C   UNL     1     -14.545 -12.750   7.537  0.00  0.00    +0.120 A 
ATOM     39  N   UNL     1     -15.903 -12.736   7.838  0.00  0.00    -0.263 NA
ATOM     40  C   UNL     1     -16.511 -13.721   8.631  0.00  0.00    +0.111 A 
ENDBRANCH   4   3
ENDBRANCH  10   9
BRANCH  12  13
ATOM     13  N   UNL     1      -4.765 -12.394  10.194  0.00  0.00    -0.281 N 
ATOM     14  C   UNL     1      -4.793 -11.700  11.393  0.00  0.00    +0.248 C 
ATOM     30  O   UNL     1      -5.696 -11.773  12.213  0.00  0.00    -0.270 OA
ATOM     31  H   UNL     1      -4.060 -12.097   9.520  0.00  0.00    +0.155 HD
BRANCH  14  15
ATOM     15  C   UNL     1      -3.661 -10.781  11.721  0.00  0.00    +0.037 A 
ATOM     16  C   UNL     1      -2.291 -11.282  11.861  0.00  0.00    +0.013 A 
ATOM     17  C   UNL     1      -1.220 -10.377  12.195  0.00  0.00    +0.005 A 
ATOM     18  C   UNL     1      -1.516  -8.960  12.390  0.00  0.00    -0.033 A 
ATOM     28  C   UNL     1      -2.882  -8.488  12.240  0.00  0.00    +0.005 A 
ATOM     29  C   UNL     1      -3.935  -9.373  11.913  0.00  0.00    +0.013 A 
BRANCH  18  19
ATOM     19  C   UNL     1      -0.439  -7.926  12.769  0.00  0.00    +0.119 C 
BRANCH  19  20
ATOM     20  N   UNL     1      -0.027  -6.950  11.716  0.00  0.00    -0.302 NA
ATOM     21  C   UNL     1      -1.050  -5.823  11.546  0.00  0.00    +0.066 C 
ATOM     22  C   UNL     1      -0.593  -4.799  10.457  0.00  0.00    -0.064 C 
ATOM     23  N   UNL     1      -0.370  -5.532   9.133  0.00  0.00    +0.379 N 
ATOM     24  C   UNL     1       0.004  -4.563   8.093  0.00  0.00    -0.096 C 
ATOM     25  H   UNL     1      -1.340  -5.992   8.834  0.00  0.00    -0.082 HD
ATOM     26  C   UNL     1       0.644  -6.656   9.294  0.00  0.00    -0.064 C 
ATOM     27  C   UNL     1       0.194  -7.652  10.399  0.00  0.00    +0.066 C 
ENDBRANCH  19  20
ENDBRANCH  18  19
ENDBRANCH  14  15
ENDBRANCH  12  13
TORSDOF 6
ENDMDL
MODEL 4
REMARK VINA RESULT:      -8.4      7.186     11.262
REMARK  Name = C:\Users\Docking\Desktop\test protocol\1iep_ligandH.pdb
REMARK  8 active torsions:
REMARK  status: ('A' for Active; 'I' for Inactive)
REMARK    1  A    between atoms: _5  and  _11
REMARK    2  A    between atoms: _19  and  _21
REMARK    3  A    between atoms: _22  and  _66
REMARK    4  A    between atoms: _27  and  _30
REMARK    5  A    between atoms: _32  and  _33
REMARK    6  A    between atoms: _38  and  _43
REMARK    7  A    between atoms: _43  and  _46
REMARK    8  A    between atoms: _53  and  _55
REMARK                            x       y       z     vdW  Elec       q    Type
REMARK                         _______ _______ _______ _____ _____    ______ ____
ROOT
ATOM     10  C   UNL     1      -7.909 -14.281   8.999  0.00  0.00    +0.038 A 
ATOM     11  C   UNL     1      -7.122 -13.186   9.440  0.00  0.00    +0.047 A 
ATOM     12  C   UNL     1      -5.683 -13.314   9.609  0.00  0.00    +0.035 A 
ATOM     32  C   UNL     1      -5.077 -14.571   9.318  0.00  0.00    +0.024 A 
ATOM     33  C   UNL     1      -5.862 -15.694   8.870  0.00  0.00    +0.007 A 
ATOM     34  C   UNL     1      -7.283 -15.575   8.703  0.00  0.00    -0.029 A 
ATOM     35  C   UNL     1      -8.075 -16.814   8.226  0.00  0.00    +0.045 C 
ENDROOT
BRANCH  10   9
ATOM      4  C   UNL     1     -12.386 -14.307  10.729  0.00  0.00    +0.077 A 
ATOM      5  C   UNL     1     -11.946 -14.739  12.024  0.00  0.00    +0.048 A 
ATOM      6  C   UNL     1     -10.561 -14.950  12.202  0.00  0.00    +0.116 A 
ATOM      7  N   UNL     1      -9.689 -14.741  11.155  0.00  0.00    -0.223 NA
ATOM      8  C   UNL     1     -10.146 -14.326   9.918  0.00  0.00    +0.220 A 
ATOM      9  N   UNL     1      -9.286 -14.102   8.854  0.00  0.00    -0.283 N 
ATOM     36  H   UNL     1      -9.664 -13.803   7.955  0.00  0.00    +0.155 HD
ATOM     37  N   UNL     1     -11.465 -14.119   9.723  0.00  0.00    -0.214 NA
BRANCH   4   3
ATOM      1  C   UNL     1     -16.105 -13.108  10.905  0.00  0.00    +0.020 A 
ATOM      2  C   UNL     1     -14.731 -13.343  11.285  0.00  0.00    +0.013 A 
ATOM      3  C   UNL     1     -13.818 -14.038  10.386  0.00  0.00    +0.019 A 
ATOM     38  C   UNL     1     -14.331 -14.485   9.100  0.00  0.00    +0.120 A 
ATOM     39  N   UNL     1     -15.660 -14.246   8.762  0.00  0.00    -0.263 NA
ATOM     40  C   UNL     1     -16.548 -13.580   9.619  0.00  0.00    +0.111 A 
ENDBRANCH   4   3
ENDBRANCH  10   9
BRANCH  12  13
ATOM     13  N   UNL     1      -4.833 -12.240  10.062  0.00  0.00    -0.281 N 
ATOM     14  C   UNL     1      -4.828 -11.623  11.302  0.00  0.00    +0.248 C 
ATOM     30  O   UNL     1      -5.703 -11.758  12.144  0.00  0.00    -0.270 OA
ATOM     31  H   UNL     1      -4.153 -11.893   9.385  0.00  0.00    +0.155 HD
BRANCH  14  15
ATOM     15  C   UNL     1      -3.695 -10.713  11.651  0.00  0.00    +0.037 A 
ATOM     16  C   UNL     1      -2.337 -11.229  11.841  0.00  0.00    +0.013 A 
ATOM     17  C   UNL     1      -1.266 -10.331  12.194  0.00  0.00    +0.005 A 
ATOM     18  C   UNL     1      -1.548  -8.908  12.358  0.00  0.00    -0.033 A 
ATOM     28  C   UNL     1      -2.904  -8.422  12.158  0.00  0.00    +0.005 A 
ATOM     29  C   UNL     1      -3.957  -9.299  11.813  0.00  0.00    +0.013 A 
BRANCH  18  19
ATOM     19  C   UNL     1      -0.471  -7.881  12.754  0.00  0.00    +0.119 C 
BRANCH  19  20
ATOM     20  N   UNL     1      -0.033  -6.911  11.706  0.00  0.00    -0.302 NA
ATOM     21  C   UNL     1      -1.024  -5.755  11.543  0.00  0.00    +0.066 C 
ATOM     22  C   UNL     1      -0.539  -4.738  10.459  0.00  0.00    -0.064 C 
ATOM     23  N   UNL     1      -0.336  -5.470   9.131  0.00  0.00    +0.379 N 
ATOM     24  C   UNL     1       0.064  -4.506   8.096  0.00  0.00    -0.096 C 
ATOM     25  H   UNL     1      -1.319  -5.902   8.830  0.00  0.00    -0.082 HD
ATOM     26  C   UNL     1       0.646  -6.622   9.286  0.00  0.00    -0.064 C 
ATOM     27  C   UNL     1       0.170  -7.611  10.385  0.00  0.00    +0.066 C 
ENDBRANCH  19  20
ENDBRANCH  18  19
ENDBRANCH  14  15
ENDBRANCH  12  13
TORSDOF 6
ENDMDL
MODEL 5
REMARK VINA RESULT:      -8.3      0.895      1.401
REMARK  Name = C:\Users\Docking\Desktop\test protocol\1iep_ligandH.pdb
REMARK  8 active torsions:
REMARK  status: ('A' for Active; 'I' for Inactive)
REMARK    1  A    between atoms: _5  and  _11
REMARK    2  A    between atoms: _19  and  _21
REMARK    3  A    between atoms: _22  and  _66
REMARK    4  A    between atoms: _27  and  _30
REMARK    5  A    between atoms: _32  and  _33
REMARK    6  A    between atoms: _38  and  _43
REMARK    7  A    between atoms: _43  and  _46
REMARK    8  A    between atoms: _53  and  _55
REMARK                            x       y       z     vdW  Elec       q    Type
REMARK                         _______ _______ _______ _____ _____    ______ ____
ROOT
ATOM     10  C   UNL     1      -9.014 -14.706   8.505  0.00  0.00    +0.038 A 
ATOM     11  C   UNL     1      -9.449 -13.822   7.485  0.00  0.00    +0.047 A 
ATOM     12  C   UNL     1     -10.065 -14.324   6.266  0.00  0.00    +0.035 A 
ATOM     32  C   UNL     1     -10.225 -15.733   6.121  0.00  0.00    +0.024 A 
ATOM     33  C   UNL     1      -9.788 -16.646   7.148  0.00  0.00    +0.007 A 
ATOM     34  C   UNL     1      -9.177 -16.157   8.351  0.00  0.00    -0.029 A 
ATOM     35  C   UNL     1      -8.722 -17.182   9.415  0.00  0.00    +0.045 C 
ENDROOT
BRANCH  10   9
ATOM      4  C   UNL     1      -5.187 -13.449  11.114  0.00  0.00    +0.077 A 
ATOM      5  C   UNL     1      -4.275 -13.926  10.115  0.00  0.00    +0.048 A 
ATOM      6  C   UNL     1      -4.831 -14.495   8.947  0.00  0.00    +0.116 A 
ATOM      7  N   UNL     1      -6.199 -14.575   8.800  0.00  0.00    -0.223 NA
ATOM      8  C   UNL     1      -7.051 -14.106   9.784  0.00  0.00    +0.220 A 
ATOM      9  N   UNL     1      -8.429 -14.169   9.654  0.00  0.00    -0.283 N 
ATOM     36  H   UNL     1      -9.023 -13.820  10.406  0.00  0.00    +0.155 HD
ATOM     37  N   UNL     1      -6.544 -13.561  10.909  0.00  0.00    -0.214 NA
BRANCH   4   3
ATOM      1  C   UNL     1      -5.171 -12.049  14.767  0.00  0.00    +0.020 A 
ATOM      2  C   UNL     1      -5.640 -12.664  13.546  0.00  0.00    +0.013 A 
ATOM      3  C   UNL     1      -4.752 -12.820  12.401  0.00  0.00    +0.019 A 
ATOM     38  C   UNL     1      -3.384 -12.341  12.525  0.00  0.00    +0.120 A 
ATOM     39  N   UNL     1      -2.960 -11.753  13.712  0.00  0.00    -0.263 NA
ATOM     40  C   UNL     1      -3.806 -11.595  14.820  0.00  0.00    +0.111 A 
ENDBRANCH   4   3
ENDBRANCH  10   9
BRANCH  12  13
ATOM     13  N   UNL     1     -10.519 -13.475   5.193  0.00  0.00    -0.281 N 
ATOM     14  C   UNL     1     -11.482 -12.480   5.242  0.00  0.00    +0.248 C 
ATOM     30  O   UNL     1     -12.255 -12.313   6.173  0.00  0.00    -0.270 OA
ATOM     31  H   UNL     1     -10.077 -13.626   4.286  0.00  0.00    +0.155 HD
BRANCH  14  15
ATOM     15  C   UNL     1     -11.614 -11.545   4.084  0.00  0.00    +0.037 A 
ATOM     16  C   UNL     1     -11.450 -10.099   4.252  0.00  0.00    +0.013 A 
ATOM     17  C   UNL     1     -11.600  -9.218   3.121  0.00  0.00    +0.005 A 
ATOM     18  C   UNL     1     -11.914  -9.782   1.810  0.00  0.00    -0.033 A 
ATOM     28  C   UNL     1     -12.066 -11.221   1.671  0.00  0.00    +0.005 A 
ATOM     29  C   UNL     1     -11.921 -12.087   2.777  0.00  0.00    +0.013 A 
BRANCH  18  19
ATOM     19  C   UNL     1     -12.112  -8.915   0.553  0.00  0.00    +0.119 C 
BRANCH  19  20
ATOM     20  N   UNL     1     -11.003  -8.897  -0.447  0.00  0.00    -0.302 NA
ATOM     21  C   UNL     1     -10.235  -7.572  -0.428  0.00  0.00    +0.066 C 
ATOM     22  C   UNL     1      -9.064  -7.579  -1.464  0.00  0.00    -0.064 C 
ATOM     23  N   UNL     1      -9.623  -7.861  -2.860  0.00  0.00    +0.379 N 
ATOM     24  C   UNL     1      -8.532  -7.810  -3.844  0.00  0.00    -0.096 C 
ATOM     25  H   UNL     1     -10.341  -7.045  -3.107  0.00  0.00    -0.082 HD
ATOM     26  C   UNL     1     -10.391  -9.175  -2.887  0.00  0.00    -0.064 C 
ATOM     27  C   UNL     1     -11.533  -9.169  -1.833  0.00  0.00    +0.066 C 
ENDBRANCH  19  20
ENDBRANCH  18  19
ENDBRANCH  14  15
ENDBRANCH  12  13
TORSDOF 6
ENDMDL
