MODEL 1
REMARK VINA RESULT:      -8.6      0.000      0.000
REMARK  Name = C:\Users\Docking\Desktop\test protocol\1iep_ligandH.pdb
REMARK  8 active torsions:
REMARK  status: ('A' for Active; 'I' for Inactive)
REMARK    1  A    between atoms: _5  and  _11
REMARK    2  A    between atoms: _19  and  _21
REMARK    3  A    between atoms: _22  and  _66
REMARK    4  A    between atoms: _27  and  _30
REMARK    5  A    between atoms: _32  and  _33
REMARK    6  A    between atoms: _38  and  _43
REMARK    7  A    between atoms: _43  and  _46
REMARK    8  A    between atoms: _53  and  _55
REMARK                            x       y       z     vdW  Elec       q    Type
REMARK                         _______ _______ _______ _____ _____    ______ ____
ROOT
ATOM     10  C   UNL     1      -6.035 -16.017  10.910  0.00  0.00    +0.038 A 
ATOM     11  C   UNL     1      -5.254 -14.873  11.214  0.00  0.00    +0.047 A 
ATOM     12  C   UNL     1      -5.107 -13.787  10.257  0.00  0.00    +0.035 A 
ATOM     32  C   UNL     1      -5.771 -13.898   9.001  0.00  0.00    +0.024 A 
ATOM     33  C   UNL     1      -6.568 -15.055   8.676  0.00  0.00    +0.007 A 
ATOM     34  C   UNL     1      -6.715 -16.130   9.614  0.00  0.00    -0.029 A 
ATOM     35  C   UNL     1      -7.576 -17.349   9.209  0.00  0.00    +0.045 C 
ENDROOT
BRANCH  10   9
ATOM      4  C   UNL     1      -8.296 -18.181  14.549  0.00  0.00    +0.077 A 
ATOM      5  C   UNL     1      -9.338 -17.195  14.566  0.00  0.00    +0.048 A 
ATOM      6  C   UNL     1      -9.251 -16.143  13.626  0.00  0.00    +0.116 A 
ATOM      7  N   UNL     1      -8.197 -16.092  12.741  0.00  0.00    -0.223 NA
ATOM      8  C   UNL     1      -7.207 -17.058  12.753  0.00  0.00    +0.220 A 
ATOM      9  N   UNL     1      -6.142 -17.030  11.866  0.00  0.00    -0.283 N 
ATOM     36  H   UNL     1      -5.429 -17.757  11.912  0.00  0.00    +0.155 HD
ATOM     37  N   UNL     1      -7.267 -18.071  13.641  0.00  0.00    -0.214 NA
BRANCH   4   3
ATOM      1  C   UNL     1      -9.219 -21.462  16.468  0.00  0.00    +0.020 A 
ATOM      2  C   UNL     1      -9.313 -20.347  15.554  0.00  0.00    +0.013 A 
ATOM      3  C   UNL     1      -8.249 -19.354  15.478  0.00  0.00    +0.019 A 
ATOM     38  C   UNL     1      -7.094 -19.520  16.347  0.00  0.00    +0.120 A 
ATOM     39  N   UNL     1      -7.031 -20.603  17.218  0.00  0.00    -0.263 NA
ATOM     40  C   UNL     1      -8.050 -21.564  17.301  0.00  0.00    +0.111 A 
ENDBRANCH   4   3
ENDBRANCH  10   9
BRANCH  12  13
ATOM     13  N   UNL     1      -4.320 -12.604  10.507  0.00  0.00    -0.281 N 
ATOM     14  C   UNL     1      -4.586 -11.577  11.397  0.00  0.00    +0.248 C 
ATOM     30  O   UNL     1      -5.656 -11.413  11.964  0.00  0.00    -0.270 OA
ATOM     31  H   UNL     1      -3.463 -12.514   9.961  0.00  0.00    +0.155 HD
BRANCH  14  15
ATOM     15  C   UNL     1      -3.513 -10.578  11.688  0.00  0.00    +0.037 A 
ATOM     16  C   UNL     1      -2.153 -11.002  12.031  0.00  0.00    +0.013 A 
ATOM     17  C   UNL     1      -1.141 -10.019  12.325  0.00  0.00    +0.005 A 
ATOM     18  C   UNL     1      -1.486  -8.600  12.275  0.00  0.00    -0.033 A 
ATOM     28  C   UNL     1      -2.841  -8.207  11.928  0.00  0.00    +0.005 A 
ATOM     29  C   UNL     1      -3.836  -9.168  11.640  0.00  0.00    +0.013 A 
BRANCH  18  19
ATOM     19  C   UNL     1      -0.475  -7.482  12.594  0.00  0.00    +0.119 C 
BRANCH  19  20
ATOM     20  N   UNL     1      -0.061  -6.593  11.469  0.00  0.00    -0.302 NA
ATOM     21  C   UNL     1      -1.022  -5.415  11.284  0.00  0.00    +0.066 C 
ATOM     22  C   UNL     1      -0.561  -4.482  10.117  0.00  0.00    -0.064 C 
ATOM     23  N   UNL     1      -0.452  -5.299   8.828  0.00  0.00    +0.379 N 
ATOM     24  C   UNL     1      -0.075  -4.414   7.716  0.00  0.00    -0.096 C 
ATOM     25  H   UNL     1      -1.462  -5.713   8.603  0.00  0.00    -0.082 HD
ATOM     26  C   UNL     1       0.500  -6.474   9.004  0.00  0.00    -0.064 C 
ATOM     27  C   UNL     1       0.049  -7.378  10.185  0.00  0.00    +0.066 C 
ENDBRANCH  19  20
ENDBRANCH  18  19
ENDBRANCH  14  15
ENDBRANCH  12  13
TORSDOF 6
ENDMDL
MODEL 2
REMARK VINA RESULT:      -8.5      4.041      5.923
REMARK  Name = C:\Users\Docking\Desktop\test protocol\1iep_ligandH.pdb
REMARK  8 active torsions:
REMARK  status: ('A' for Active; 'I' for Inactive)
REMARK    1  A    between atoms: _5  and  _11
REMARK    2  A    between atoms: _19  and  _21
REMARK    3  A    between atoms: _22  and  _66
REMARK    4  A    between atoms: _27  and  _30
REMARK    5  A    between atoms: _32  and  _33
REMARK    6  A    between atoms: _38  and  _43
REMARK    7  A    between atoms: _43  and  _46
REMARK    8  A    between atoms: _53  and  _55
REMARK                            x       y       z     vdW  Elec       q    Type
REMARK                         _______ _______ _______ _____ _____    ______ ____
ROOT
ATOM     10  C   UNL     1      -7.706 -14.563   9.741  0.00  0.00    +0.038 A 
ATOM     11  C   UNL     1      -6.944 -13.413  10.072  0.00  0.00    +0.047 A 
ATOM     12  C   UNL     1      -5.495 -13.410   9.954  0.00  0.00    +0.035 A 
ATOM     32  C   UNL     1      -4.853 -14.596   9.492  0.00  0.00    +0.024 A 
ATOM     33  C   UNL     1      -5.611 -15.774   9.152  0.00  0.00    +0.007 A 
ATOM     34  C   UNL     1      -7.041 -15.784   9.269  0.00  0.00    -0.029 A 
ATOM     35  C   UNL     1      -7.802 -17.077   8.896  0.00  0.00    +0.045 C 
ENDROOT
BRANCH  10   9
ATOM      4  C   UNL     1     -12.107 -13.910   7.941  0.00  0.00    +0.077 A 
ATOM      5  C   UNL     1     -11.593 -13.624   6.632  0.00  0.00    +0.048 A 
ATOM      6  C   UNL     1     -10.191 -13.649   6.466  0.00  0.00    +0.116 A 
ATOM      7  N   UNL     1      -9.372 -13.939   7.535  0.00  0.00    -0.223 NA
ATOM      8  C   UNL     1      -9.899 -14.208   8.785  0.00  0.00    +0.220 A 
ATOM      9  N   UNL     1      -9.095 -14.510   9.873  0.00  0.00    -0.283 N 
ATOM     36  H   UNL     1      -9.523 -14.695  10.780  0.00  0.00    +0.155 HD
ATOM     37  N   UNL     1     -11.236 -14.189   8.970  0.00  0.00    -0.214 NA
BRANCH   4   3
ATOM      1  C   UNL     1     -15.616 -14.987   9.292  0.00  0.00    +0.020 A 
ATOM      2  C   UNL     1     -14.202 -15.021   8.995  0.00  0.00    +0.013 A 
ATOM      3  C   UNL     1     -13.566 -13.926   8.274  0.00  0.00    +0.019 A 
ATOM     38  C   UNL     1     -14.395 -12.802   7.865  0.00  0.00    +0.120 A 
ATOM     39  N   UNL     1     -15.754 -12.797   8.164  0.00  0.00    -0.263 NA
ATOM     40  C   UNL     1     -16.377 -13.847   8.856  0.00  0.00    +0.111 A 
ENDBRANCH   4   3
ENDBRANCH  10   9
BRANCH  12  13
ATOM     13  N   UNL     1      -4.669 -12.276  10.283  0.00  0.00    -0.281 N 
ATOM     14  C   UNL     1      -4.670 -11.531  11.452  0.00  0.00    +0.248 C 
ATOM     30  O   UNL     1      -5.536 -11.598  12.312  0.00  0.00    -0.270 OA
ATOM     31  H   UNL     1      -4.001 -11.986   9.569  0.00  0.00    +0.155 HD
BRANCH  14  15
ATOM     15  C   UNL     1      -3.557 -10.564  11.693  0.00  0.00    +0.037 A 
ATOM     16  C   UNL     1      -2.200 -11.026  11.995  0.00  0.00    +0.013 A 
ATOM     17  C   UNL     1      -1.149 -10.071  12.241  0.00  0.00    +0.005 A 
ATOM     18  C   UNL     1      -1.451  -8.643  12.184  0.00  0.00    -0.033 A 
ATOM     28  C   UNL     1      -2.805  -8.212  11.878  0.00  0.00    +0.005 A 
ATOM     29  C   UNL     1      -3.838  -9.145  11.637  0.00  0.00    +0.013 A 
BRANCH  18  19
ATOM     19  C   UNL     1      -0.396  -7.554  12.454  0.00  0.00    +0.119 C 
BRANCH  19  20
ATOM     20  N   UNL     1       0.014  -6.698  11.300  0.00  0.00    -0.302 NA
ATOM     21  C   UNL     1      -0.912  -5.491  11.123  0.00  0.00    +0.066 C 
ATOM     22  C   UNL     1      -0.456  -4.595   9.926  0.00  0.00    -0.064 C 
ATOM     23  N   UNL     1      -0.413  -5.437   8.649  0.00  0.00    +0.379 N 
ATOM     24  C   UNL     1      -0.040  -4.584   7.511  0.00  0.00    -0.096 C 
ATOM     25  H   UNL     1      -1.443  -5.820   8.462  0.00  0.00    -0.082 HD
ATOM     26  C   UNL     1       0.503  -6.641   8.818  0.00  0.00    -0.064 C 
ATOM     27  C   UNL     1       0.059  -7.509  10.028  0.00  0.00    +0.066 C 
ENDBRANCH  19  20
ENDBRANCH  18  19
ENDBRANCH  14  15
ENDBRANCH  12  13
TORSDOF 6
ENDMDL
MODEL 3
REMARK VINA RESULT:      -8.4      7.692     10.641
REMARK  Name = C:\Users\Docking\Desktop\test protocol\1iep_ligandH.pdb
REMARK  8 active torsions:
REMARK  status: ('A' for Active; 'I' for Inactive)
REMARK    1  A    between atoms: _5  and  _11
REMARK    2  A    between atoms: _19  and  _21
REMARK    3  A    between atoms: _22  and  _66
REMARK    4  A    between atoms: _27  and  _30
REMARK    5  A    between atoms: _32  and  _33
REMARK    6  A    between atoms: _38  and  _43
REMARK    7  A    between atoms: _43  and  _46
REMARK    8  A    between atoms: _53  and  _55
REMARK                            x       y       z     vdW  Elec       q    Type
REMARK                         _______ _______ _______ _____ _____    ______ ____
ROOT
ATOM     10  C   UNL     1      -8.883 -14.771   8.585  0.00  0.00    +0.038 A 
ATOM     11  C   UNL     1      -9.357 -13.896   7.575  0.00  0.00    +0.047 A 
ATOM     12  C   UNL     1      -9.959 -14.411   6.355  0.00  0.00    +0.035 A 
ATOM     32  C   UNL     1     -10.065 -15.824   6.198  0.00  0.00    +0.024 A 
ATOM     33  C   UNL     1      -9.588 -16.728   7.214  0.00  0.00    +0.007 A 
ATOM     34  C   UNL     1      -8.990 -16.226   8.419  0.00  0.00    -0.029 A 
ATOM     35  C   UNL     1      -8.490 -17.242   9.472  0.00  0.00    +0.045 C 
ENDROOT
BRANCH  10   9
ATOM      4  C   UNL     1      -5.098 -13.335  11.163  0.00  0.00    +0.077 A 
ATOM      5  C   UNL     1      -4.174 -13.736  10.141  0.00  0.00    +0.048 A 
ATOM      6  C   UNL     1      -4.714 -14.315   8.970  0.00  0.00    +0.116 A 
ATOM      7  N   UNL     1      -6.077 -14.475   8.842  0.00  0.00    -0.223 NA
ATOM      8  C   UNL     1      -6.939 -14.078   9.847  0.00  0.00    +0.220 A 
ATOM      9  N   UNL     1      -8.313 -14.222   9.736  0.00  0.00    -0.283 N 
ATOM     36  H   UNL     1      -8.915 -13.924  10.503  0.00  0.00    +0.155 HD
ATOM     37  N   UNL     1      -6.449 -13.524  10.976  0.00  0.00    -0.214 NA
BRANCH   4   3
ATOM      1  C   UNL     1      -2.966 -11.669  13.988  0.00  0.00    +0.020 A 
ATOM      2  C   UNL     1      -3.316 -12.272  12.723  0.00  0.00    +0.013 A 
ATOM      3  C   UNL     1      -4.681 -12.705  12.456  0.00  0.00    +0.019 A 
ATOM     38  C   UNL     1      -5.678 -12.511  13.498  0.00  0.00    +0.120 A 
ATOM     39  N   UNL     1      -5.312 -11.929  14.708  0.00  0.00    -0.263 NA
ATOM     40  C   UNL     1      -4.000 -11.510  14.977  0.00  0.00    +0.111 A 
ENDBRANCH   4   3
ENDBRANCH  10   9
BRANCH  12  13
ATOM     13  N   UNL     1     -10.451 -13.571   5.291  0.00  0.00    -0.281 N 
ATOM     14  C   UNL     1     -11.371 -12.539   5.377  0.00  0.00    +0.248 C 
ATOM     30  O   UNL     1     -12.075 -12.320   6.351  0.00  0.00    -0.270 OA
ATOM     31  H   UNL     1     -10.075 -13.760   4.362  0.00  0.00    +0.155 HD
BRANCH  14  15
ATOM     15  C   UNL     1     -11.545 -11.628   4.205  0.00  0.00    +0.037 A 
ATOM     16  C   UNL     1     -11.525 -10.171   4.366  0.00  0.00    +0.013 A 
ATOM     17  C   UNL     1     -11.712  -9.315   3.222  0.00  0.00    +0.005 A 
ATOM     18  C   UNL     1     -11.919  -9.913   1.905  0.00  0.00    -0.033 A 
ATOM     28  C   UNL     1     -11.930 -11.361   1.773  0.00  0.00    +0.005 A 
ATOM     29  C   UNL     1     -11.748 -12.204   2.893  0.00  0.00    +0.013 A 
BRANCH  18  19
ATOM     19  C   UNL     1     -12.148  -9.076   0.633  0.00  0.00    +0.119 C 
BRANCH  19  20
ATOM     20  N   UNL     1     -11.047  -9.050  -0.376  0.00  0.00    -0.302 NA
ATOM     21  C   UNL     1     -10.280  -7.725  -0.355  0.00  0.00    +0.066 C 
ATOM     22  C   UNL     1      -9.118  -7.724  -1.401  0.00  0.00    -0.064 C 
ATOM     23  N   UNL     1      -9.688  -7.998  -2.793  0.00  0.00    +0.379 N 
ATOM     24  C   UNL     1      -8.606  -7.939  -3.787  0.00  0.00    -0.096 C 
ATOM     25  H   UNL     1     -10.409  -7.181  -3.030  0.00  0.00    -0.082 HD
ATOM     26  C   UNL     1     -10.455  -9.312  -2.822  0.00  0.00    -0.064 C 
ATOM     27  C   UNL     1     -11.589  -9.314  -1.759  0.00  0.00    +0.066 C 
ENDBRANCH  19  20
ENDBRANCH  18  19
ENDBRANCH  14  15
ENDBRANCH  12  13
TORSDOF 6
ENDMDL
MODEL 4
REMARK VINA RESULT:      -8.3      1.361      1.912
REMARK  Name = C:\Users\Docking\Desktop\test protocol\1iep_ligandH.pdb
REMARK  8 active torsions:
REMARK  status: ('A' for Active; 'I' for Inactive)
REMARK    1  A    between atoms: _5  and  _11
REMARK    2  A    between atoms: _19  and  _21
REMARK    3  A    between atoms: _22  and  _66
REMARK    4  A    between atoms: _27  and  _30
REMARK    5  A    between atoms: _32  and  _33
REMARK    6  A    between atoms: _38  and  _43
REMARK    7  A    between atoms: _43  and  _46
REMARK    8  A    between atoms: _53  and  _55
REMARK                            x       y       z     vdW  Elec       q    Type
REMARK                         _______ _______ _______ _____ _____    ______ ____
ROOT
ATOM     10  C   UNL     1      -6.981 -14.976  10.863  0.00  0.00    +0.038 A 
ATOM     11  C   UNL     1      -6.378 -13.797  11.368  0.00  0.00    +0.047 A 
ATOM     12  C   UNL     1      -5.441 -13.027  10.565  0.00  0.00    +0.035 A 
ATOM     32  C   UNL     1      -5.145 -13.485   9.248  0.00  0.00    +0.024 A 
ATOM     33  C   UNL     1      -5.749 -14.682   8.718  0.00  0.00    +0.007 A 
ATOM     34  C   UNL     1      -6.671 -15.448   9.508  0.00  0.00    -0.029 A 
ATOM     35  C   UNL     1      -7.283 -16.727   8.891  0.00  0.00    +0.045 C 
ENDROOT
BRANCH  10   9
ATOM      4  C   UNL     1      -7.952 -18.222  14.263  0.00  0.00    +0.077 A 
ATOM      5  C   UNL     1      -6.568 -18.570  14.409  0.00  0.00    +0.048 A 
ATOM      6  C   UNL     1      -5.639 -17.895  13.585  0.00  0.00    +0.116 A 
ATOM      7  N   UNL     1      -6.073 -16.945  12.686  0.00  0.00    -0.223 NA
ATOM      8  C   UNL     1      -7.415 -16.635  12.570  0.00  0.00    +0.220 A 
ATOM      9  N   UNL     1      -7.873 -15.677  11.678  0.00  0.00    -0.283 N 
ATOM     36  H   UNL     1      -8.872 -15.482  11.616  0.00  0.00    +0.155 HD
ATOM     37  N   UNL     1      -8.322 -17.266  13.344  0.00  0.00    -0.214 NA
BRANCH   4   3
ATOM      1  C   UNL     1     -10.103 -20.778  16.297  0.00  0.00    +0.020 A 
ATOM      2  C   UNL     1      -9.014 -20.226  15.525  0.00  0.00    +0.013 A 
ATOM      3  C   UNL     1      -9.053 -18.844  15.064  0.00  0.00    +0.019 A 
ATOM     38  C   UNL     1     -10.218 -18.041  15.405  0.00  0.00    +0.120 A 
ATOM     39  N   UNL     1     -11.253 -18.600  16.148  0.00  0.00    -0.263 NA
ATOM     40  C   UNL     1     -11.227 -19.930  16.595  0.00  0.00    +0.111 A 
ENDBRANCH   4   3
ENDBRANCH  10   9
BRANCH  12  13
ATOM     13  N   UNL     1      -4.791 -11.826  11.028  0.00  0.00    -0.281 N 
ATOM     14  C   UNL     1      -3.865 -11.699  12.050  0.00  0.00    +0.248 C 
ATOM     30  O   UNL     1      -3.614 -12.572  12.868  0.00  0.00    -0.270 OA
ATOM     31  H   UNL     1      -5.044 -10.965  10.543  0.00  0.00    +0.155 HD
BRANCH  14  15
ATOM     15  C   UNL     1      -3.121 -10.411  12.195  0.00  0.00    +0.037 A 
ATOM     16  C   UNL     1      -3.749  -9.129  11.865  0.00  0.00    +0.013 A 
ATOM     17  C   UNL     1      -3.003  -7.903  11.997  0.00  0.00    +0.005 A 
ATOM     18  C   UNL     1      -1.620  -7.953  12.464  0.00  0.00    -0.033 A 
ATOM     28  C   UNL     1      -1.023  -9.238  12.789  0.00  0.00    +0.005 A 
ATOM     29  C   UNL     1      -1.751 -10.442  12.660  0.00  0.00    +0.013 A 
BRANCH  18  19
ATOM     19  C   UNL     1      -0.742  -6.696  12.614  0.00  0.00    +0.119 C 
BRANCH  19  20
ATOM     20  N   UNL     1      -0.251  -6.050  11.361  0.00  0.00    -0.302 NA
ATOM     21  C   UNL     1      -1.191  -4.941  10.880  0.00  0.00    +0.066 C 
ATOM     22  C   UNL     1      -0.651  -4.261   9.580  0.00  0.00    -0.064 C 
ATOM     23  N   UNL     1      -0.465  -5.321   8.493  0.00  0.00    +0.379 N 
ATOM     24  C   UNL     1      -0.012  -4.676   7.252  0.00  0.00    -0.096 C 
ATOM     25  H   UNL     1      -1.462  -5.778   8.293  0.00  0.00    -0.082 HD
ATOM     26  C   UNL     1       0.466  -6.429   8.963  0.00  0.00    -0.064 C 
ATOM     27  C   UNL     1      -0.065  -7.079  10.272  0.00  0.00    +0.066 C 
ENDBRANCH  19  20
ENDBRANCH  18  19
ENDBRANCH  14  15
ENDBRANCH  12  13
TORSDOF 6
ENDMDL
MODEL 5
REMARK VINA RESULT:      -8.3      5.279     10.098
REMARK  Name = C:\Users\Docking\Desktop\test protocol\1iep_ligandH.pdb
REMARK  8 active torsions:
REMARK  status: ('A' for Active; 'I' for Inactive)
REMARK    1  A    between atoms: _5  and  _11
REMARK    2  A    between atoms: _19  and  _21
REMARK    3  A    between atoms: _22  and  _66
REMARK    4  A    between atoms: _27  and  _30
REMARK    5  A    between atoms: _32  and  _33
REMARK    6  A    between atoms: _38  and  _43
REMARK    7  A    between atoms: _43  and  _46
REMARK    8  A    between atoms: _53  and  _55
REMARK                            x       y       z     vdW  Elec       q    Type
REMARK                         _______ _______ _______ _____ _____    ______ ____
ROOT
ATOM     10  C   UNL     1     -10.013 -23.488  16.349  0.00  0.00    +0.038 A 
ATOM     11  C   UNL     1      -9.833 -22.347  15.527  0.00  0.00    +0.047 A 
ATOM     12  C   UNL     1      -9.345 -21.092  16.077  0.00  0.00    +0.035 A 
ATOM     32  C   UNL     1      -9.048 -21.036  17.470  0.00  0.00    +0.024 A 
ATOM     33  C   UNL     1      -9.227 -22.186  18.321  0.00  0.00    +0.007 A 
ATOM     34  C   UNL     1      -9.710 -23.426  17.784  0.00  0.00    -0.029 A 
ATOM     35  C   UNL     1      -9.889 -24.625  18.744  0.00  0.00    +0.045 C 
ENDROOT
BRANCH  10   9
ATOM      4  C   UNL     1     -13.540 -26.560  15.270  0.00  0.00    +0.077 A 
ATOM      5  C   UNL     1     -14.522 -25.761  15.945  0.00  0.00    +0.048 A 
ATOM      6  C   UNL     1     -14.078 -24.571  16.563  0.00  0.00    +0.116 A 
ATOM      7  N   UNL     1     -12.748 -24.216  16.504  0.00  0.00    -0.223 NA
ATOM      8  C   UNL     1     -11.826 -25.010  15.846  0.00  0.00    +0.220 A 
ATOM      9  N   UNL     1     -10.485 -24.668  15.768  0.00  0.00    -0.283 N 
ATOM     36  H   UNL     1      -9.835 -25.284  15.280  0.00  0.00    +0.155 HD
ATOM     37  N   UNL     1     -12.225 -26.152  15.249  0.00  0.00    -0.214 NA
BRANCH   4   3
ATOM      1  C   UNL     1     -15.044 -30.061  14.386  0.00  0.00    +0.020 A 
ATOM      2  C   UNL     1     -14.774 -28.838  15.106  0.00  0.00    +0.013 A 
ATOM      3  C   UNL     1     -13.855 -27.844  14.566  0.00  0.00    +0.019 A 
ATOM     38  C   UNL     1     -13.222 -28.119  13.285  0.00  0.00    +0.120 A 
ATOM     39  N   UNL     1     -13.501 -29.306  12.615  0.00  0.00    -0.263 NA
ATOM     40  C   UNL     1     -14.381 -30.271  13.126  0.00  0.00    +0.111 A 
ENDBRANCH   4   3
ENDBRANCH  10   9
BRANCH  12  13
ATOM     13  N   UNL     1      -9.149 -19.898  15.293  0.00  0.00    -0.281 N 
ATOM     14  C   UNL     1      -7.954 -19.275  14.974  0.00  0.00    +0.248 C 
ATOM     30  O   UNL     1      -6.880 -19.531  15.498  0.00  0.00    -0.270 OA
ATOM     31  H   UNL     1      -9.995 -19.460  14.928  0.00  0.00    +0.155 HD
BRANCH  14  15
ATOM     15  C   UNL     1      -7.954 -18.201  13.935  0.00  0.00    +0.037 A 
ATOM     16  C   UNL     1      -9.129 -17.353  13.718  0.00  0.00    +0.013 A 
ATOM     17  C   UNL     1      -9.109 -16.336  12.697  0.00  0.00    +0.005 A 
ATOM     18  C   UNL     1      -7.907 -16.161  11.885  0.00  0.00    -0.033 A 
ATOM     28  C   UNL     1      -6.754 -17.012  12.124  0.00  0.00    +0.005 A 
ATOM     29  C   UNL     1      -6.770 -18.011  13.124  0.00  0.00    +0.013 A 
BRANCH  18  19
ATOM     19  C   UNL     1      -7.804 -15.115  10.759  0.00  0.00    +0.119 C 
BRANCH  19  20
ATOM     20  N   UNL     1      -6.704 -14.110  10.858  0.00  0.00    -0.302 NA
ATOM     21  C   UNL     1      -6.681 -13.415  12.222  0.00  0.00    +0.066 C 
ATOM     22  C   UNL     1      -5.510 -12.383  12.316  0.00  0.00    -0.064 C 
ATOM     23  N   UNL     1      -5.645 -11.359  11.188  0.00  0.00    +0.379 N 
ATOM     24  C   UNL     1      -4.579 -10.354  11.308  0.00  0.00    -0.096 C 
ATOM     25  H   UNL     1      -6.620 -10.835  11.322  0.00  0.00    -0.082 HD
ATOM     26  C   UNL     1      -5.671 -12.042   9.828  0.00  0.00    -0.064 C 
ATOM     27  C   UNL     1      -6.820 -13.086   9.756  0.00  0.00    +0.066 C 
ENDBRANCH  19  20
ENDBRANCH  18  19
ENDBRANCH  14  15
ENDBRANCH  12  13
TORSDOF 6
ENDMDL
