MODEL 1
REMARK VINA RESULT:      -7.7      0.000      0.000
REMARK  Name = C:\Users\Docking\Desktop\test protocol\1iep_ligandH.pdb
REMARK  8 active torsions:
REMARK  status: ('A' for Active; 'I' for Inactive)
REMARK    1  A    between atoms: _5  and  _11
REMARK    2  A    between atoms: _19  and  _21
REMARK    3  A    between atoms: _22  and  _66
REMARK    4  A    between atoms: _27  and  _30
REMARK    5  A    between atoms: _32  and  _33
REMARK    6  A    between atoms: _38  and  _43
REMARK    7  A    between atoms: _43  and  _46
REMARK    8  A    between atoms: _53  and  _55
REMARK                            x       y       z     vdW  Elec       q    Type
REMARK                         _______ _______ _______ _____ _____    ______ ____
ROOT
ATOM     10  C   UNL     1     -16.236  25.328 -13.388  0.00  0.00    +0.038 A 
ATOM     11  C   UNL     1     -16.586  26.701 -13.315  0.00  0.00    +0.047 A 
ATOM     12  C   UNL     1     -16.322  27.604 -14.424  0.00  0.00    +0.035 A 
ATOM     32  C   UNL     1     -15.702  27.075 -15.593  0.00  0.00    +0.024 A 
ATOM     33  C   UNL     1     -15.338  25.683 -15.684  0.00  0.00    +0.007 A 
ATOM     34  C   UNL     1     -15.594  24.788 -14.592  0.00  0.00    -0.029 A 
ATOM     35  C   UNL     1     -15.177  23.306 -14.742  0.00  0.00    +0.045 C 
ENDROOT
BRANCH  10   9
ATOM      4  C   UNL     1     -15.039  23.308  -9.201  0.00  0.00    +0.077 A 
ATOM      5  C   UNL     1     -13.742  23.922  -9.208  0.00  0.00    +0.048 A 
ATOM      6  C   UNL     1     -13.420  24.745 -10.310  0.00  0.00    +0.116 A 
ATOM      7  N   UNL     1     -14.334  24.933 -11.325  0.00  0.00    -0.223 NA
ATOM      8  C   UNL     1     -15.575  24.324 -11.288  0.00  0.00    +0.220 A 
ATOM      9  N   UNL     1     -16.512  24.506 -12.293  0.00  0.00    -0.283 N 
ATOM     36  H   UNL     1     -17.414  24.033 -12.233  0.00  0.00    +0.155 HD
ATOM     37  N   UNL     1     -15.906  23.533 -10.247  0.00  0.00    -0.214 NA
BRANCH   4   3
ATOM      1  C   UNL     1     -15.803  21.806  -5.672  0.00  0.00    +0.020 A 
ATOM      2  C   UNL     1     -15.310  22.702  -6.692  0.00  0.00    +0.013 A 
ATOM      3  C   UNL     1     -15.528  22.415  -8.104  0.00  0.00    +0.019 A 
ATOM     38  C   UNL     1     -16.255  21.203  -8.453  0.00  0.00    +0.120 A 
ATOM     39  N   UNL     1     -16.717  20.359  -7.449  0.00  0.00    -0.263 NA
ATOM     40  C   UNL     1     -16.512  20.624  -6.086  0.00  0.00    +0.111 A 
ENDBRANCH   4   3
ENDBRANCH  10   9
BRANCH  12  13
ATOM     13  N   UNL     1     -16.648  29.009 -14.404  0.00  0.00    -0.281 N 
ATOM     14  C   UNL     1     -17.732  29.640 -14.992  0.00  0.00    +0.248 C 
ATOM     30  O   UNL     1     -18.477  29.117 -15.808  0.00  0.00    -0.270 OA
ATOM     31  H   UNL     1     -16.000  29.611 -13.896  0.00  0.00    +0.155 HD
BRANCH  14  15
ATOM     15  C   UNL     1     -18.023  31.061 -14.631  0.00  0.00    +0.037 A 
ATOM     16  C   UNL     1     -17.705  31.588 -13.301  0.00  0.00    +0.013 A 
ATOM     17  C   UNL     1     -18.012  32.957 -12.974  0.00  0.00    +0.005 A 
ATOM     18  C   UNL     1     -18.640  33.811 -13.979  0.00  0.00    -0.033 A 
ATOM     28  C   UNL     1     -18.940  33.264 -15.292  0.00  0.00    +0.005 A 
ATOM     29  C   UNL     1     -18.642  31.921 -15.616  0.00  0.00    +0.013 A 
BRANCH  18  19
ATOM     19  C   UNL     1     -19.022  35.278 -13.710  0.00  0.00    +0.119 C 
BRANCH  19  20
ATOM     20  N   UNL     1     -19.882  35.958 -14.725  0.00  0.00    -0.302 NA
ATOM     21  C   UNL     1     -19.409  37.385 -15.015  0.00  0.00    +0.066 C 
ATOM     22  C   UNL     1     -20.307  38.074 -16.094  0.00  0.00    -0.064 C 
ATOM     23  N   UNL     1     -21.762  38.070 -15.622  0.00  0.00    +0.379 N 
ATOM     24  C   UNL     1     -22.599  38.768 -16.608  0.00  0.00    -0.096 C 
ATOM     25  H   UNL     1     -21.809  38.647 -14.669  0.00  0.00    -0.082 HD
ATOM     26  C   UNL     1     -22.239  36.655 -15.328  0.00  0.00    -0.064 C 
ATOM     27  C   UNL     1     -21.323  35.970 -14.276  0.00  0.00    +0.066 C 
ENDBRANCH  19  20
ENDBRANCH  18  19
ENDBRANCH  14  15
ENDBRANCH  12  13
TORSDOF 6
ENDMDL
MODEL 2
REMARK VINA RESULT:      -7.7      4.452     14.551
REMARK  Name = C:\Users\Docking\Desktop\test protocol\1iep_ligandH.pdb
REMARK  8 active torsions:
REMARK  status: ('A' for Active; 'I' for Inactive)
REMARK    1  A    between atoms: _5  and  _11
REMARK    2  A    between atoms: _19  and  _21
REMARK    3  A    between atoms: _22  and  _66
REMARK    4  A    between atoms: _27  and  _30
REMARK    5  A    between atoms: _32  and  _33
REMARK    6  A    between atoms: _38  and  _43
REMARK    7  A    between atoms: _43  and  _46
REMARK    8  A    between atoms: _53  and  _55
REMARK                            x       y       z     vdW  Elec       q    Type
REMARK                         _______ _______ _______ _____ _____    ______ ____
ROOT
ATOM     10  C   UNL     1     -14.807  25.834  -8.969  0.00  0.00    +0.038 A 
ATOM     11  C   UNL     1     -15.539  24.695  -8.547  0.00  0.00    +0.047 A 
ATOM     12  C   UNL     1     -15.002  23.780  -7.552  0.00  0.00    +0.035 A 
ATOM     32  C   UNL     1     -13.715  24.058  -7.004  0.00  0.00    +0.024 A 
ATOM     33  C   UNL     1     -12.957  25.211  -7.422  0.00  0.00    +0.007 A 
ATOM     34  C   UNL     1     -13.481  26.115  -8.405  0.00  0.00    -0.029 A 
ATOM     35  C   UNL     1     -12.621  27.332  -8.820  0.00  0.00    +0.045 C 
ENDROOT
BRANCH  10   9
ATOM      4  C   UNL     1     -16.331  26.756 -13.426  0.00  0.00    +0.077 A 
ATOM      5  C   UNL     1     -15.945  25.454 -13.890  0.00  0.00    +0.048 A 
ATOM      6  C   UNL     1     -15.352  24.580 -12.952  0.00  0.00    +0.116 A 
ATOM      7  N   UNL     1     -15.163  24.987 -11.649  0.00  0.00    -0.223 NA
ATOM      8  C   UNL     1     -15.544  26.250 -11.235  0.00  0.00    +0.220 A 
ATOM      9  N   UNL     1     -15.371  26.678  -9.927  0.00  0.00    -0.283 N 
ATOM     36  H   UNL     1     -15.659  27.620  -9.663  0.00  0.00    +0.155 HD
ATOM     37  N   UNL     1     -16.112  27.104 -12.112  0.00  0.00    -0.214 NA
BRANCH   4   3
ATOM      1  C   UNL     1     -18.528  28.500 -16.152  0.00  0.00    +0.020 A 
ATOM      2  C   UNL     1     -17.937  27.462 -15.339  0.00  0.00    +0.013 A 
ATOM      3  C   UNL     1     -16.973  27.791 -14.296  0.00  0.00    +0.019 A 
ATOM     38  C   UNL     1     -16.627  29.190 -14.100  0.00  0.00    +0.120 A 
ATOM     39  N   UNL     1     -17.211  30.168 -14.899  0.00  0.00    -0.263 NA
ATOM     40  C   UNL     1     -18.139  29.863 -15.906  0.00  0.00    +0.111 A 
ENDBRANCH   4   3
ENDBRANCH  10   9
BRANCH  12  13
ATOM     13  N   UNL     1     -15.696  22.603  -7.091  0.00  0.00    -0.281 N 
ATOM     14  C   UNL     1     -16.111  21.513  -7.838  0.00  0.00    +0.248 C 
ATOM     30  O   UNL     1     -16.138  21.482  -9.059  0.00  0.00    -0.270 OA
ATOM     31  H   UNL     1     -15.906  22.570  -6.094  0.00  0.00    +0.155 HD
BRANCH  14  15
ATOM     15  C   UNL     1     -16.578  20.285  -7.125  0.00  0.00    +0.037 A 
ATOM     16  C   UNL     1     -15.626  19.312  -6.583  0.00  0.00    +0.013 A 
ATOM     17  C   UNL     1     -16.103  18.128  -5.915  0.00  0.00    +0.005 A 
ATOM     18  C   UNL     1     -17.542  17.911  -5.783  0.00  0.00    -0.033 A 
ATOM     28  C   UNL     1     -18.465  18.895  -6.325  0.00  0.00    +0.005 A 
ATOM     29  C   UNL     1     -18.000  20.056  -6.982  0.00  0.00    +0.013 A 
BRANCH  18  19
ATOM     19  C   UNL     1     -18.141  16.665  -5.103  0.00  0.00    +0.119 C 
BRANCH  19  20
ATOM     20  N   UNL     1     -18.611  16.814  -3.694  0.00  0.00    -0.302 NA
ATOM     21  C   UNL     1     -18.056  15.716  -2.783  0.00  0.00    +0.066 C 
ATOM     22  C   UNL     1     -18.540  15.901  -1.308  0.00  0.00    -0.064 C 
ATOM     23  N   UNL     1     -20.070  15.911  -1.274  0.00  0.00    +0.379 N 
ATOM     24  C   UNL     1     -20.528  16.026   0.118  0.00  0.00    -0.096 C 
ATOM     25  H   UNL     1     -20.423  14.929  -1.667  0.00  0.00    -0.082 HD
ATOM     26  C   UNL     1     -20.630  16.999  -2.179  0.00  0.00    -0.064 C 
ATOM     27  C   UNL     1     -20.119  16.823  -3.636  0.00  0.00    +0.066 C 
ENDBRANCH  19  20
ENDBRANCH  18  19
ENDBRANCH  14  15
ENDBRANCH  12  13
TORSDOF 6
ENDMDL
MODEL 3
REMARK VINA RESULT:      -7.5     10.716     12.704
REMARK  Name = C:\Users\Docking\Desktop\test protocol\1iep_ligandH.pdb
REMARK  8 active torsions:
REMARK  status: ('A' for Active; 'I' for Inactive)
REMARK    1  A    between atoms: _5  and  _11
REMARK    2  A    between atoms: _19  and  _21
REMARK    3  A    between atoms: _22  and  _66
REMARK    4  A    between atoms: _27  and  _30
REMARK    5  A    between atoms: _32  and  _33
REMARK    6  A    between atoms: _38  and  _43
REMARK    7  A    between atoms: _43  and  _46
REMARK    8  A    between atoms: _53  and  _55
REMARK                            x       y       z     vdW  Elec       q    Type
REMARK                         _______ _______ _______ _____ _____    ______ ____
ROOT
ATOM     10  C   UNL     1     -17.484  19.762  -7.340  0.00  0.00    +0.038 A 
ATOM     11  C   UNL     1     -16.373  20.485  -6.835  0.00  0.00    +0.047 A 
ATOM     12  C   UNL     1     -15.329  20.976  -7.721  0.00  0.00    +0.035 A 
ATOM     32  C   UNL     1     -15.451  20.715  -9.117  0.00  0.00    +0.024 A 
ATOM     33  C   UNL     1     -16.573  19.981  -9.647  0.00  0.00    +0.007 A 
ATOM     34  C   UNL     1     -17.604  19.492  -8.777  0.00  0.00    -0.029 A 
ATOM     35  C   UNL     1     -18.781  18.706  -9.400  0.00  0.00    +0.045 C 
ENDROOT
BRANCH  10   9
ATOM      4  C   UNL     1     -19.183  16.568  -4.186  0.00  0.00    +0.077 A 
ATOM      5  C   UNL     1     -18.050  15.705  -4.359  0.00  0.00    +0.048 A 
ATOM      6  C   UNL     1     -17.055  16.117  -5.274  0.00  0.00    +0.116 A 
ATOM      7  N   UNL     1     -17.194  17.304  -5.959  0.00  0.00    -0.223 NA
ATOM      8  C   UNL     1     -18.300  18.112  -5.770  0.00  0.00    +0.220 A 
ATOM      9  N   UNL     1     -18.457  19.314  -6.443  0.00  0.00    -0.283 N 
ATOM     36  H   UNL     1     -19.291  19.877  -6.282  0.00  0.00    +0.155 HD
ATOM     37  N   UNL     1     -19.265  17.740  -4.903  0.00  0.00    -0.214 NA
BRANCH   4   3
ATOM      1  C   UNL     1     -22.113  16.970  -1.625  0.00  0.00    +0.020 A 
ATOM      2  C   UNL     1     -21.025  17.309  -2.514  0.00  0.00    +0.013 A 
ATOM      3  C   UNL     1     -20.316  16.272  -3.253  0.00  0.00    +0.019 A 
ATOM     38  C   UNL     1     -20.736  14.891  -3.069  0.00  0.00    +0.120 A 
ATOM     39  N   UNL     1     -21.786  14.594  -2.206  0.00  0.00    -0.263 NA
ATOM     40  C   UNL     1     -22.474  15.584  -1.488  0.00  0.00    +0.111 A 
ENDBRANCH   4   3
ENDBRANCH  10   9
BRANCH  12  13
ATOM     13  N   UNL     1     -14.174  21.708  -7.266  0.00  0.00    -0.281 N 
ATOM     14  C   UNL     1     -14.058  23.073  -7.057  0.00  0.00    +0.248 C 
ATOM     30  O   UNL     1     -14.872  23.901  -7.436  0.00  0.00    -0.270 OA
ATOM     31  H   UNL     1     -13.340  21.153  -7.074  0.00  0.00    +0.155 HD
BRANCH  14  15
ATOM     15  C   UNL     1     -12.858  23.593  -6.334  0.00  0.00    +0.037 A 
ATOM     16  C   UNL     1     -12.097  22.744  -5.415  0.00  0.00    +0.013 A 
ATOM     17  C   UNL     1     -10.953  23.277  -4.718  0.00  0.00    +0.005 A 
ATOM     18  C   UNL     1     -10.563  24.667  -4.939  0.00  0.00    -0.033 A 
ATOM     28  C   UNL     1     -11.333  25.486  -5.860  0.00  0.00    +0.005 A 
ATOM     29  C   UNL     1     -12.455  24.968  -6.545  0.00  0.00    +0.013 A 
BRANCH  18  19
ATOM     19  C   UNL     1      -9.369  25.325  -4.222  0.00  0.00    +0.119 C 
BRANCH  19  20
ATOM     20  N   UNL     1      -9.132  26.777  -4.479  0.00  0.00    -0.302 NA
ATOM     21  C   UNL     1      -7.658  27.077  -4.765  0.00  0.00    +0.066 C 
ATOM     22  C   UNL     1      -7.432  28.596  -5.054  0.00  0.00    -0.064 C 
ATOM     23  N   UNL     1      -7.931  29.419  -3.865  0.00  0.00    +0.379 N 
ATOM     24  C   UNL     1      -7.667  30.844  -4.109  0.00  0.00    -0.096 C 
ATOM     25  H   UNL     1      -7.340  29.113  -2.971  0.00  0.00    -0.082 HD
ATOM     26  C   UNL     1      -9.396  29.125  -3.573  0.00  0.00    -0.064 C 
ATOM     27  C   UNL     1      -9.614  27.607  -3.315  0.00  0.00    +0.066 C 
ENDBRANCH  19  20
ENDBRANCH  18  19
ENDBRANCH  14  15
ENDBRANCH  12  13
TORSDOF 6
ENDMDL
MODEL 4
REMARK VINA RESULT:      -7.4     10.875     15.903
REMARK  Name = C:\Users\Docking\Desktop\test protocol\1iep_ligandH.pdb
REMARK  8 active torsions:
REMARK  status: ('A' for Active; 'I' for Inactive)
REMARK    1  A    between atoms: _5  and  _11
REMARK    2  A    between atoms: _19  and  _21
REMARK    3  A    between atoms: _22  and  _66
REMARK    4  A    between atoms: _27  and  _30
REMARK    5  A    between atoms: _32  and  _33
REMARK    6  A    between atoms: _38  and  _43
REMARK    7  A    between atoms: _43  and  _46
REMARK    8  A    between atoms: _53  and  _55
REMARK                            x       y       z     vdW  Elec       q    Type
REMARK                         _______ _______ _______ _____ _____    ______ ____
ROOT
ATOM     10  C   UNL     1     -16.001  19.506  -7.619  0.00  0.00    +0.038 A 
ATOM     11  C   UNL     1     -16.728  19.075  -6.480  0.00  0.00    +0.047 A 
ATOM     12  C   UNL     1     -18.134  18.716  -6.577  0.00  0.00    +0.035 A 
ATOM     32  C   UNL     1     -18.768  18.806  -7.851  0.00  0.00    +0.024 A 
ATOM     33  C   UNL     1     -18.044  19.244  -9.018  0.00  0.00    +0.007 A 
ATOM     34  C   UNL     1     -16.658  19.601  -8.928  0.00  0.00    -0.029 A 
ATOM     35  C   UNL     1     -15.933  20.070 -10.212  0.00  0.00    +0.045 C 
ENDROOT
BRANCH  10   9
ATOM      4  C   UNL     1     -12.493  22.647  -6.685  0.00  0.00    +0.077 A 
ATOM      5  C   UNL     1     -13.424  23.724  -6.508  0.00  0.00    +0.048 A 
ATOM      6  C   UNL     1     -14.796  23.430  -6.673  0.00  0.00    +0.116 A 
ATOM      7  N   UNL     1     -15.196  22.150  -6.991  0.00  0.00    -0.223 NA
ATOM      8  C   UNL     1     -14.272  21.134  -7.156  0.00  0.00    +0.220 A 
ATOM      9  N   UNL     1     -14.652  19.838  -7.469  0.00  0.00    -0.283 N 
ATOM     36  H   UNL     1     -13.940  19.119  -7.590  0.00  0.00    +0.155 HD
ATOM     37  N   UNL     1     -12.956  21.390  -7.006  0.00  0.00    -0.214 NA
BRANCH   4   3
ATOM      1  C   UNL     1      -8.960  23.757  -5.428  0.00  0.00    +0.020 A 
ATOM      2  C   UNL     1     -10.397  23.645  -5.525  0.00  0.00    +0.013 A 
ATOM      3  C   UNL     1     -11.011  22.800  -6.541  0.00  0.00    +0.019 A 
ATOM     38  C   UNL     1     -10.136  22.074  -7.449  0.00  0.00    +0.120 A 
ATOM     39  N   UNL     1      -8.755  22.203  -7.333  0.00  0.00    -0.263 NA
ATOM     40  C   UNL     1      -8.153  23.015  -6.361  0.00  0.00    +0.111 A 
ENDBRANCH   4   3
ENDBRANCH  10   9
BRANCH  12  13
ATOM     13  N   UNL     1     -18.926  18.279  -5.454  0.00  0.00    -0.281 N 
ATOM     14  C   UNL     1     -18.919  17.038  -4.839  0.00  0.00    +0.248 C 
ATOM     30  O   UNL     1     -18.381  16.042  -5.298  0.00  0.00    -0.270 OA
ATOM     31  H   UNL     1     -19.570  18.969  -5.066  0.00  0.00    +0.155 HD
BRANCH  14  15
ATOM     15  C   UNL     1     -19.624  16.877  -3.531  0.00  0.00    +0.037 A 
ATOM     16  C   UNL     1     -19.003  16.157  -2.416  0.00  0.00    +0.013 A 
ATOM     17  C   UNL     1     -19.711  16.001  -1.171  0.00  0.00    +0.005 A 
ATOM     18  C   UNL     1     -21.050  16.569  -1.033  0.00  0.00    -0.033 A 
ATOM     28  C   UNL     1     -21.641  17.284  -2.152  0.00  0.00    +0.005 A 
ATOM     29  C   UNL     1     -20.950  17.437  -3.375  0.00  0.00    +0.013 A 
BRANCH  18  19
ATOM     19  C   UNL     1     -21.888  16.433   0.252  0.00  0.00    +0.119 C 
BRANCH  19  20
ATOM     20  N   UNL     1     -22.536  17.671   0.780  0.00  0.00    -0.302 NA
ATOM     21  C   UNL     1     -22.076  17.997   2.204  0.00  0.00    +0.066 C 
ATOM     22  C   UNL     1     -22.746  19.307   2.732  0.00  0.00    -0.064 C 
ATOM     23  N   UNL     1     -24.268  19.157   2.676  0.00  0.00    +0.379 N 
ATOM     24  C   UNL     1     -24.901  20.364   3.226  0.00  0.00    -0.096 C 
ATOM     25  H   UNL     1     -24.547  18.300   3.331  0.00  0.00    -0.082 HD
ATOM     26  C   UNL     1     -24.733  18.829   1.264  0.00  0.00    -0.064 C 
ATOM     27  C   UNL     1     -24.039  17.542   0.738  0.00  0.00    +0.066 C 
ENDBRANCH  19  20
ENDBRANCH  18  19
ENDBRANCH  14  15
ENDBRANCH  12  13
TORSDOF 6
ENDMDL
MODEL 5
REMARK VINA RESULT:      -7.3      2.156     12.971
REMARK  Name = C:\Users\Docking\Desktop\test protocol\1iep_ligandH.pdb
REMARK  8 active torsions:
REMARK  status: ('A' for Active; 'I' for Inactive)
REMARK    1  A    between atoms: _5  and  _11
REMARK    2  A    between atoms: _19  and  _21
REMARK    3  A    between atoms: _22  and  _66
REMARK    4  A    between atoms: _27  and  _30
REMARK    5  A    between atoms: _32  and  _33
REMARK    6  A    between atoms: _38  and  _43
REMARK    7  A    between atoms: _43  and  _46
REMARK    8  A    between atoms: _53  and  _55
REMARK                            x       y       z     vdW  Elec       q    Type
REMARK                         _______ _______ _______ _____ _____    ______ ____
ROOT
ATOM     10  C   UNL     1     -17.375  31.020 -15.677  0.00  0.00    +0.038 A 
ATOM     11  C   UNL     1     -17.527  29.996 -14.707  0.00  0.00    +0.047 A 
ATOM     12  C   UNL     1     -16.448  29.063 -14.422  0.00  0.00    +0.035 A 
ATOM     32  C   UNL     1     -15.227  29.203 -15.143  0.00  0.00    +0.024 A 
ATOM     33  C   UNL     1     -15.055  30.237 -16.133  0.00  0.00    +0.007 A 
ATOM     34  C   UNL     1     -16.117  31.159 -16.419  0.00  0.00    -0.029 A 
ATOM     35  C   UNL     1     -15.880  32.243 -17.496  0.00  0.00    +0.045 C 
ENDROOT
BRANCH  10   9
ATOM      4  C   UNL     1     -19.996  34.892 -14.592  0.00  0.00    +0.077 A 
ATOM      5  C   UNL     1     -19.184  35.194 -13.449  0.00  0.00    +0.048 A 
ATOM      6  C   UNL     1     -18.106  34.325 -13.171  0.00  0.00    +0.116 A 
ATOM      7  N   UNL     1     -17.867  33.237 -13.982  0.00  0.00    -0.223 NA
ATOM      8  C   UNL     1     -18.670  32.972 -15.076  0.00  0.00    +0.220 A 
ATOM      9  N   UNL     1     -18.444  31.888 -15.910  0.00  0.00    -0.283 N 
ATOM     36  H   UNL     1     -19.064  31.723 -16.702  0.00  0.00    +0.155 HD
ATOM     37  N   UNL     1     -19.707  33.787 -15.362  0.00  0.00    -0.214 NA
BRANCH   4   3
ATOM      1  C   UNL     1     -23.304  36.980 -14.551  0.00  0.00    +0.020 A 
ATOM      2  C   UNL     1     -22.190  36.184 -14.088  0.00  0.00    +0.013 A 
ATOM      3  C   UNL     1     -21.170  35.718 -15.018  0.00  0.00    +0.019 A 
ATOM     38  C   UNL     1     -21.306  36.078 -16.422  0.00  0.00    +0.120 A 
ATOM     39  N   UNL     1     -22.390  36.844 -16.839  0.00  0.00    -0.263 NA
ATOM     40  C   UNL     1     -23.379  37.297 -15.953  0.00  0.00    +0.111 A 
ENDBRANCH   4   3
ENDBRANCH  10   9
BRANCH  12  13
ATOM     13  N   UNL     1     -16.548  27.998 -13.454  0.00  0.00    -0.281 N 
ATOM     14  C   UNL     1     -16.529  26.633 -13.685  0.00  0.00    +0.248 C 
ATOM     30  O   UNL     1     -16.639  26.117 -14.788  0.00  0.00    -0.270 OA
ATOM     31  H   UNL     1     -16.644  28.287 -12.481  0.00  0.00    +0.155 HD
BRANCH  14  15
ATOM     15  C   UNL     1     -16.381  25.706 -12.522  0.00  0.00    +0.037 A 
ATOM     16  C   UNL     1     -16.274  24.257 -12.714  0.00  0.00    +0.013 A 
ATOM     17  C   UNL     1     -16.149  23.384 -11.574  0.00  0.00    +0.005 A 
ATOM     18  C   UNL     1     -16.130  23.958 -10.231  0.00  0.00    -0.033 A 
ATOM     28  C   UNL     1     -16.232  25.399 -10.070  0.00  0.00    +0.005 A 
ATOM     29  C   UNL     1     -16.356  26.258 -11.185  0.00  0.00    +0.013 A 
BRANCH  18  19
ATOM     19  C   UNL     1     -16.021  23.101  -8.956  0.00  0.00    +0.119 C 
BRANCH  19  20
ATOM     20  N   UNL     1     -14.693  23.054  -8.274  0.00  0.00    -0.302 NA
ATOM     21  C   UNL     1     -14.456  21.716  -7.570  0.00  0.00    +0.066 C 
ATOM     22  C   UNL     1     -13.053  21.676  -6.881  0.00  0.00    -0.064 C 
ATOM     23  N   UNL     1     -12.941  22.836  -5.890  0.00  0.00    +0.379 N 
ATOM     24  C   UNL     1     -11.646  22.768  -5.199  0.00  0.00    -0.096 C 
ATOM     25  H   UNL     1     -13.741  22.705  -5.125  0.00  0.00    -0.082 HD
ATOM     26  C   UNL     1     -13.179  24.171  -6.582  0.00  0.00    -0.064 C 
ATOM     27  C   UNL     1     -14.563  24.189  -7.288  0.00  0.00    +0.066 C 
ENDBRANCH  19  20
ENDBRANCH  18  19
ENDBRANCH  14  15
ENDBRANCH  12  13
TORSDOF 6
ENDMDL
