MODEL 1
REMARK VINA RESULT:     -11.0      0.000      0.000
REMARK  Name = C:\Users\Docking\Desktop\test protocol\1iep_ligandH.pdb
REMARK  8 active torsions:
REMARK  status: ('A' for Active; 'I' for Inactive)
REMARK    1  A    between atoms: _5  and  _11
REMARK    2  A    between atoms: _19  and  _21
REMARK    3  A    between atoms: _22  and  _66
REMARK    4  A    between atoms: _27  and  _30
REMARK    5  A    between atoms: _32  and  _33
REMARK    6  A    between atoms: _38  and  _43
REMARK    7  A    between atoms: _43  and  _46
REMARK    8  A    between atoms: _53  and  _55
REMARK                            x       y       z     vdW  Elec       q    Type
REMARK                         _______ _______ _______ _____ _____    ______ ____
ROOT
ATOM     10  C   UNL     1     -38.662  59.589  12.592  0.00  0.00    +0.038 A 
ATOM     11  C   UNL     1     -39.243  58.462  13.228  0.00  0.00    +0.047 A 
ATOM     12  C   UNL     1     -39.437  58.430  14.670  0.00  0.00    +0.035 A 
ATOM     32  C   UNL     1     -39.030  59.564  15.432  0.00  0.00    +0.024 A 
ATOM     33  C   UNL     1     -38.438  60.716  14.801  0.00  0.00    +0.007 A 
ATOM     34  C   UNL     1     -38.241  60.753  13.380  0.00  0.00    -0.029 A 
ATOM     35  C   UNL     1     -37.595  62.013  12.758  0.00  0.00    +0.045 C 
ENDROOT
BRANCH  10   9
ATOM      4  C   UNL     1     -36.395  58.134   8.619  0.00  0.00    +0.077 A 
ATOM      5  C   UNL     1     -35.437  57.376   9.372  0.00  0.00    +0.048 A 
ATOM      6  C   UNL     1     -35.559  57.392  10.780  0.00  0.00    +0.116 A 
ATOM      7  N   UNL     1     -36.567  58.116  11.379  0.00  0.00    -0.223 NA
ATOM      8  C   UNL     1     -37.473  58.838  10.624  0.00  0.00    +0.220 A 
ATOM      9  N   UNL     1     -38.499  59.566  11.205  0.00  0.00    -0.283 N 
ATOM     36  H   UNL     1     -39.142  60.091  10.613  0.00  0.00    +0.155 HD
ATOM     37  N   UNL     1     -37.377  58.839   9.278  0.00  0.00    -0.214 NA
BRANCH   4   3
ATOM      1  C   UNL     1     -37.571  58.426   4.900  0.00  0.00    +0.020 A 
ATOM      2  C   UNL     1     -37.621  58.353   6.342  0.00  0.00    +0.013 A 
ATOM      3  C   UNL     1     -36.400  58.213   7.124  0.00  0.00    +0.019 A 
ATOM     38  C   UNL     1     -35.133  58.149   6.411  0.00  0.00    +0.120 A 
ATOM     39  N   UNL     1     -35.115  58.219   5.021  0.00  0.00    -0.263 NA
ATOM     40  C   UNL     1     -36.285  58.353   4.258  0.00  0.00    +0.111 A 
ENDBRANCH   4   3
ENDBRANCH  10   9
BRANCH  12  13
ATOM     13  N   UNL     1     -40.014  57.311  15.373  0.00  0.00    -0.281 N 
ATOM     14  C   UNL     1     -39.382  56.151  15.791  0.00  0.00    +0.248 C 
ATOM     30  O   UNL     1     -38.266  55.804  15.434  0.00  0.00    -0.270 OA
ATOM     31  H   UNL     1     -41.008  57.382  15.588  0.00  0.00    +0.155 HD
BRANCH  14  15
ATOM     15  C   UNL     1     -40.100  55.236  16.731  0.00  0.00    +0.037 A 
ATOM     16  C   UNL     1     -39.456  54.031  17.258  0.00  0.00    +0.013 A 
ATOM     17  C   UNL     1     -40.177  53.157  18.149  0.00  0.00    +0.005 A 
ATOM     18  C   UNL     1     -41.551  53.487  18.521  0.00  0.00    -0.033 A 
ATOM     28  C   UNL     1     -42.163  54.693  17.987  0.00  0.00    +0.005 A 
ATOM     29  C   UNL     1     -41.460  55.551  17.112  0.00  0.00    +0.013 A 
BRANCH  18  19
ATOM     19  C   UNL     1     -42.403  52.602  19.449  0.00  0.00    +0.119 C 
BRANCH  19  20
ATOM     20  N   UNL     1     -43.494  53.270  20.219  0.00  0.00    -0.302 NA
ATOM     21  C   UNL     1     -43.054  53.636  21.639  0.00  0.00    +0.066 C 
ATOM     22  C   UNL     1     -44.200  54.354  22.423  0.00  0.00    -0.064 C 
ATOM     23  N   UNL     1     -45.435  53.452  22.455  0.00  0.00    +0.379 N 
ATOM     24  C   UNL     1     -46.496  54.099  23.240  0.00  0.00    -0.096 C 
ATOM     25  H   UNL     1     -45.152  52.510  22.979  0.00  0.00    -0.082 HD
ATOM     26  C   UNL     1     -45.878  53.080  21.046  0.00  0.00    -0.064 C 
ATOM     27  C   UNL     1     -44.722  52.394  20.266  0.00  0.00    +0.066 C 
ENDBRANCH  19  20
ENDBRANCH  18  19
ENDBRANCH  14  15
ENDBRANCH  12  13
TORSDOF 6
ENDMDL
MODEL 2
REMARK VINA RESULT:     -11.0      0.974      1.502
REMARK  Name = C:\Users\Docking\Desktop\test protocol\1iep_ligandH.pdb
REMARK  8 active torsions:
REMARK  status: ('A' for Active; 'I' for Inactive)
REMARK    1  A    between atoms: _5  and  _11
REMARK    2  A    between atoms: _19  and  _21
REMARK    3  A    between atoms: _22  and  _66
REMARK    4  A    between atoms: _27  and  _30
REMARK    5  A    between atoms: _32  and  _33
REMARK    6  A    between atoms: _38  and  _43
REMARK    7  A    between atoms: _43  and  _46
REMARK    8  A    between atoms: _53  and  _55
REMARK                            x       y       z     vdW  Elec       q    Type
REMARK                         _______ _______ _______ _____ _____    ______ ____
ROOT
ATOM     10  C   UNL     1     -38.637  59.735  12.399  0.00  0.00    +0.038 A 
ATOM     11  C   UNL     1     -39.221  58.646  13.094  0.00  0.00    +0.047 A 
ATOM     12  C   UNL     1     -39.388  58.678  14.539  0.00  0.00    +0.035 A 
ATOM     32  C   UNL     1     -38.951  59.837  15.244  0.00  0.00    +0.024 A 
ATOM     33  C   UNL     1     -38.354  60.953  14.553  0.00  0.00    +0.007 A 
ATOM     34  C   UNL     1     -38.184  60.926  13.128  0.00  0.00    -0.029 A 
ATOM     35  C   UNL     1     -37.532  62.148  12.441  0.00  0.00    +0.045 C 
ENDROOT
BRANCH  10   9
ATOM      4  C   UNL     1     -36.421  58.137   8.452  0.00  0.00    +0.077 A 
ATOM      5  C   UNL     1     -35.435  57.432   9.220  0.00  0.00    +0.048 A 
ATOM      6  C   UNL     1     -35.529  57.512  10.627  0.00  0.00    +0.116 A 
ATOM      7  N   UNL     1     -36.539  58.245  11.213  0.00  0.00    -0.223 NA
ATOM      8  C   UNL     1     -37.473  58.915  10.443  0.00  0.00    +0.220 A 
ATOM      9  N   UNL     1     -38.501  59.651  11.011  0.00  0.00    -0.283 N 
ATOM     36  H   UNL     1     -39.165  60.137  10.409  0.00  0.00    +0.155 HD
ATOM     37  N   UNL     1     -37.403  58.855   9.097  0.00  0.00    -0.214 NA
BRANCH   4   3
ATOM      1  C   UNL     1     -37.668  58.314   4.749  0.00  0.00    +0.020 A 
ATOM      2  C   UNL     1     -37.688  58.312   6.193  0.00  0.00    +0.013 A 
ATOM      3  C   UNL     1     -36.457  58.146   6.955  0.00  0.00    +0.019 A 
ATOM     38  C   UNL     1     -35.212  57.985   6.219  0.00  0.00    +0.120 A 
ATOM     39  N   UNL     1     -35.224  57.989   4.828  0.00  0.00    -0.263 NA
ATOM     40  C   UNL     1     -36.403  58.146   4.084  0.00  0.00    +0.111 A 
ENDBRANCH   4   3
ENDBRANCH  10   9
BRANCH  12  13
ATOM     13  N   UNL     1     -39.967  57.599  15.300  0.00  0.00    -0.281 N 
ATOM     14  C   UNL     1     -39.381  56.394  15.650  0.00  0.00    +0.248 C 
ATOM     30  O   UNL     1     -38.337  55.970  15.177  0.00  0.00    -0.270 OA
ATOM     31  H   UNL     1     -40.926  57.741  15.619  0.00  0.00    +0.155 HD
BRANCH  14  15
ATOM     15  C   UNL     1     -40.060  55.527  16.661  0.00  0.00    +0.037 A 
ATOM     16  C   UNL     1     -41.370  55.885  17.211  0.00  0.00    +0.013 A 
ATOM     17  C   UNL     1     -41.996  55.041  18.198  0.00  0.00    +0.005 A 
ATOM     18  C   UNL     1     -41.311  53.828  18.640  0.00  0.00    -0.033 A 
ATOM     28  C   UNL     1     -40.014  53.495  18.074  0.00  0.00    +0.005 A 
ATOM     29  C   UNL     1     -39.398  54.321  17.108  0.00  0.00    +0.013 A 
BRANCH  18  19
ATOM     19  C   UNL     1     -41.894  52.880  19.704  0.00  0.00    +0.119 C 
BRANCH  19  20
ATOM     20  N   UNL     1     -42.027  53.411  21.094  0.00  0.00    -0.302 NA
ATOM     21  C   UNL     1     -41.377  52.487  22.127  0.00  0.00    +0.066 C 
ATOM     22  C   UNL     1     -41.507  53.068  23.573  0.00  0.00    -0.064 C 
ATOM     23  N   UNL     1     -42.984  53.291  23.899  0.00  0.00    +0.379 N 
ATOM     24  C   UNL     1     -43.113  53.783  25.278  0.00  0.00    -0.096 C 
ATOM     25  H   UNL     1     -43.495  52.301  23.844  0.00  0.00    -0.082 HD
ATOM     26  C   UNL     1     -43.640  54.206  22.875  0.00  0.00    -0.064 C 
ATOM     27  C   UNL     1     -43.479  53.634  21.439  0.00  0.00    +0.066 C 
ENDBRANCH  19  20
ENDBRANCH  18  19
ENDBRANCH  14  15
ENDBRANCH  12  13
TORSDOF 6
ENDMDL
MODEL 3
REMARK VINA RESULT:      -9.7      1.924     12.583
REMARK  Name = C:\Users\Docking\Desktop\test protocol\1iep_ligandH.pdb
REMARK  8 active torsions:
REMARK  status: ('A' for Active; 'I' for Inactive)
REMARK    1  A    between atoms: _5  and  _11
REMARK    2  A    between atoms: _19  and  _21
REMARK    3  A    between atoms: _22  and  _66
REMARK    4  A    between atoms: _27  and  _30
REMARK    5  A    between atoms: _32  and  _33
REMARK    6  A    between atoms: _38  and  _43
REMARK    7  A    between atoms: _43  and  _46
REMARK    8  A    between atoms: _53  and  _55
REMARK                            x       y       z     vdW  Elec       q    Type
REMARK                         _______ _______ _______ _____ _____    ______ ____
ROOT
ATOM     10  C   UNL     1     -39.575  59.679  15.789  0.00  0.00    +0.038 A 
ATOM     11  C   UNL     1     -38.949  59.270  14.585  0.00  0.00    +0.047 A 
ATOM     12  C   UNL     1     -38.095  60.178  13.834  0.00  0.00    +0.035 A 
ATOM     32  C   UNL     1     -37.900  61.495  14.342  0.00  0.00    +0.024 A 
ATOM     33  C   UNL     1     -38.530  61.928  15.564  0.00  0.00    +0.007 A 
ATOM     34  C   UNL     1     -39.375  61.038  16.307  0.00  0.00    -0.029 A 
ATOM     35  C   UNL     1     -40.030  61.558  17.608  0.00  0.00    +0.045 C 
ENDROOT
BRANCH  10   9
ATOM      4  C   UNL     1     -40.777  55.205  17.047  0.00  0.00    +0.077 A 
ATOM      5  C   UNL     1     -39.719  54.637  16.261  0.00  0.00    +0.048 A 
ATOM      6  C   UNL     1     -38.893  55.530  15.543  0.00  0.00    +0.116 A 
ATOM      7  N   UNL     1     -39.116  56.888  15.612  0.00  0.00    -0.223 NA
ATOM      8  C   UNL     1     -40.146  57.403  16.378  0.00  0.00    +0.220 A 
ATOM      9  N   UNL     1     -40.384  58.766  16.469  0.00  0.00    -0.283 N 
ATOM     36  H   UNL     1     -41.159  59.105  17.039  0.00  0.00    +0.155 HD
ATOM     37  N   UNL     1     -40.950  56.571  17.072  0.00  0.00    -0.214 NA
BRANCH   4   3
ATOM      1  C   UNL     1     -42.843  52.218  18.498  0.00  0.00    +0.020 A 
ATOM      2  C   UNL     1     -41.908  52.957  17.682  0.00  0.00    +0.013 A 
ATOM      3  C   UNL     1     -41.732  54.392  17.864  0.00  0.00    +0.019 A 
ATOM     38  C   UNL     1     -42.523  55.055  18.890  0.00  0.00    +0.120 A 
ATOM     39  N   UNL     1     -43.417  54.318  19.660  0.00  0.00    -0.263 NA
ATOM     40  C   UNL     1     -43.596  52.936  19.492  0.00  0.00    +0.111 A 
ENDBRANCH   4   3
ENDBRANCH  10   9
BRANCH  12  13
ATOM     13  N   UNL     1     -37.439  59.821  12.601  0.00  0.00    -0.281 N 
ATOM     14  C   UNL     1     -37.284  58.558  12.053  0.00  0.00    +0.248 C 
ATOM     30  O   UNL     1     -37.501  57.514  12.651  0.00  0.00    -0.270 OA
ATOM     31  H   UNL     1     -37.041  60.593  12.067  0.00  0.00    +0.155 HD
BRANCH  14  15
ATOM     15  C   UNL     1     -36.804  58.437  10.643  0.00  0.00    +0.037 A 
ATOM     16  C   UNL     1     -37.466  59.155   9.551  0.00  0.00    +0.013 A 
ATOM     17  C   UNL     1     -36.994  59.006   8.197  0.00  0.00    +0.005 A 
ATOM     18  C   UNL     1     -35.851  58.137   7.928  0.00  0.00    -0.033 A 
ATOM     28  C   UNL     1     -35.210  57.441   9.031  0.00  0.00    +0.005 A 
ATOM     29  C   UNL     1     -35.671  57.583  10.359  0.00  0.00    +0.013 A 
BRANCH  18  19
ATOM     19  C   UNL     1     -35.293  57.903   6.512  0.00  0.00    +0.119 C 
BRANCH  19  20
ATOM     20  N   UNL     1     -34.638  59.062   5.835  0.00  0.00    -0.302 NA
ATOM     21  C   UNL     1     -33.732  59.847   6.788  0.00  0.00    +0.066 C 
ATOM     22  C   UNL     1     -33.038  61.042   6.057  0.00  0.00    -0.064 C 
ATOM     23  N   UNL     1     -34.105  61.955   5.450  0.00  0.00    +0.379 N 
ATOM     24  C   UNL     1     -33.457  63.110   4.813  0.00  0.00    -0.096 C 
ATOM     25  H   UNL     1     -34.736  62.338   6.285  0.00  0.00    -0.082 HD
ATOM     26  C   UNL     1     -35.012  61.182   4.504  0.00  0.00    -0.064 C 
ATOM     27  C   UNL     1     -35.674  59.979   5.232  0.00  0.00    +0.066 C 
ENDBRANCH  19  20
ENDBRANCH  18  19
ENDBRANCH  14  15
ENDBRANCH  12  13
TORSDOF 6
ENDMDL
MODEL 4
REMARK VINA RESULT:      -9.7      4.697      7.289
REMARK  Name = C:\Users\Docking\Desktop\test protocol\1iep_ligandH.pdb
REMARK  8 active torsions:
REMARK  status: ('A' for Active; 'I' for Inactive)
REMARK    1  A    between atoms: _5  and  _11
REMARK    2  A    between atoms: _19  and  _21
REMARK    3  A    between atoms: _22  and  _66
REMARK    4  A    between atoms: _27  and  _30
REMARK    5  A    between atoms: _32  and  _33
REMARK    6  A    between atoms: _38  and  _43
REMARK    7  A    between atoms: _43  and  _46
REMARK    8  A    between atoms: _53  and  _55
REMARK                            x       y       z     vdW  Elec       q    Type
REMARK                         _______ _______ _______ _____ _____    ______ ____
ROOT
ATOM     10  C   UNL     1     -34.527  60.358   8.046  0.00  0.00    +0.038 A 
ATOM     11  C   UNL     1     -35.301  60.115   9.209  0.00  0.00    +0.047 A 
ATOM     12  C   UNL     1     -36.064  58.886   9.363  0.00  0.00    +0.035 A 
ATOM     32  C   UNL     1     -36.013  57.924   8.313  0.00  0.00    +0.024 A 
ATOM     33  C   UNL     1     -35.233  58.155   7.123  0.00  0.00    +0.007 A 
ATOM     34  C   UNL     1     -34.480  59.366   6.965  0.00  0.00    -0.029 A 
ATOM     35  C   UNL     1     -33.666  59.563   5.665  0.00  0.00    +0.045 C 
ENDROOT
BRANCH  10   9
ATOM      4  C   UNL     1     -34.311  65.144   7.762  0.00  0.00    +0.077 A 
ATOM      5  C   UNL     1     -35.741  65.269   7.777  0.00  0.00    +0.048 A 
ATOM      6  C   UNL     1     -36.495  64.076   7.851  0.00  0.00    +0.116 A 
ATOM      7  N   UNL     1     -35.857  62.856   7.906  0.00  0.00    -0.223 NA
ATOM      8  C   UNL     1     -34.477  62.771   7.888  0.00  0.00    +0.220 A 
ATOM      9  N   UNL     1     -33.814  61.555   7.951  0.00  0.00    -0.283 N 
ATOM     36  H   UNL     1     -32.795  61.534   7.928  0.00  0.00    +0.155 HD
ATOM     37  N   UNL     1     -33.734  63.895   7.817  0.00  0.00    -0.214 NA
BRANCH   4   3
ATOM      1  C   UNL     1     -31.474  67.711   8.575  0.00  0.00    +0.020 A 
ATOM      2  C   UNL     1     -32.351  66.569   8.692  0.00  0.00    +0.013 A 
ATOM      3  C   UNL     1     -33.378  66.312   7.690  0.00  0.00    +0.019 A 
ATOM     38  C   UNL     1     -33.491  67.238   6.572  0.00  0.00    +0.120 A 
ATOM     39  N   UNL     1     -32.634  68.330   6.487  0.00  0.00    -0.263 NA
ATOM     40  C   UNL     1     -31.643  68.588   7.446  0.00  0.00    +0.111 A 
ENDBRANCH   4   3
ENDBRANCH  10   9
BRANCH  12  13
ATOM     13  N   UNL     1     -36.874  58.588  10.518  0.00  0.00    -0.281 N 
ATOM     14  C   UNL     1     -36.456  58.395  11.825  0.00  0.00    +0.248 C 
ATOM     30  O   UNL     1     -35.292  58.238  12.162  0.00  0.00    -0.270 OA
ATOM     31  H   UNL     1     -37.878  58.510  10.352  0.00  0.00    +0.155 HD
BRANCH  14  15
ATOM     15  C   UNL     1     -37.481  58.357  12.912  0.00  0.00    +0.037 A 
ATOM     16  C   UNL     1     -37.904  59.579  13.601  0.00  0.00    +0.013 A 
ATOM     17  C   UNL     1     -38.882  59.511  14.658  0.00  0.00    +0.005 A 
ATOM     18  C   UNL     1     -39.444  58.216  15.032  0.00  0.00    -0.033 A 
ATOM     28  C   UNL     1     -39.010  57.020  14.328  0.00  0.00    +0.005 A 
ATOM     29  C   UNL     1     -38.052  57.082  13.293  0.00  0.00    +0.013 A 
BRANCH  18  19
ATOM     19  C   UNL     1     -40.477  58.047  16.162  0.00  0.00    +0.119 C 
BRANCH  19  20
ATOM     20  N   UNL     1     -40.892  56.655  16.507  0.00  0.00    -0.302 NA
ATOM     21  C   UNL     1     -41.977  56.630  17.587  0.00  0.00    +0.066 C 
ATOM     22  C   UNL     1     -42.416  55.166  17.919  0.00  0.00    -0.064 C 
ATOM     23  N   UNL     1     -41.194  54.359  18.361  0.00  0.00    +0.379 N 
ATOM     24  C   UNL     1     -41.612  52.998  18.730  0.00  0.00    -0.096 C 
ATOM     25  H   UNL     1     -40.780  54.845  19.275  0.00  0.00    -0.082 HD
ATOM     26  C   UNL     1     -40.108  54.381  17.294  0.00  0.00    -0.064 C 
ATOM     27  C   UNL     1     -39.701  55.841  16.950  0.00  0.00    +0.066 C 
ENDBRANCH  19  20
ENDBRANCH  18  19
ENDBRANCH  14  15
ENDBRANCH  12  13
TORSDOF 6
ENDMDL
MODEL 5
REMARK VINA RESULT:      -9.6      1.985     13.358
REMARK  Name = C:\Users\Docking\Desktop\test protocol\1iep_ligandH.pdb
REMARK  8 active torsions:
REMARK  status: ('A' for Active; 'I' for Inactive)
REMARK    1  A    between atoms: _5  and  _11
REMARK    2  A    between atoms: _19  and  _21
REMARK    3  A    between atoms: _22  and  _66
REMARK    4  A    between atoms: _27  and  _30
REMARK    5  A    between atoms: _32  and  _33
REMARK    6  A    between atoms: _38  and  _43
REMARK    7  A    between atoms: _43  and  _46
REMARK    8  A    between atoms: _53  and  _55
REMARK                            x       y       z     vdW  Elec       q    Type
REMARK                         _______ _______ _______ _____ _____    ______ ____
ROOT
ATOM     10  C   UNL     1     -41.465  52.855  18.117  0.00  0.00    +0.038 A 
ATOM     11  C   UNL     1     -41.150  53.796  17.103  0.00  0.00    +0.047 A 
ATOM     12  C   UNL     1     -39.778  54.219  16.870  0.00  0.00    +0.035 A 
ATOM     32  C   UNL     1     -38.751  53.662  17.686  0.00  0.00    +0.024 A 
ATOM     33  C   UNL     1     -39.053  52.706  18.722  0.00  0.00    +0.007 A 
ATOM     34  C   UNL     1     -40.405  52.286  18.959  0.00  0.00    -0.029 A 
ATOM     35  C   UNL     1     -40.672  51.263  20.087  0.00  0.00    +0.045 C 
ENDROOT
BRANCH  10   9
ATOM      4  C   UNL     1     -45.742  53.337  20.241  0.00  0.00    +0.077 A 
ATOM      5  C   UNL     1     -45.271  54.401  21.081  0.00  0.00    +0.048 A 
ATOM      6  C   UNL     1     -43.920  54.789  20.940  0.00  0.00    +0.116 A 
ATOM      7  N   UNL     1     -43.109  54.154  20.024  0.00  0.00    -0.223 NA
ATOM      8  C   UNL     1     -43.594  53.131  19.231  0.00  0.00    +0.220 A 
ATOM      9  N   UNL     1     -42.799  52.484  18.298  0.00  0.00    -0.283 N 
ATOM     36  H   UNL     1     -43.192  51.729  17.737  0.00  0.00    +0.155 HD
ATOM     37  N   UNL     1     -44.881  52.740  19.347  0.00  0.00    -0.214 NA
BRANCH   4   3
ATOM      1  C   UNL     1     -48.970  51.261  19.484  0.00  0.00    +0.020 A 
ATOM      2  C   UNL     1     -47.604  51.727  19.417  0.00  0.00    +0.013 A 
ATOM      3  C   UNL     1     -47.145  52.816  20.270  0.00  0.00    +0.019 A 
ATOM     38  C   UNL     1     -48.101  53.416  21.188  0.00  0.00    +0.120 A 
ATOM     39  N   UNL     1     -49.411  52.948  21.230  0.00  0.00    -0.263 NA
ATOM     40  C   UNL     1     -49.864  51.902  20.412  0.00  0.00    +0.111 A 
ENDBRANCH   4   3
ENDBRANCH  10   9
BRANCH  12  13
ATOM     13  N   UNL     1     -39.398  55.177  15.861  0.00  0.00    -0.281 N 
ATOM     14  C   UNL     1     -39.565  56.552  15.886  0.00  0.00    +0.248 C 
ATOM     30  O   UNL     1     -40.262  57.149  16.693  0.00  0.00    -0.270 OA
ATOM     31  H   UNL     1     -38.953  54.794  15.026  0.00  0.00    +0.155 HD
BRANCH  14  15
ATOM     15  C   UNL     1     -38.867  57.383  14.858  0.00  0.00    +0.037 A 
ATOM     16  C   UNL     1     -38.237  56.770  13.686  0.00  0.00    +0.013 A 
ATOM     17  C   UNL     1     -37.555  57.593  12.718  0.00  0.00    +0.005 A 
ATOM     18  C   UNL     1     -37.502  59.039  12.919  0.00  0.00    -0.033 A 
ATOM     28  C   UNL     1     -38.140  59.621  14.088  0.00  0.00    +0.005 A 
ATOM     29  C   UNL     1     -38.808  58.817  15.039  0.00  0.00    +0.013 A 
BRANCH  18  19
ATOM     19  C   UNL     1     -36.778  59.992  11.949  0.00  0.00    +0.119 C 
BRANCH  19  20
ATOM     20  N   UNL     1     -36.401  59.447  10.610  0.00  0.00    -0.302 NA
ATOM     21  C   UNL     1     -35.342  60.310   9.917  0.00  0.00    +0.066 C 
ATOM     22  C   UNL     1     -34.943  59.714   8.528  0.00  0.00    -0.064 C 
ATOM     23  N   UNL     1     -36.192  59.583   7.654  0.00  0.00    +0.379 N 
ATOM     24  C   UNL     1     -35.812  59.078   6.327  0.00  0.00    -0.096 C 
ATOM     25  H   UNL     1     -36.617  60.605   7.518  0.00  0.00    -0.082 HD
ATOM     26  C   UNL     1     -37.251  58.730   8.337  0.00  0.00    -0.064 C 
ATOM     27  C   UNL     1     -37.619  59.314   9.729  0.00  0.00    +0.066 C 
ENDBRANCH  19  20
ENDBRANCH  18  19
ENDBRANCH  14  15
ENDBRANCH  12  13
TORSDOF 6
ENDMDL
