MODEL 1
REMARK VINA RESULT:      -8.9      0.000      0.000
REMARK  Name = C:\Users\Docking\Desktop\test protocol\1iep_ligandH.pdb
REMARK  8 active torsions:
REMARK  status: ('A' for Active; 'I' for Inactive)
REMARK    1  A    between atoms: _5  and  _11
REMARK    2  A    between atoms: _19  and  _21
REMARK    3  A    between atoms: _22  and  _66
REMARK    4  A    between atoms: _27  and  _30
REMARK    5  A    between atoms: _32  and  _33
REMARK    6  A    between atoms: _38  and  _43
REMARK    7  A    between atoms: _43  and  _46
REMARK    8  A    between atoms: _53  and  _55
REMARK                            x       y       z     vdW  Elec       q    Type
REMARK                         _______ _______ _______ _____ _____    ______ ____
ROOT
ATOM     10  C   UNL     1      79.354  31.739  92.369  0.00  0.00    +0.038 A 
ATOM     11  C   UNL     1      78.263  31.171  93.074  0.00  0.00    +0.047 A 
ATOM     12  C   UNL     1      77.144  31.989  93.516  0.00  0.00    +0.035 A 
ATOM     32  C   UNL     1      77.169  33.384  93.221  0.00  0.00    +0.024 A 
ATOM     33  C   UNL     1      78.271  33.978  92.506  0.00  0.00    +0.007 A 
ATOM     34  C   UNL     1      79.378  33.176  92.070  0.00  0.00    -0.029 A 
ATOM     35  C   UNL     1      80.536  33.868  91.313  0.00  0.00    +0.045 C 
ENDROOT
BRANCH  10   9
ATOM      4  C   UNL     1      83.715  29.830  92.979  0.00  0.00    +0.077 A 
ATOM      5  C   UNL     1      83.938  30.575  94.185  0.00  0.00    +0.048 A 
ATOM      6  C   UNL     1      82.907  31.443  94.610  0.00  0.00    +0.116 A 
ATOM      7  N   UNL     1      81.746  31.551  93.876  0.00  0.00    -0.223 NA
ATOM      8  C   UNL     1      81.564  30.820  92.717  0.00  0.00    +0.220 A 
ATOM      9  N   UNL     1      80.401  30.907  91.968  0.00  0.00    -0.283 N 
ATOM     36  H   UNL     1      80.309  30.356  91.114  0.00  0.00    +0.155 HD
ATOM     37  N   UNL     1      82.534  29.985  92.289  0.00  0.00    -0.214 NA
BRANCH   4   3
ATOM      1  C   UNL     1      87.022  28.252  91.608  0.00  0.00    +0.020 A 
ATOM      2  C   UNL     1      86.103  29.218  92.167  0.00  0.00    +0.013 A 
ATOM      3  C   UNL     1      84.708  28.869  92.402  0.00  0.00    +0.019 A 
ATOM     38  C   UNL     1      84.270  27.524  92.061  0.00  0.00    +0.120 A 
ATOM     39  N   UNL     1      85.177  26.615  91.523  0.00  0.00    -0.263 NA
ATOM     40  C   UNL     1      86.522  26.940  91.290  0.00  0.00    +0.111 A 
ENDBRANCH   4   3
ENDBRANCH  10   9
BRANCH  12  13
ATOM     13  N   UNL     1      76.013  31.470  94.243  0.00  0.00    -0.281 N 
ATOM     14  C   UNL     1      74.670  31.572  93.915  0.00  0.00    +0.248 C 
ATOM     30  O   UNL     1      74.224  32.314  93.053  0.00  0.00    -0.270 OA
ATOM     31  H   UNL     1      76.227  30.965  95.103  0.00  0.00    +0.155 HD
BRANCH  14  15
ATOM     15  C   UNL     1      73.679  30.739  94.663  0.00  0.00    +0.037 A 
ATOM     16  C   UNL     1      72.619  30.010  93.963  0.00  0.00    +0.013 A 
ATOM     17  C   UNL     1      71.665  29.228  94.710  0.00  0.00    +0.005 A 
ATOM     18  C   UNL     1      71.770  29.170  96.166  0.00  0.00    -0.033 A 
ATOM     28  C   UNL     1      72.835  29.900  96.834  0.00  0.00    +0.005 A 
ATOM     29  C   UNL     1      73.770  30.668  96.105  0.00  0.00    +0.013 A 
BRANCH  18  19
ATOM     19  C   UNL     1      70.783  28.378  97.045  0.00  0.00    +0.119 C 
BRANCH  19  20
ATOM     20  N   UNL     1      71.350  27.298  97.906  0.00  0.00    -0.302 NA
ATOM     21  C   UNL     1      71.806  26.089  97.085  0.00  0.00    +0.066 C 
ATOM     22  C   UNL     1      72.417  24.977  97.999  0.00  0.00    -0.064 C 
ATOM     23  N   UNL     1      71.386  24.562  99.050  0.00  0.00    +0.379 N 
ATOM     24  C   UNL     1      71.937  23.476  99.875  0.00  0.00    -0.096 C 
ATOM     25  H   UNL     1      70.498  24.159  98.511  0.00  0.00    -0.082 HD
ATOM     26  C   UNL     1      70.926  25.759  99.869  0.00  0.00    -0.064 C 
ATOM     27  C   UNL     1      70.347  26.869  98.948  0.00  0.00    +0.066 C 
ENDBRANCH  19  20
ENDBRANCH  18  19
ENDBRANCH  14  15
ENDBRANCH  12  13
TORSDOF 6
ENDMDL
MODEL 2
REMARK VINA RESULT:      -8.9      8.711     13.655
REMARK  Name = C:\Users\Docking\Desktop\test protocol\1iep_ligandH.pdb
REMARK  8 active torsions:
REMARK  status: ('A' for Active; 'I' for Inactive)
REMARK    1  A    between atoms: _5  and  _11
REMARK    2  A    between atoms: _19  and  _21
REMARK    3  A    between atoms: _22  and  _66
REMARK    4  A    between atoms: _27  and  _30
REMARK    5  A    between atoms: _32  and  _33
REMARK    6  A    between atoms: _38  and  _43
REMARK    7  A    between atoms: _43  and  _46
REMARK    8  A    between atoms: _53  and  _55
REMARK                            x       y       z     vdW  Elec       q    Type
REMARK                         _______ _______ _______ _____ _____    ______ ____
ROOT
ATOM     10  C   UNL     1      69.838  28.223  95.382  0.00  0.00    +0.038 A 
ATOM     11  C   UNL     1      70.042  27.197  96.339  0.00  0.00    +0.047 A 
ATOM     12  C   UNL     1      71.378  26.706  96.642  0.00  0.00    +0.035 A 
ATOM     32  C   UNL     1      72.483  27.285  95.953  0.00  0.00    +0.024 A 
ATOM     33  C   UNL     1      72.293  28.329  94.977  0.00  0.00    +0.007 A 
ATOM     34  C   UNL     1      70.978  28.815  94.672  0.00  0.00    -0.029 A 
ATOM     35  C   UNL     1      70.833  29.931  93.611  0.00  0.00    +0.045 C 
ENDROOT
BRANCH  10   9
ATOM      4  C   UNL     1      65.747  30.342  96.730  0.00  0.00    +0.077 A 
ATOM      5  C   UNL     1      66.239  30.582  98.056  0.00  0.00    +0.048 A 
ATOM      6  C   UNL     1      67.547  30.138  98.353  0.00  0.00    +0.116 A 
ATOM      7  N   UNL     1      68.299  29.503  97.388  0.00  0.00    -0.223 NA
ATOM      8  C   UNL     1      67.793  29.286  96.119  0.00  0.00    +0.220 A 
ATOM      9  N   UNL     1      68.534  28.657  95.130  0.00  0.00    -0.283 N 
ATOM     36  H   UNL     1      68.123  28.509  94.209  0.00  0.00    +0.155 HD
ATOM     37  N   UNL     1      66.546  29.699  95.811  0.00  0.00    -0.214 NA
BRANCH   4   3
ATOM      1  C   UNL     1      62.479  30.707  94.612  0.00  0.00    +0.020 A 
ATOM      2  C   UNL     1      63.798  30.278  95.017  0.00  0.00    +0.013 A 
ATOM      3  C   UNL     1      64.386  30.755  96.263  0.00  0.00    +0.019 A 
ATOM     38  C   UNL     1      63.607  31.671  97.082  0.00  0.00    +0.120 A 
ATOM     39  N   UNL     1      62.340  32.068  96.666  0.00  0.00    -0.263 NA
ATOM     40  C   UNL     1      61.765  31.617  95.468  0.00  0.00    +0.111 A 
ENDBRANCH   4   3
ENDBRANCH  10   9
BRANCH  12  13
ATOM     13  N   UNL     1      71.646  25.660  97.598  0.00  0.00    -0.281 N 
ATOM     14  C   UNL     1      71.909  25.791  98.952  0.00  0.00    +0.248 C 
ATOM     30  O   UNL     1      72.166  26.849  99.507  0.00  0.00    -0.270 OA
ATOM     31  H   UNL     1      71.641  24.708  97.232  0.00  0.00    +0.155 HD
BRANCH  14  15
ATOM     15  C   UNL     1      71.900  24.567  99.810  0.00  0.00    +0.037 A 
ATOM     16  C   UNL     1      71.682  24.656 101.256  0.00  0.00    +0.013 A 
ATOM     17  C   UNL     1      71.695  23.462 102.064  0.00  0.00    +0.005 A 
ATOM     18  C   UNL     1      71.926  22.168 101.426  0.00  0.00    -0.033 A 
ATOM     28  C   UNL     1      72.135  22.109  99.989  0.00  0.00    +0.005 A 
ATOM     29  C   UNL     1      72.124  23.277  99.194  0.00  0.00    +0.013 A 
BRANCH  18  19
ATOM     19  C   UNL     1      71.978  20.845 102.213  0.00  0.00    +0.119 C 
BRANCH  19  20
ATOM     20  N   UNL     1      70.725  20.406 102.895  0.00  0.00    -0.302 NA
ATOM     21  C   UNL     1      70.771  20.664 104.404  0.00  0.00    +0.066 C 
ATOM     22  C   UNL     1      69.443  20.219 105.098  0.00  0.00    -0.064 C 
ATOM     23  N   UNL     1      69.191  18.738 104.810  0.00  0.00    +0.379 N 
ATOM     24  C   UNL     1      67.973  18.303 105.510  0.00  0.00    -0.096 C 
ATOM     25  H   UNL     1      70.047  18.162 105.231  0.00  0.00    -0.082 HD
ATOM     26  C   UNL     1      69.146  18.472 103.312  0.00  0.00    -0.064 C 
ATOM     27  C   UNL     1      70.459  18.945 102.627  0.00  0.00    +0.066 C 
ENDBRANCH  19  20
ENDBRANCH  18  19
ENDBRANCH  14  15
ENDBRANCH  12  13
TORSDOF 6
ENDMDL
MODEL 3
REMARK VINA RESULT:      -8.8      4.975      9.088
REMARK  Name = C:\Users\Docking\Desktop\test protocol\1iep_ligandH.pdb
REMARK  8 active torsions:
REMARK  status: ('A' for Active; 'I' for Inactive)
REMARK    1  A    between atoms: _5  and  _11
REMARK    2  A    between atoms: _19  and  _21
REMARK    3  A    between atoms: _22  and  _66
REMARK    4  A    between atoms: _27  and  _30
REMARK    5  A    between atoms: _32  and  _33
REMARK    6  A    between atoms: _38  and  _43
REMARK    7  A    between atoms: _43  and  _46
REMARK    8  A    between atoms: _53  and  _55
REMARK                            x       y       z     vdW  Elec       q    Type
REMARK                         _______ _______ _______ _____ _____    ______ ____
ROOT
ATOM     10  C   UNL     1      71.562  28.857  94.908  0.00  0.00    +0.038 A 
ATOM     11  C   UNL     1      71.993  27.813  95.767  0.00  0.00    +0.047 A 
ATOM     12  C   UNL     1      71.052  27.106  96.622  0.00  0.00    +0.035 A 
ATOM     32  C   UNL     1      69.679  27.487  96.575  0.00  0.00    +0.024 A 
ATOM     33  C   UNL     1      69.224  28.546  95.709  0.00  0.00    +0.007 A 
ATOM     34  C   UNL     1      70.148  29.249  94.865  0.00  0.00    -0.029 A 
ATOM     35  C   UNL     1      69.606  30.381  93.962  0.00  0.00    +0.045 C 
ENDROOT
BRANCH  10   9
ATOM      4  C   UNL     1      74.946  32.188  94.206  0.00  0.00    +0.077 A 
ATOM      5  C   UNL     1      74.798  32.704  95.536  0.00  0.00    +0.048 A 
ATOM      6  C   UNL     1      73.835  32.089  96.367  0.00  0.00    +0.116 A 
ATOM      7  N   UNL     1      73.082  31.037  95.893  0.00  0.00    -0.223 NA
ATOM      8  C   UNL     1      73.249  30.564  94.604  0.00  0.00    +0.220 A 
ATOM      9  N   UNL     1      72.508  29.502  94.108  0.00  0.00    -0.283 N 
ATOM     36  H   UNL     1      72.656  29.188  93.150  0.00  0.00    +0.155 HD
ATOM     37  N   UNL     1      74.161  31.136  93.790  0.00  0.00    -0.214 NA
BRANCH   4   3
ATOM      1  C   UNL     1      78.218  32.852  92.167  0.00  0.00    +0.020 A 
ATOM      2  C   UNL     1      77.315  32.297  93.149  0.00  0.00    +0.013 A 
ATOM      3  C   UNL     1      75.924  32.729  93.210  0.00  0.00    +0.019 A 
ATOM     38  C   UNL     1      75.475  33.732  92.255  0.00  0.00    +0.120 A 
ATOM     39  N   UNL     1      76.368  34.249  91.321  0.00  0.00    -0.263 NA
ATOM     40  C   UNL     1      77.709  33.842  91.254  0.00  0.00    +0.111 A 
ENDBRANCH   4   3
ENDBRANCH  10   9
BRANCH  12  13
ATOM     13  N   UNL     1      71.432  26.044  97.520  0.00  0.00    -0.281 N 
ATOM     14  C   UNL     1      71.667  26.124  98.882  0.00  0.00    +0.248 C 
ATOM     30  O   UNL     1      71.794  27.170  99.502  0.00  0.00    -0.270 OA
ATOM     31  H   UNL     1      71.541  25.121  97.099  0.00  0.00    +0.155 HD
BRANCH  14  15
ATOM     15  C   UNL     1      71.793  24.859  99.669  0.00  0.00    +0.037 A 
ATOM     16  C   UNL     1      72.038  23.575  99.008  0.00  0.00    +0.013 A 
ATOM     17  C   UNL     1      72.138  22.367  99.789  0.00  0.00    +0.005 A 
ATOM     18  C   UNL     1      71.994  22.439 101.241  0.00  0.00    -0.033 A 
ATOM     28  C   UNL     1      71.757  23.727 101.871  0.00  0.00    +0.005 A 
ATOM     29  C   UNL     1      71.657  24.913 101.109  0.00  0.00    +0.013 A 
BRANCH  18  19
ATOM     19  C   UNL     1      72.066  21.199 102.151  0.00  0.00    +0.119 C 
BRANCH  19  20
ATOM     20  N   UNL     1      70.796  20.752 102.799  0.00  0.00    -0.302 NA
ATOM     21  C   UNL     1      70.866  20.850 104.326  0.00  0.00    +0.066 C 
ATOM     22  C   UNL     1      69.522  20.400 104.986  0.00  0.00    -0.064 C 
ATOM     23  N   UNL     1      69.195  18.971 104.549  0.00  0.00    +0.379 N 
ATOM     24  C   UNL     1      67.962  18.525 105.214  0.00  0.00    -0.096 C 
ATOM     25  H   UNL     1      70.025  18.313 104.897  0.00  0.00    -0.082 HD
ATOM     26  C   UNL     1      69.127  18.865 103.032  0.00  0.00    -0.064 C 
ATOM     27  C   UNL     1      70.457  19.342 102.384  0.00  0.00    +0.066 C 
ENDBRANCH  19  20
ENDBRANCH  18  19
ENDBRANCH  14  15
ENDBRANCH  12  13
TORSDOF 6
ENDMDL
MODEL 4
REMARK VINA RESULT:      -8.8      8.705     13.586
REMARK  Name = C:\Users\Docking\Desktop\test protocol\1iep_ligandH.pdb
REMARK  8 active torsions:
REMARK  status: ('A' for Active; 'I' for Inactive)
REMARK    1  A    between atoms: _5  and  _11
REMARK    2  A    between atoms: _19  and  _21
REMARK    3  A    between atoms: _22  and  _66
REMARK    4  A    between atoms: _27  and  _30
REMARK    5  A    between atoms: _32  and  _33
REMARK    6  A    between atoms: _38  and  _43
REMARK    7  A    between atoms: _43  and  _46
REMARK    8  A    between atoms: _53  and  _55
REMARK                            x       y       z     vdW  Elec       q    Type
REMARK                         _______ _______ _______ _____ _____    ______ ____
ROOT
ATOM     10  C   UNL     1      69.951  28.133  95.438  0.00  0.00    +0.038 A 
ATOM     11  C   UNL     1      70.076  27.118  96.421  0.00  0.00    +0.047 A 
ATOM     12  C   UNL     1      71.376  26.570  96.776  0.00  0.00    +0.035 A 
ATOM     32  C   UNL     1      72.528  27.082  96.112  0.00  0.00    +0.024 A 
ATOM     33  C   UNL     1      72.420  28.113  95.110  0.00  0.00    +0.007 A 
ATOM     34  C   UNL     1      71.140  28.655  94.754  0.00  0.00    -0.029 A 
ATOM     35  C   UNL     1      71.082  29.754  93.668  0.00  0.00    +0.045 C 
ENDROOT
BRANCH  10   9
ATOM      4  C   UNL     1      65.867  30.343  96.654  0.00  0.00    +0.077 A 
ATOM      5  C   UNL     1      66.295  30.512  98.013  0.00  0.00    +0.048 A 
ATOM      6  C   UNL     1      67.569  30.011  98.360  0.00  0.00    +0.116 A 
ATOM      7  N   UNL     1      68.350  29.387  97.410  0.00  0.00    -0.223 NA
ATOM      8  C   UNL     1      67.907  29.239  96.109  0.00  0.00    +0.220 A 
ATOM      9  N   UNL     1      68.678  28.622  95.136  0.00  0.00    -0.283 N 
ATOM     36  H   UNL     1      68.313  28.526  94.189  0.00  0.00    +0.155 HD
ATOM     37  N   UNL     1      66.693  29.708  95.753  0.00  0.00    -0.214 NA
BRANCH   4   3
ATOM      1  C   UNL     1      62.482  30.570  94.708  0.00  0.00    +0.020 A 
ATOM      2  C   UNL     1      63.749  30.062  95.180  0.00  0.00    +0.013 A 
ATOM      3  C   UNL     1      64.548  30.822  96.133  0.00  0.00    +0.019 A 
ATOM     38  C   UNL     1      64.031  32.102  96.594  0.00  0.00    +0.120 A 
ATOM     39  N   UNL     1      62.808  32.566  96.121  0.00  0.00    -0.263 NA
ATOM     40  C   UNL     1      62.031  31.844  95.202  0.00  0.00    +0.111 A 
ENDBRANCH   4   3
ENDBRANCH  10   9
BRANCH  12  13
ATOM     13  N   UNL     1      71.563  25.533  97.760  0.00  0.00    -0.281 N 
ATOM     14  C   UNL     1      72.201  25.628  98.986  0.00  0.00    +0.248 C 
ATOM     30  O   UNL     1      72.897  26.570  99.332  0.00  0.00    -0.270 OA
ATOM     31  H   UNL     1      71.179  24.618  97.524  0.00  0.00    +0.155 HD
BRANCH  14  15
ATOM     15  C   UNL     1      72.055  24.507  99.964  0.00  0.00    +0.037 A 
ATOM     16  C   UNL     1      72.224  23.111  99.551  0.00  0.00    +0.013 A 
ATOM     17  C   UNL     1      72.062  22.048 100.511  0.00  0.00    +0.005 A 
ATOM     18  C   UNL     1      71.729  22.378 101.895  0.00  0.00    -0.033 A 
ATOM     28  C   UNL     1      71.573  23.771 102.279  0.00  0.00    +0.005 A 
ATOM     29  C   UNL     1      71.731  24.815 101.340  0.00  0.00    +0.013 A 
BRANCH  18  19
ATOM     19  C   UNL     1      71.517  21.307 102.982  0.00  0.00    +0.119 C 
BRANCH  19  20
ATOM     20  N   UNL     1      71.871  19.899 102.633  0.00  0.00    -0.302 NA
ATOM     21  C   UNL     1      70.649  19.095 102.178  0.00  0.00    +0.066 C 
ATOM     22  C   UNL     1      71.041  17.631 101.795  0.00  0.00    -0.064 C 
ATOM     23  N   UNL     1      71.718  16.958 102.991  0.00  0.00    +0.379 N 
ATOM     24  C   UNL     1      72.035  15.563 102.653  0.00  0.00    -0.096 C 
ATOM     25  H   UNL     1      70.984  16.945 103.830  0.00  0.00    -0.082 HD
ATOM     26  C   UNL     1      72.932  17.752 103.451  0.00  0.00    -0.064 C 
ATOM     27  C   UNL     1      72.536  19.214 103.801  0.00  0.00    +0.066 C 
ENDBRANCH  19  20
ENDBRANCH  18  19
ENDBRANCH  14  15
ENDBRANCH  12  13
TORSDOF 6
ENDMDL
MODEL 5
REMARK VINA RESULT:      -8.8      4.208     12.396
REMARK  Name = C:\Users\Docking\Desktop\test protocol\1iep_ligandH.pdb
REMARK  8 active torsions:
REMARK  status: ('A' for Active; 'I' for Inactive)
REMARK    1  A    between atoms: _5  and  _11
REMARK    2  A    between atoms: _19  and  _21
REMARK    3  A    between atoms: _22  and  _66
REMARK    4  A    between atoms: _27  and  _30
REMARK    5  A    between atoms: _32  and  _33
REMARK    6  A    between atoms: _38  and  _43
REMARK    7  A    between atoms: _43  and  _46
REMARK    8  A    between atoms: _53  and  _55
REMARK                            x       y       z     vdW  Elec       q    Type
REMARK                         _______ _______ _______ _____ _____    ______ ____
ROOT
ATOM     10  C   UNL     1      74.273  30.201  98.677  0.00  0.00    +0.038 A 
ATOM     11  C   UNL     1      75.161  30.349  97.581  0.00  0.00    +0.047 A 
ATOM     12  C   UNL     1      75.378  31.646  96.958  0.00  0.00    +0.035 A 
ATOM     32  C   UNL     1      74.676  32.771  97.479  0.00  0.00    +0.024 A 
ATOM     33  C   UNL     1      73.768  32.639  98.592  0.00  0.00    +0.007 A 
ATOM     34  C   UNL     1      73.548  31.362  99.209  0.00  0.00    -0.029 A 
ATOM     35  C   UNL     1      72.559  31.278 100.394  0.00  0.00    +0.045 C 
ENDROOT
BRANCH  10   9
ATOM      4  C   UNL     1      72.087  25.934  98.906  0.00  0.00    +0.077 A 
ATOM      5  C   UNL     1      71.191  26.270  97.837  0.00  0.00    +0.048 A 
ATOM      6  C   UNL     1      71.321  27.553  97.260  0.00  0.00    +0.116 A 
ATOM      7  N   UNL     1      72.279  28.428  97.725  0.00  0.00    -0.223 NA
ATOM      8  C   UNL     1      73.126  28.073  98.759  0.00  0.00    +0.220 A 
ATOM      9  N   UNL     1      74.102  28.933  99.237  0.00  0.00    -0.283 N 
ATOM     36  H   UNL     1      74.703  28.637 100.006  0.00  0.00    +0.155 HD
ATOM     37  N   UNL     1      73.021  26.854  99.327  0.00  0.00    -0.214 NA
BRANCH   4   3
ATOM      1  C   UNL     1      72.081  22.093  99.644  0.00  0.00    +0.020 A 
ATOM      2  C   UNL     1      72.092  23.339  98.912  0.00  0.00    +0.013 A 
ATOM      3  C   UNL     1      72.076  24.616  99.614  0.00  0.00    +0.019 A 
ATOM     38  C   UNL     1      72.049  24.597 101.069  0.00  0.00    +0.120 A 
ATOM     39  N   UNL     1      72.037  23.382 101.747  0.00  0.00    -0.263 NA
ATOM     40  C   UNL     1      72.051  22.147 101.082  0.00  0.00    +0.111 A 
ENDBRANCH   4   3
ENDBRANCH  10   9
BRANCH  12  13
ATOM     13  N   UNL     1      76.261  31.855  95.838  0.00  0.00    -0.281 N 
ATOM     14  C   UNL     1      75.943  31.853  94.490  0.00  0.00    +0.248 C 
ATOM     30  O   UNL     1      74.881  31.457  94.032  0.00  0.00    -0.270 OA
ATOM     31  H   UNL     1      77.241  32.026  96.067  0.00  0.00    +0.155 HD
BRANCH  14  15
ATOM     15  C   UNL     1      76.954  32.350  93.508  0.00  0.00    +0.037 A 
ATOM     16  C   UNL     1      78.066  31.504  93.069  0.00  0.00    +0.013 A 
ATOM     17  C   UNL     1      79.037  32.014  92.133  0.00  0.00    +0.005 A 
ATOM     18  C   UNL     1      78.899  33.378  91.630  0.00  0.00    -0.033 A 
ATOM     28  C   UNL     1      77.783  34.194  92.079  0.00  0.00    +0.005 A 
ATOM     29  C   UNL     1      76.830  33.698  92.996  0.00  0.00    +0.013 A 
BRANCH  18  19
ATOM     19  C   UNL     1      79.900  34.012  90.646  0.00  0.00    +0.119 C 
BRANCH  19  20
ATOM     20  N   UNL     1      80.290  35.433  90.888  0.00  0.00    -0.302 NA
ATOM     21  C   UNL     1      80.498  36.203  89.580  0.00  0.00    +0.066 C 
ATOM     22  C   UNL     1      80.884  37.693  89.852  0.00  0.00    -0.064 C 
ATOM     23  N   UNL     1      82.145  37.742  90.716  0.00  0.00    +0.379 N 
ATOM     24  C   UNL     1      82.543  39.141  90.925  0.00  0.00    -0.096 C 
ATOM     25  H   UNL     1      82.962  37.238  90.149  0.00  0.00    -0.082 HD
ATOM     26  C   UNL     1      81.948  36.977  92.017  0.00  0.00    -0.064 C 
ATOM     27  C   UNL     1      81.536  35.505  91.736  0.00  0.00    +0.066 C 
ENDBRANCH  19  20
ENDBRANCH  18  19
ENDBRANCH  14  15
ENDBRANCH  12  13
TORSDOF 6
ENDMDL
