MODEL 1
REMARK VINA RESULT:      -7.7      0.000      0.000
REMARK  Name = C:\Users\Docking\Desktop\test protocol\1iep_ligandH.pdb
REMARK  8 active torsions:
REMARK  status: ('A' for Active; 'I' for Inactive)
REMARK    1  A    between atoms: _5  and  _11
REMARK    2  A    between atoms: _19  and  _21
REMARK    3  A    between atoms: _22  and  _66
REMARK    4  A    between atoms: _27  and  _30
REMARK    5  A    between atoms: _32  and  _33
REMARK    6  A    between atoms: _38  and  _43
REMARK    7  A    between atoms: _43  and  _46
REMARK    8  A    between atoms: _53  and  _55
REMARK                            x       y       z     vdW  Elec       q    Type
REMARK                         _______ _______ _______ _____ _____    ______ ____
ROOT
ATOM     10  C   UNL     1      17.393  -3.087  18.343  0.00  0.00    +0.038 A 
ATOM     11  C   UNL     1      17.942  -1.882  17.835  0.00  0.00    +0.047 A 
ATOM     12  C   UNL     1      17.846  -0.637  18.583  0.00  0.00    +0.035 A 
ATOM     32  C   UNL     1      17.187  -0.658  19.847  0.00  0.00    +0.024 A 
ATOM     33  C   UNL     1      16.623  -1.874  20.378  0.00  0.00    +0.007 A 
ATOM     34  C   UNL     1      16.712  -3.103  19.643  0.00  0.00    -0.029 A 
ATOM     35  C   UNL     1      16.083  -4.375  20.258  0.00  0.00    +0.045 C 
ENDROOT
BRANCH  10   9
ATOM      4  C   UNL     1      16.142  -5.875  14.642  0.00  0.00    +0.077 A 
ATOM      5  C   UNL     1      15.145  -4.943  14.200  0.00  0.00    +0.048 A 
ATOM      6  C   UNL     1      14.981  -3.761  14.958  0.00  0.00    +0.116 A 
ATOM      7  N   UNL     1      15.761  -3.539  16.071  0.00  0.00    -0.223 NA
ATOM      8  C   UNL     1      16.713  -4.459  16.471  0.00  0.00    +0.220 A 
ATOM      9  N   UNL     1      17.514  -4.252  17.583  0.00  0.00    -0.283 N 
ATOM     36  H   UNL     1      18.199  -4.959  17.849  0.00  0.00    +0.155 HD
ATOM     37  N   UNL     1      16.888  -5.596  15.766  0.00  0.00    -0.214 NA
BRANCH   4   3
ATOM      1  C   UNL     1      17.571  -9.415  13.788  0.00  0.00    +0.020 A 
ATOM      2  C   UNL     1      17.321  -8.183  14.502  0.00  0.00    +0.013 A 
ATOM      3  C   UNL     1      16.436  -7.167  13.945  0.00  0.00    +0.019 A 
ATOM     38  C   UNL     1      15.816  -7.430  12.656  0.00  0.00    +0.120 A 
ATOM     39  N   UNL     1      16.077  -8.624  11.991  0.00  0.00    -0.263 NA
ATOM     40  C   UNL     1      16.927  -9.609  12.516  0.00  0.00    +0.111 A 
ENDBRANCH   4   3
ENDBRANCH  10   9
BRANCH  12  13
ATOM     13  N   UNL     1      18.377   0.619  18.114  0.00  0.00    -0.281 N 
ATOM     14  C   UNL     1      19.706   0.988  17.988  0.00  0.00    +0.248 C 
ATOM     30  O   UNL     1      20.644   0.365  18.464  0.00  0.00    -0.270 OA
ATOM     31  H   UNL     1      17.689   1.321  17.842  0.00  0.00    +0.155 HD
BRANCH  14  15
ATOM     15  C   UNL     1      20.041   2.236  17.237  0.00  0.00    +0.037 A 
ATOM     16  C   UNL     1      20.125   3.532  17.916  0.00  0.00    +0.013 A 
ATOM     17  C   UNL     1      20.433   4.723  17.166  0.00  0.00    +0.005 A 
ATOM     18  C   UNL     1      20.661   4.623  15.726  0.00  0.00    -0.033 A 
ATOM     28  C   UNL     1      20.576   3.325  15.079  0.00  0.00    +0.005 A 
ATOM     29  C   UNL     1      20.273   2.155  15.811  0.00  0.00    +0.013 A 
BRANCH  18  19
ATOM     19  C   UNL     1      20.974   5.845  14.842  0.00  0.00    +0.119 C 
BRANCH  19  20
ATOM     20  N   UNL     1      21.459   5.579  13.455  0.00  0.00    -0.302 NA
ATOM     21  C   UNL     1      22.724   6.377  13.126  0.00  0.00    +0.066 C 
ATOM     22  C   UNL     1      23.231   6.070  11.680  0.00  0.00    -0.064 C 
ATOM     23  N   UNL     1      22.119   6.380  10.676  0.00  0.00    +0.379 N 
ATOM     24  C   UNL     1      22.612   6.148   9.311  0.00  0.00    -0.096 C 
ATOM     25  H   UNL     1      21.875   7.464  10.768  0.00  0.00    -0.082 HD
ATOM     26  C   UNL     1      20.856   5.594  10.997  0.00  0.00    -0.064 C 
ATOM     27  C   UNL     1      20.378   5.884  12.447  0.00  0.00    +0.066 C 
ENDBRANCH  19  20
ENDBRANCH  18  19
ENDBRANCH  14  15
ENDBRANCH  12  13
TORSDOF 6
ENDMDL
MODEL 2
REMARK VINA RESULT:      -7.5      3.445      4.965
REMARK  Name = C:\Users\Docking\Desktop\test protocol\1iep_ligandH.pdb
REMARK  8 active torsions:
REMARK  status: ('A' for Active; 'I' for Inactive)
REMARK    1  A    between atoms: _5  and  _11
REMARK    2  A    between atoms: _19  and  _21
REMARK    3  A    between atoms: _22  and  _66
REMARK    4  A    between atoms: _27  and  _30
REMARK    5  A    between atoms: _32  and  _33
REMARK    6  A    between atoms: _38  and  _43
REMARK    7  A    between atoms: _43  and  _46
REMARK    8  A    between atoms: _53  and  _55
REMARK                            x       y       z     vdW  Elec       q    Type
REMARK                         _______ _______ _______ _____ _____    ______ ____
ROOT
ATOM     10  C   UNL     1      21.492  -1.411  15.417  0.00  0.00    +0.038 A 
ATOM     11  C   UNL     1      21.371  -0.067  14.979  0.00  0.00    +0.047 A 
ATOM     12  C   UNL     1      22.186   0.989  15.559  0.00  0.00    +0.035 A 
ATOM     32  C   UNL     1      23.116   0.641  16.581  0.00  0.00    +0.024 A 
ATOM     33  C   UNL     1      23.252  -0.720  17.039  0.00  0.00    +0.007 A 
ATOM     34  C   UNL     1      22.449  -1.766  16.472  0.00  0.00    -0.029 A 
ATOM     35  C   UNL     1      22.631  -3.206  17.006  0.00  0.00    +0.045 C 
ENDROOT
BRANCH  10   9
ATOM      4  C   UNL     1      17.441  -3.974  15.172  0.00  0.00    +0.077 A 
ATOM      5  C   UNL     1      16.898  -3.336  16.337  0.00  0.00    +0.048 A 
ATOM      6  C   UNL     1      17.696  -2.360  16.974  0.00  0.00    +0.116 A 
ATOM      7  N   UNL     1      18.943  -2.051  16.474  0.00  0.00    -0.223 NA
ATOM      8  C   UNL     1      19.437  -2.686  15.350  0.00  0.00    +0.220 A 
ATOM      9  N   UNL     1      20.685  -2.385  14.825  0.00  0.00    -0.283 N 
ATOM     36  H   UNL     1      21.017  -2.881  13.998  0.00  0.00    +0.155 HD
ATOM     37  N   UNL     1      18.695  -3.623  14.724  0.00  0.00    -0.214 NA
BRANCH   4   3
ATOM      1  C   UNL     1      14.615  -6.147  13.563  0.00  0.00    +0.020 A 
ATOM      2  C   UNL     1      15.264  -5.114  14.337  0.00  0.00    +0.013 A 
ATOM      3  C   UNL     1      16.718  -5.023  14.387  0.00  0.00    +0.019 A 
ATOM     38  C   UNL     1      17.492  -6.000  13.635  0.00  0.00    +0.120 A 
ATOM     39  N   UNL     1      16.839  -6.984  12.899  0.00  0.00    -0.263 NA
ATOM     40  C   UNL     1      15.440  -7.083  12.846  0.00  0.00    +0.111 A 
ENDBRANCH   4   3
ENDBRANCH  10   9
BRANCH  12  13
ATOM     13  N   UNL     1      22.101   2.372  15.161  0.00  0.00    -0.281 N 
ATOM     14  C   UNL     1      21.049   3.251  15.355  0.00  0.00    +0.248 C 
ATOM     30  O   UNL     1      19.929   2.920  15.714  0.00  0.00    -0.270 OA
ATOM     31  H   UNL     1      22.917   2.749  14.677  0.00  0.00    +0.155 HD
BRANCH  14  15
ATOM     15  C   UNL     1      21.268   4.708  15.100  0.00  0.00    +0.037 A 
ATOM     16  C   UNL     1      21.844   5.180  13.838  0.00  0.00    +0.013 A 
ATOM     17  C   UNL     1      22.061   6.589  13.625  0.00  0.00    +0.005 A 
ATOM     18  C   UNL     1      21.699   7.537  14.676  0.00  0.00    -0.033 A 
ATOM     28  C   UNL     1      21.123   7.041  15.915  0.00  0.00    +0.005 A 
ATOM     29  C   UNL     1      20.911   5.661  16.129  0.00  0.00    +0.013 A 
BRANCH  18  19
ATOM     19  C   UNL     1      21.914   9.056  14.543  0.00  0.00    +0.119 C 
BRANCH  19  20
ATOM     20  N   UNL     1      23.224   9.604  15.005  0.00  0.00    -0.302 NA
ATOM     21  C   UNL     1      23.090  11.028  15.552  0.00  0.00    +0.066 C 
ATOM     22  C   UNL     1      24.466  11.577  16.052  0.00  0.00    -0.064 C 
ATOM     23  N   UNL     1      25.478  11.530  14.905  0.00  0.00    +0.379 N 
ATOM     24  C   UNL     1      26.756  12.100  15.355  0.00  0.00    -0.096 C 
ATOM     25  H   UNL     1      25.089  12.177  14.085  0.00  0.00    -0.082 HD
ATOM     26  C   UNL     1      25.615  10.118  14.354  0.00  0.00    -0.064 C 
ATOM     27  C   UNL     1      24.237   9.571  13.887  0.00  0.00    +0.066 C 
ENDBRANCH  19  20
ENDBRANCH  18  19
ENDBRANCH  14  15
ENDBRANCH  12  13
TORSDOF 6
ENDMDL
MODEL 3
REMARK VINA RESULT:      -7.5     14.963     17.991
REMARK  Name = C:\Users\Docking\Desktop\test protocol\1iep_ligandH.pdb
REMARK  8 active torsions:
REMARK  status: ('A' for Active; 'I' for Inactive)
REMARK    1  A    between atoms: _5  and  _11
REMARK    2  A    between atoms: _19  and  _21
REMARK    3  A    between atoms: _22  and  _66
REMARK    4  A    between atoms: _27  and  _30
REMARK    5  A    between atoms: _32  and  _33
REMARK    6  A    between atoms: _38  and  _43
REMARK    7  A    between atoms: _43  and  _46
REMARK    8  A    between atoms: _53  and  _55
REMARK                            x       y       z     vdW  Elec       q    Type
REMARK                         _______ _______ _______ _____ _____    ______ ____
ROOT
ATOM     10  C   UNL     1      22.765  12.882   3.428  0.00  0.00    +0.038 A 
ATOM     11  C   UNL     1      23.227  12.864   4.769  0.00  0.00    +0.047 A 
ATOM     12  C   UNL     1      24.619  13.141   5.088  0.00  0.00    +0.035 A 
ATOM     32  C   UNL     1      25.512  13.435   4.017  0.00  0.00    +0.024 A 
ATOM     33  C   UNL     1      25.059  13.456   2.648  0.00  0.00    +0.007 A 
ATOM     34  C   UNL     1      23.688  13.182   2.327  0.00  0.00    -0.029 A 
ATOM     35  C   UNL     1      23.259  13.212   0.842  0.00  0.00    +0.045 C 
ENDROOT
BRANCH  10   9
ATOM      4  C   UNL     1      18.926  10.005   3.604  0.00  0.00    +0.077 A 
ATOM      5  C   UNL     1      19.673   8.948   4.221  0.00  0.00    +0.048 A 
ATOM      6  C   UNL     1      21.045   9.181   4.469  0.00  0.00    +0.116 A 
ATOM      7  N   UNL     1      21.615  10.387   4.123  0.00  0.00    -0.223 NA
ATOM      8  C   UNL     1      20.866  11.385   3.528  0.00  0.00    +0.220 A 
ATOM      9  N   UNL     1      21.418  12.608   3.179  0.00  0.00    -0.283 N 
ATOM     36  H   UNL     1      20.833  13.317   2.735  0.00  0.00    +0.155 HD
ATOM     37  N   UNL     1      19.555  11.186   3.279  0.00  0.00    -0.214 NA
BRANCH   4   3
ATOM      1  C   UNL     1      15.030   9.884   3.931  0.00  0.00    +0.020 A 
ATOM      2  C   UNL     1      16.425   9.980   4.297  0.00  0.00    +0.013 A 
ATOM      3  C   UNL     1      17.467   9.911   3.281  0.00  0.00    +0.019 A 
ATOM     38  C   UNL     1      17.062   9.746   1.893  0.00  0.00    +0.120 A 
ATOM     39  N   UNL     1      15.712   9.655   1.571  0.00  0.00    -0.263 NA
ATOM     40  C   UNL     1      14.699   9.718   2.540  0.00  0.00    +0.111 A 
ENDBRANCH   4   3
ENDBRANCH  10   9
BRANCH  12  13
ATOM     13  N   UNL     1      25.148  13.129   6.429  0.00  0.00    -0.281 N 
ATOM     14  C   UNL     1      26.006  12.202   6.998  0.00  0.00    +0.248 C 
ATOM     30  O   UNL     1      26.281  11.120   6.502  0.00  0.00    -0.270 OA
ATOM     31  H   UNL     1      24.854  13.897   7.033  0.00  0.00    +0.155 HD
BRANCH  14  15
ATOM     15  C   UNL     1      26.639  12.517   8.315  0.00  0.00    +0.037 A 
ATOM     16  C   UNL     1      26.295  13.736   9.051  0.00  0.00    +0.013 A 
ATOM     17  C   UNL     1      26.932  14.024  10.312  0.00  0.00    +0.005 A 
ATOM     18  C   UNL     1      27.920  13.089  10.845  0.00  0.00    -0.033 A 
ATOM     28  C   UNL     1      28.239  11.884  10.096  0.00  0.00    +0.005 A 
ATOM     29  C   UNL     1      27.616  11.599   8.860  0.00  0.00    +0.013 A 
BRANCH  18  19
ATOM     19  C   UNL     1      28.666  13.326  12.172  0.00  0.00    +0.119 C 
BRANCH  19  20
ATOM     20  N   UNL     1      28.011  12.836  13.421  0.00  0.00    -0.302 NA
ATOM     21  C   UNL     1      27.113  11.623  13.161  0.00  0.00    +0.066 C 
ATOM     22  C   UNL     1      26.454  11.109  14.482  0.00  0.00    -0.064 C 
ATOM     23  N   UNL     1      25.656  12.245  15.126  0.00  0.00    +0.379 N 
ATOM     24  C   UNL     1      24.987  11.750  16.338  0.00  0.00    -0.096 C 
ATOM     25  H   UNL     1      24.864  12.553  14.404  0.00  0.00    -0.082 HD
ATOM     26  C   UNL     1      26.540  13.457  15.385  0.00  0.00    -0.064 C 
ATOM     27  C   UNL     1      27.214  13.941  14.071  0.00  0.00    +0.066 C 
ENDBRANCH  19  20
ENDBRANCH  18  19
ENDBRANCH  14  15
ENDBRANCH  12  13
TORSDOF 6
ENDMDL
MODEL 4
REMARK VINA RESULT:      -7.5      9.447     14.179
REMARK  Name = C:\Users\Docking\Desktop\test protocol\1iep_ligandH.pdb
REMARK  8 active torsions:
REMARK  status: ('A' for Active; 'I' for Inactive)
REMARK    1  A    between atoms: _5  and  _11
REMARK    2  A    between atoms: _19  and  _21
REMARK    3  A    between atoms: _22  and  _66
REMARK    4  A    between atoms: _27  and  _30
REMARK    5  A    between atoms: _32  and  _33
REMARK    6  A    between atoms: _38  and  _43
REMARK    7  A    between atoms: _43  and  _46
REMARK    8  A    between atoms: _53  and  _55
REMARK                            x       y       z     vdW  Elec       q    Type
REMARK                         _______ _______ _______ _____ _____    ______ ____
ROOT
ATOM     10  C   UNL     1      21.796   6.265  13.222  0.00  0.00    +0.038 A 
ATOM     11  C   UNL     1      21.340   6.951  12.067  0.00  0.00    +0.047 A 
ATOM     12  C   UNL     1      21.473   6.365  10.743  0.00  0.00    +0.035 A 
ATOM     32  C   UNL     1      22.073   5.077  10.631  0.00  0.00    +0.024 A 
ATOM     33  C   UNL     1      22.543   4.366  11.794  0.00  0.00    +0.007 A 
ATOM     34  C   UNL     1      22.417   4.940  13.103  0.00  0.00    -0.029 A 
ATOM     35  C   UNL     1      22.944   4.136  14.314  0.00  0.00    +0.045 C 
ENDROOT
BRANCH  10   9
ATOM      4  C   UNL     1      23.229   9.296  16.656  0.00  0.00    +0.077 A 
ATOM      5  C   UNL     1      24.395   9.679  15.914  0.00  0.00    +0.048 A 
ATOM      6  C   UNL     1      24.594   9.067  14.656  0.00  0.00    +0.116 A 
ATOM      7  N   UNL     1      23.686   8.143  14.185  0.00  0.00    -0.223 NA
ATOM      8  C   UNL     1      22.572   7.795  14.927  0.00  0.00    +0.220 A 
ATOM      9  N   UNL     1      21.643   6.874  14.469  0.00  0.00    -0.283 N 
ATOM     36  H   UNL     1      20.838   6.639  15.050  0.00  0.00    +0.155 HD
ATOM     37  N   UNL     1      22.361   8.364  16.132  0.00  0.00    -0.214 NA
BRANCH   4   3
ATOM      1  C   UNL     1      22.593   9.662  20.499  0.00  0.00    +0.020 A 
ATOM      2  C   UNL     1      22.941   9.072  19.226  0.00  0.00    +0.013 A 
ATOM      3  C   UNL     1      22.879   9.857  18.000  0.00  0.00    +0.019 A 
ATOM     38  C   UNL     1      22.459  11.247  18.096  0.00  0.00    +0.120 A 
ATOM     39  N   UNL     1      22.129  11.787  19.335  0.00  0.00    -0.263 NA
ATOM     40  C   UNL     1      22.183  11.041  20.522  0.00  0.00    +0.111 A 
ENDBRANCH   4   3
ENDBRANCH  10   9
BRANCH  12  13
ATOM     13  N   UNL     1      21.036   7.018   9.533  0.00  0.00    -0.281 N 
ATOM     14  C   UNL     1      20.053   6.604   8.650  0.00  0.00    +0.248 C 
ATOM     30  O   UNL     1      19.544   5.493   8.653  0.00  0.00    -0.270 OA
ATOM     31  H   UNL     1      21.509   7.891   9.301  0.00  0.00    +0.155 HD
BRANCH  14  15
ATOM     15  C   UNL     1      19.576   7.557   7.602  0.00  0.00    +0.037 A 
ATOM     16  C   UNL     1      18.250   8.175   7.683  0.00  0.00    +0.013 A 
ATOM     17  C   UNL     1      17.808   9.078   6.650  0.00  0.00    +0.005 A 
ATOM     18  C   UNL     1      18.695   9.369   5.526  0.00  0.00    -0.033 A 
ATOM     28  C   UNL     1      20.008   8.747   5.473  0.00  0.00    +0.005 A 
ATOM     29  C   UNL     1      20.444   7.861   6.483  0.00  0.00    +0.013 A 
BRANCH  18  19
ATOM     19  C   UNL     1      18.298  10.304   4.368  0.00  0.00    +0.119 C 
BRANCH  19  20
ATOM     20  N   UNL     1      17.326   9.776   3.365  0.00  0.00    -0.302 NA
ATOM     21  C   UNL     1      17.775  10.054   1.928  0.00  0.00    +0.066 C 
ATOM     22  C   UNL     1      16.758   9.475   0.892  0.00  0.00    -0.064 C 
ATOM     23  N   UNL     1      15.373  10.071   1.152  0.00  0.00    +0.379 N 
ATOM     24  C   UNL     1      14.427   9.572   0.143  0.00  0.00    -0.096 C 
ATOM     25  H   UNL     1      15.452  11.176   1.026  0.00  0.00    -0.082 HD
ATOM     26  C   UNL     1      14.921   9.800   2.580  0.00  0.00    -0.064 C 
ATOM     27  C   UNL     1      15.953  10.354   3.601  0.00  0.00    +0.066 C 
ENDBRANCH  19  20
ENDBRANCH  18  19
ENDBRANCH  14  15
ENDBRANCH  12  13
TORSDOF 6
ENDMDL
MODEL 5
REMARK VINA RESULT:      -7.5      2.280     12.148
REMARK  Name = C:\Users\Docking\Desktop\test protocol\1iep_ligandH.pdb
REMARK  8 active torsions:
REMARK  status: ('A' for Active; 'I' for Inactive)
REMARK    1  A    between atoms: _5  and  _11
REMARK    2  A    between atoms: _19  and  _21
REMARK    3  A    between atoms: _22  and  _66
REMARK    4  A    between atoms: _27  and  _30
REMARK    5  A    between atoms: _32  and  _33
REMARK    6  A    between atoms: _38  and  _43
REMARK    7  A    between atoms: _43  and  _46
REMARK    8  A    between atoms: _53  and  _55
REMARK                            x       y       z     vdW  Elec       q    Type
REMARK                         _______ _______ _______ _____ _____    ______ ____
ROOT
ATOM     10  C   UNL     1      18.609  -0.150  17.328  0.00  0.00    +0.038 A 
ATOM     11  C   UNL     1      18.220  -1.280  16.564  0.00  0.00    +0.047 A 
ATOM     12  C   UNL     1      17.974  -2.567  17.196  0.00  0.00    +0.035 A 
ATOM     32  C   UNL     1      18.132  -2.667  18.609  0.00  0.00    +0.024 A 
ATOM     33  C   UNL     1      18.528  -1.529  19.400  0.00  0.00    +0.007 A 
ATOM     34  C   UNL     1      18.775  -0.257  18.782  0.00  0.00    -0.029 A 
ATOM     35  C   UNL     1      19.203   0.927  19.679  0.00  0.00    +0.045 C 
ENDROOT
BRANCH  10   9
ATOM      4  C   UNL     1      21.417   2.897  14.905  0.00  0.00    +0.077 A 
ATOM      5  C   UNL     1      22.544   2.012  14.981  0.00  0.00    +0.048 A 
ATOM      6  C   UNL     1      22.361   0.785  15.658  0.00  0.00    +0.116 A 
ATOM      7  N   UNL     1      21.138   0.477  16.214  0.00  0.00    -0.223 NA
ATOM      8  C   UNL     1      20.073   1.354  16.124  0.00  0.00    +0.220 A 
ATOM      9  N   UNL     1      18.832   1.062  16.669  0.00  0.00    -0.283 N 
ATOM     36  H   UNL     1      18.074   1.738  16.588  0.00  0.00    +0.155 HD
ATOM     37  N   UNL     1      20.222   2.533  15.484  0.00  0.00    -0.214 NA
BRANCH   4   3
ATOM      1  C   UNL     1      20.384   6.088  12.892  0.00  0.00    +0.020 A 
ATOM      2  C   UNL     1      20.298   4.799  13.538  0.00  0.00    +0.013 A 
ATOM      3  C   UNL     1      21.453   4.228  14.220  0.00  0.00    +0.019 A 
ATOM     38  C   UNL     1      22.690   4.994  14.231  0.00  0.00    +0.120 A 
ATOM     39  N   UNL     1      22.744   6.233  13.599  0.00  0.00    -0.263 NA
ATOM     40  C   UNL     1      21.640   6.791  12.938  0.00  0.00    +0.111 A 
ENDBRANCH   4   3
ENDBRANCH  10   9
BRANCH  12  13
ATOM     13  N   UNL     1      17.585  -3.751  16.471  0.00  0.00    -0.281 N 
ATOM     14  C   UNL     1      16.398  -3.984  15.796  0.00  0.00    +0.248 C 
ATOM     30  O   UNL     1      15.399  -3.287  15.893  0.00  0.00    -0.270 OA
ATOM     31  H   UNL     1      18.267  -4.509  16.453  0.00  0.00    +0.155 HD
BRANCH  14  15
ATOM     15  C   UNL     1      16.302  -5.171  14.893  0.00  0.00    +0.037 A 
ATOM     16  C   UNL     1      15.064  -5.479  14.171  0.00  0.00    +0.013 A 
ATOM     17  C   UNL     1      14.993  -6.640  13.320  0.00  0.00    +0.005 A 
ATOM     18  C   UNL     1      16.165  -7.501  13.185  0.00  0.00    -0.033 A 
ATOM     28  C   UNL     1      17.382  -7.170  13.908  0.00  0.00    +0.005 A 
ATOM     29  C   UNL     1      17.455  -6.033  14.744  0.00  0.00    +0.013 A 
BRANCH  18  19
ATOM     19  C   UNL     1      16.173  -8.773  12.315  0.00  0.00    +0.119 C 
BRANCH  19  20
ATOM     20  N   UNL     1      16.588 -10.048  12.971  0.00  0.00    -0.302 NA
ATOM     21  C   UNL     1      17.902 -10.587  12.399  0.00  0.00    +0.066 C 
ATOM     22  C   UNL     1      18.334 -11.909  13.113  0.00  0.00    -0.064 C 
ATOM     23  N   UNL     1      17.218 -12.947  12.977  0.00  0.00    +0.379 N 
ATOM     24  C   UNL     1      17.644 -14.210  13.596  0.00  0.00    -0.096 C 
ATOM     25  H   UNL     1      17.065 -13.138  11.889  0.00  0.00    -0.082 HD
ATOM     26  C   UNL     1      15.907 -12.418  13.540  0.00  0.00    -0.064 C 
ATOM     27  C   UNL     1      15.502 -11.088  12.845  0.00  0.00    +0.066 C 
ENDBRANCH  19  20
ENDBRANCH  18  19
ENDBRANCH  14  15
ENDBRANCH  12  13
TORSDOF 6
ENDMDL
