MODEL 1
REMARK VINA RESULT:      -9.5      0.000      0.000
REMARK  Name = C:\Users\Docking\Desktop\test protocol\1iep_ligandH.pdb
REMARK  8 active torsions:
REMARK  status: ('A' for Active; 'I' for Inactive)
REMARK    1  A    between atoms: _5  and  _11
REMARK    2  A    between atoms: _19  and  _21
REMARK    3  A    between atoms: _22  and  _66
REMARK    4  A    between atoms: _27  and  _30
REMARK    5  A    between atoms: _32  and  _33
REMARK    6  A    between atoms: _38  and  _43
REMARK    7  A    between atoms: _43  and  _46
REMARK    8  A    between atoms: _53  and  _55
REMARK                            x       y       z     vdW  Elec       q    Type
REMARK                         _______ _______ _______ _____ _____    ______ ____
ROOT
ATOM     10  C   UNL     1      68.031  53.437  15.527  0.00  0.00    +0.038 A 
ATOM     11  C   UNL     1      68.301  52.059  15.332  0.00  0.00    +0.047 A 
ATOM     12  C   UNL     1      67.578  51.284  14.335  0.00  0.00    +0.035 A 
ATOM     32  C   UNL     1      66.587  51.946  13.553  0.00  0.00    +0.024 A 
ATOM     33  C   UNL     1      66.299  53.346  13.740  0.00  0.00    +0.007 A 
ATOM     34  C   UNL     1      67.007  54.115  14.723  0.00  0.00    -0.029 A 
ATOM     35  C   UNL     1      66.651  55.611  14.884  0.00  0.00    +0.045 C 
ENDROOT
BRANCH  10   9
ATOM      4  C   UNL     1      69.240  54.310  20.090  0.00  0.00    +0.077 A 
ATOM      5  C   UNL     1      68.332  53.315  20.583  0.00  0.00    +0.048 A 
ATOM      6  C   UNL     1      67.567  52.606  19.630  0.00  0.00    +0.116 A 
ATOM      7  N   UNL     1      67.708  52.879  18.287  0.00  0.00    -0.223 NA
ATOM      8  C   UNL     1      68.591  53.847  17.845  0.00  0.00    +0.220 A 
ATOM      9  N   UNL     1      68.755  54.133  16.498  0.00  0.00    -0.283 N 
ATOM     36  H   UNL     1      69.412  54.859  16.213  0.00  0.00    +0.155 HD
ATOM     37  N   UNL     1      69.332  54.539  18.735  0.00  0.00    -0.214 NA
BRANCH   4   3
ATOM      1  C   UNL     1      72.062  56.703  21.359  0.00  0.00    +0.020 A 
ATOM      2  C   UNL     1      71.244  55.917  20.464  0.00  0.00    +0.013 A 
ATOM      3  C   UNL     1      70.119  55.141  20.972  0.00  0.00    +0.019 A 
ATOM     38  C   UNL     1      69.846  55.183  22.400  0.00  0.00    +0.120 A 
ATOM     39  N   UNL     1      70.652  55.948  23.238  0.00  0.00    -0.263 NA
ATOM     40  C   UNL     1      71.738  56.697  22.761  0.00  0.00    +0.111 A 
ENDBRANCH   4   3
ENDBRANCH  10   9
BRANCH  12  13
ATOM     13  N   UNL     1      67.804  49.880  14.097  0.00  0.00    -0.281 N 
ATOM     14  C   UNL     1      68.983  49.259  13.719  0.00  0.00    +0.248 C 
ATOM     30  O   UNL     1      69.977  49.848  13.319  0.00  0.00    -0.270 OA
ATOM     31  H   UNL     1      66.996  49.270  14.223  0.00  0.00    +0.155 HD
BRANCH  14  15
ATOM     15  C   UNL     1      69.066  47.768  13.781  0.00  0.00    +0.037 A 
ATOM     16  C   UNL     1      70.043  47.097  14.642  0.00  0.00    +0.013 A 
ATOM     17  C   UNL     1      70.114  45.657  14.670  0.00  0.00    +0.005 A 
ATOM     18  C   UNL     1      69.203  44.879  13.835  0.00  0.00    -0.033 A 
ATOM     28  C   UNL     1      68.240  45.571  12.994  0.00  0.00    +0.005 A 
ATOM     29  C   UNL     1      68.168  46.981  12.963  0.00  0.00    +0.013 A 
BRANCH  18  19
ATOM     19  C   UNL     1      69.221  43.340  13.786  0.00  0.00    +0.119 C 
BRANCH  19  20
ATOM     20  N   UNL     1      68.116  42.620  14.485  0.00  0.00    -0.302 NA
ATOM     21  C   UNL     1      66.808  42.664  13.691  0.00  0.00    +0.066 C 
ATOM     22  C   UNL     1      65.668  41.887  14.426  0.00  0.00    -0.064 C 
ATOM     23  N   UNL     1      65.473  42.476  15.824  0.00  0.00    +0.379 N 
ATOM     24  C   UNL     1      64.363  41.786  16.497  0.00  0.00    -0.096 C 
ATOM     25  H   UNL     1      65.182  43.546  15.703  0.00  0.00    -0.082 HD
ATOM     26  C   UNL     1      66.770  42.439  16.621  0.00  0.00    -0.064 C 
ATOM     27  C   UNL     1      67.903  43.188  15.867  0.00  0.00    +0.066 C 
ENDBRANCH  19  20
ENDBRANCH  18  19
ENDBRANCH  14  15
ENDBRANCH  12  13
TORSDOF 6
ENDMDL
MODEL 2
REMARK VINA RESULT:      -9.5      2.829     12.682
REMARK  Name = C:\Users\Docking\Desktop\test protocol\1iep_ligandH.pdb
REMARK  8 active torsions:
REMARK  status: ('A' for Active; 'I' for Inactive)
REMARK    1  A    between atoms: _5  and  _11
REMARK    2  A    between atoms: _19  and  _21
REMARK    3  A    between atoms: _22  and  _66
REMARK    4  A    between atoms: _27  and  _30
REMARK    5  A    between atoms: _32  and  _33
REMARK    6  A    between atoms: _38  and  _43
REMARK    7  A    between atoms: _43  and  _46
REMARK    8  A    between atoms: _53  and  _55
REMARK                            x       y       z     vdW  Elec       q    Type
REMARK                         _______ _______ _______ _____ _____    ______ ____
ROOT
ATOM     10  C   UNL     1      67.958  53.179  15.757  0.00  0.00    +0.038 A 
ATOM     11  C   UNL     1      68.826  53.580  16.804  0.00  0.00    +0.047 A 
ATOM     12  C   UNL     1      69.169  54.979  17.003  0.00  0.00    +0.035 A 
ATOM     32  C   UNL     1      68.607  55.945  16.119  0.00  0.00    +0.024 A 
ATOM     33  C   UNL     1      67.723  55.555  15.048  0.00  0.00    +0.007 A 
ATOM     34  C   UNL     1      67.383  54.176  14.845  0.00  0.00    -0.029 A 
ATOM     35  C   UNL     1      66.436  53.815  13.678  0.00  0.00    +0.045 C 
ENDROOT
BRANCH  10   9
ATOM      4  C   UNL     1      68.489  48.943  13.562  0.00  0.00    +0.077 A 
ATOM      5  C   UNL     1      69.412  49.487  12.608  0.00  0.00    +0.048 A 
ATOM      6  C   UNL     1      69.718  50.862  12.712  0.00  0.00    +0.116 A 
ATOM      7  N   UNL     1      69.139  51.627  13.701  0.00  0.00    -0.223 NA
ATOM      8  C   UNL     1      68.251  51.073  14.604  0.00  0.00    +0.220 A 
ATOM      9  N   UNL     1      67.663  51.822  15.611  0.00  0.00    -0.283 N 
ATOM     36  H   UNL     1      67.007  51.377  16.253  0.00  0.00    +0.155 HD
ATOM     37  N   UNL     1      67.941  49.762  14.525  0.00  0.00    -0.214 NA
BRANCH   4   3
ATOM      1  C   UNL     1      68.133  45.172  14.538  0.00  0.00    +0.020 A 
ATOM      2  C   UNL     1      68.572  46.548  14.560  0.00  0.00    +0.013 A 
ATOM      3  C   UNL     1      68.068  47.507  13.584  0.00  0.00    +0.019 A 
ATOM     38  C   UNL     1      67.111  47.037  12.593  0.00  0.00    +0.120 A 
ATOM     39  N   UNL     1      66.708  45.706  12.596  0.00  0.00    -0.263 NA
ATOM     40  C   UNL     1      67.188  44.774  13.528  0.00  0.00    +0.111 A 
ENDBRANCH   4   3
ENDBRANCH  10   9
BRANCH  12  13
ATOM     13  N   UNL     1      70.052  55.445  18.044  0.00  0.00    -0.281 N 
ATOM     14  C   UNL     1      71.402  55.740  17.947  0.00  0.00    +0.248 C 
ATOM     30  O   UNL     1      72.108  55.443  16.995  0.00  0.00    -0.270 OA
ATOM     31  H   UNL     1      69.630  55.572  18.964  0.00  0.00    +0.155 HD
BRANCH  14  15
ATOM     15  C   UNL     1      72.067  56.456  19.078  0.00  0.00    +0.037 A 
ATOM     16  C   UNL     1      71.656  56.233  20.466  0.00  0.00    +0.013 A 
ATOM     17  C   UNL     1      72.303  56.949  21.536  0.00  0.00    +0.005 A 
ATOM     18  C   UNL     1      73.371  57.895  21.222  0.00  0.00    -0.033 A 
ATOM     28  C   UNL     1      73.763  58.094  19.836  0.00  0.00    +0.005 A 
ATOM     29  C   UNL     1      73.130  57.394  18.784  0.00  0.00    +0.013 A 
BRANCH  18  19
ATOM     19  C   UNL     1      74.102  58.719  22.298  0.00  0.00    +0.119 C 
BRANCH  19  20
ATOM     20  N   UNL     1      74.144  58.155  23.680  0.00  0.00    -0.302 NA
ATOM     21  C   UNL     1      73.171  58.870  24.622  0.00  0.00    +0.066 C 
ATOM     22  C   UNL     1      73.211  58.252  26.058  0.00  0.00    -0.064 C 
ATOM     23  N   UNL     1      74.640  58.321  26.600  0.00  0.00    +0.379 N 
ATOM     24  C   UNL     1      74.670  57.794  27.972  0.00  0.00    -0.096 C 
ATOM     25  H   UNL     1      74.933  59.396  26.644  0.00  0.00    -0.082 HD
ATOM     26  C   UNL     1      75.614  57.615  25.668  0.00  0.00    -0.064 C 
ATOM     27  C   UNL     1      75.545  58.217  24.237  0.00  0.00    +0.066 C 
ENDBRANCH  19  20
ENDBRANCH  18  19
ENDBRANCH  14  15
ENDBRANCH  12  13
TORSDOF 6
ENDMDL
MODEL 3
REMARK VINA RESULT:      -9.4      0.990      1.723
REMARK  Name = C:\Users\Docking\Desktop\test protocol\1iep_ligandH.pdb
REMARK  8 active torsions:
REMARK  status: ('A' for Active; 'I' for Inactive)
REMARK    1  A    between atoms: _5  and  _11
REMARK    2  A    between atoms: _19  and  _21
REMARK    3  A    between atoms: _22  and  _66
REMARK    4  A    between atoms: _27  and  _30
REMARK    5  A    between atoms: _32  and  _33
REMARK    6  A    between atoms: _38  and  _43
REMARK    7  A    between atoms: _43  and  _46
REMARK    8  A    between atoms: _53  and  _55
REMARK                            x       y       z     vdW  Elec       q    Type
REMARK                         _______ _______ _______ _____ _____    ______ ____
ROOT
ATOM     10  C   UNL     1      67.596  53.250  15.895  0.00  0.00    +0.038 A 
ATOM     11  C   UNL     1      67.832  51.876  15.634  0.00  0.00    +0.047 A 
ATOM     12  C   UNL     1      67.470  51.279  14.358  0.00  0.00    +0.035 A 
ATOM     32  C   UNL     1      66.871  52.112  13.368  0.00  0.00    +0.024 A 
ATOM     33  C   UNL     1      66.623  53.510  13.617  0.00  0.00    +0.007 A 
ATOM     34  C   UNL     1      66.976  54.104  14.875  0.00  0.00    -0.029 A 
ATOM     35  C   UNL     1      66.680  55.607  15.088  0.00  0.00    +0.045 C 
ENDROOT
BRANCH  10   9
ATOM      4  C   UNL     1      70.678  55.525  18.787  0.00  0.00    +0.077 A 
ATOM      5  C   UNL     1      71.649  55.664  17.740  0.00  0.00    +0.048 A 
ATOM      6  C   UNL     1      71.320  55.130  16.474  0.00  0.00    +0.116 A 
ATOM      7  N   UNL     1      70.106  54.506  16.281  0.00  0.00    -0.223 NA
ATOM      8  C   UNL     1      69.193  54.387  17.312  0.00  0.00    +0.220 A 
ATOM      9  N   UNL     1      67.963  53.771  17.138  0.00  0.00    -0.283 N 
ATOM     36  H   UNL     1      67.320  53.697  17.925  0.00  0.00    +0.155 HD
ATOM     37  N   UNL     1      69.484  54.888  18.531  0.00  0.00    -0.214 NA
BRANCH   4   3
ATOM      1  C   UNL     1      72.273  57.112  21.986  0.00  0.00    +0.020 A 
ATOM      2  C   UNL     1      72.132  56.629  20.632  0.00  0.00    +0.013 A 
ATOM      3  C   UNL     1      70.878  56.040  20.178  0.00  0.00    +0.019 A 
ATOM     38  C   UNL     1      69.778  55.955  21.127  0.00  0.00    +0.120 A 
ATOM     39  N   UNL     1      69.943  56.427  22.425  0.00  0.00    -0.263 NA
ATOM     40  C   UNL     1      71.146  56.994  22.874  0.00  0.00    +0.111 A 
ENDBRANCH   4   3
ENDBRANCH  10   9
BRANCH  12  13
ATOM     13  N   UNL     1      67.678  49.888  14.040  0.00  0.00    -0.281 N 
ATOM     14  C   UNL     1      68.867  49.259  13.710  0.00  0.00    +0.248 C 
ATOM     30  O   UNL     1      69.904  49.843  13.429  0.00  0.00    -0.270 OA
ATOM     31  H   UNL     1      66.848  49.296  14.060  0.00  0.00    +0.155 HD
BRANCH  14  15
ATOM     15  C   UNL     1      68.908  47.765  13.673  0.00  0.00    +0.037 A 
ATOM     16  C   UNL     1      68.018  47.003  12.794  0.00  0.00    +0.013 A 
ATOM     17  C   UNL     1      68.065  45.562  12.790  0.00  0.00    +0.005 A 
ATOM     18  C   UNL     1      69.009  44.874  13.668  0.00  0.00    -0.033 A 
ATOM     28  C   UNL     1      69.884  45.656  14.526  0.00  0.00    +0.005 A 
ATOM     29  C   UNL     1      69.839  47.068  14.533  0.00  0.00    +0.013 A 
BRANCH  18  19
ATOM     19  C   UNL     1      69.114  43.340  13.745  0.00  0.00    +0.119 C 
BRANCH  19  20
ATOM     20  N   UNL     1      68.021  42.615  14.460  0.00  0.00    -0.302 NA
ATOM     21  C   UNL     1      66.698  42.666  13.691  0.00  0.00    +0.066 C 
ATOM     22  C   UNL     1      65.572  41.883  14.442  0.00  0.00    -0.064 C 
ATOM     23  N   UNL     1      65.404  42.462  15.848  0.00  0.00    +0.379 N 
ATOM     24  C   UNL     1      64.306  41.767  16.536  0.00  0.00    -0.096 C 
ATOM     25  H   UNL     1      65.111  43.533  15.740  0.00  0.00    -0.082 HD
ATOM     26  C   UNL     1      66.715  42.418  16.619  0.00  0.00    -0.064 C 
ATOM     27  C   UNL     1      67.835  43.173  15.849  0.00  0.00    +0.066 C 
ENDBRANCH  19  20
ENDBRANCH  18  19
ENDBRANCH  14  15
ENDBRANCH  12  13
TORSDOF 6
ENDMDL
MODEL 4
REMARK VINA RESULT:      -9.3      7.126     10.240
REMARK  Name = C:\Users\Docking\Desktop\test protocol\1iep_ligandH.pdb
REMARK  8 active torsions:
REMARK  status: ('A' for Active; 'I' for Inactive)
REMARK    1  A    between atoms: _5  and  _11
REMARK    2  A    between atoms: _19  and  _21
REMARK    3  A    between atoms: _22  and  _66
REMARK    4  A    between atoms: _27  and  _30
REMARK    5  A    between atoms: _32  and  _33
REMARK    6  A    between atoms: _38  and  _43
REMARK    7  A    between atoms: _43  and  _46
REMARK    8  A    between atoms: _53  and  _55
REMARK                            x       y       z     vdW  Elec       q    Type
REMARK                         _______ _______ _______ _____ _____    ______ ____
ROOT
ATOM     10  C   UNL     1      68.966  54.528  19.099  0.00  0.00    +0.038 A 
ATOM     11  C   UNL     1      69.509  54.101  20.337  0.00  0.00    +0.047 A 
ATOM     12  C   UNL     1      68.972  52.941  21.033  0.00  0.00    +0.035 A 
ATOM     32  C   UNL     1      67.884  52.239  20.437  0.00  0.00    +0.024 A 
ATOM     33  C   UNL     1      67.320  52.661  19.179  0.00  0.00    +0.007 A 
ATOM     34  C   UNL     1      67.843  53.805  18.489  0.00  0.00    -0.029 A 
ATOM     35  C   UNL     1      67.195  54.216  17.147  0.00  0.00    +0.045 C 
ENDROOT
BRANCH  10   9
ATOM      4  C   UNL     1      69.294  59.269  18.422  0.00  0.00    +0.077 A 
ATOM      5  C   UNL     1      68.255  59.536  19.375  0.00  0.00    +0.048 A 
ATOM      6  C   UNL     1      67.657  58.426  20.011  0.00  0.00    +0.116 A 
ATOM      7  N   UNL     1      68.075  57.148  19.711  0.00  0.00    -0.223 NA
ATOM      8  C   UNL     1      69.079  56.925  18.786  0.00  0.00    +0.220 A 
ATOM      9  N   UNL     1      69.520  55.648  18.474  0.00  0.00    -0.283 N 
ATOM     36  H   UNL     1      70.258  55.525  17.780  0.00  0.00    +0.155 HD
ATOM     37  N   UNL     1      69.664  57.968  18.163  0.00  0.00    -0.214 NA
BRANCH   4   3
ATOM      1  C   UNL     1      71.127  61.254  15.594  0.00  0.00    +0.020 A 
ATOM      2  C   UNL     1      70.424  60.191  16.275  0.00  0.00    +0.013 A 
ATOM      3  C   UNL     1      70.024  60.337  17.669  0.00  0.00    +0.019 A 
ATOM     38  C   UNL     1      70.353  61.581  18.350  0.00  0.00    +0.120 A 
ATOM     39  N   UNL     1      71.032  62.586  17.668  0.00  0.00    -0.263 NA
ATOM     40  C   UNL     1      71.423  62.456  16.327  0.00  0.00    +0.111 A 
ENDBRANCH   4   3
ENDBRANCH  10   9
BRANCH  12  13
ATOM     13  N   UNL     1      69.477  52.465  22.297  0.00  0.00    -0.281 N 
ATOM     14  C   UNL     1      69.479  53.124  23.516  0.00  0.00    +0.248 C 
ATOM     30  O   UNL     1      69.240  54.314  23.659  0.00  0.00    -0.270 OA
ATOM     31  H   UNL     1      69.881  51.528  22.293  0.00  0.00    +0.155 HD
BRANCH  14  15
ATOM     15  C   UNL     1      69.810  52.353  24.753  0.00  0.00    +0.037 A 
ATOM     16  C   UNL     1      70.611  52.945  25.827  0.00  0.00    +0.013 A 
ATOM     17  C   UNL     1      70.930  52.174  27.002  0.00  0.00    +0.005 A 
ATOM     18  C   UNL     1      70.445  50.800  27.109  0.00  0.00    -0.033 A 
ATOM     28  C   UNL     1      69.647  50.238  26.032  0.00  0.00    +0.005 A 
ATOM     29  C   UNL     1      69.334  50.991  24.878  0.00  0.00    +0.013 A 
BRANCH  18  19
ATOM     19  C   UNL     1      70.754  49.896  28.318  0.00  0.00    +0.119 C 
BRANCH  19  20
ATOM     20  N   UNL     1      71.139  48.481  28.032  0.00  0.00    -0.302 NA
ATOM     21  C   UNL     1      70.194  47.482  28.705  0.00  0.00    +0.066 C 
ATOM     22  C   UNL     1      70.597  46.008  28.378  0.00  0.00    -0.064 C 
ATOM     23  N   UNL     1      72.042  45.768  28.819  0.00  0.00    +0.379 N 
ATOM     24  C   UNL     1      72.406  44.366  28.566  0.00  0.00    -0.096 C 
ATOM     25  H   UNL     1      72.092  45.937  29.920  0.00  0.00    -0.082 HD
ATOM     26  C   UNL     1      72.989  46.759  28.157  0.00  0.00    -0.064 C 
ATOM     27  C   UNL     1      72.561  48.221  28.464  0.00  0.00    +0.066 C 
ENDBRANCH  19  20
ENDBRANCH  18  19
ENDBRANCH  14  15
ENDBRANCH  12  13
TORSDOF 6
ENDMDL
MODEL 5
REMARK VINA RESULT:      -9.3      4.930      8.352
REMARK  Name = C:\Users\Docking\Desktop\test protocol\1iep_ligandH.pdb
REMARK  8 active torsions:
REMARK  status: ('A' for Active; 'I' for Inactive)
REMARK    1  A    between atoms: _5  and  _11
REMARK    2  A    between atoms: _19  and  _21
REMARK    3  A    between atoms: _22  and  _66
REMARK    4  A    between atoms: _27  and  _30
REMARK    5  A    between atoms: _32  and  _33
REMARK    6  A    between atoms: _38  and  _43
REMARK    7  A    between atoms: _43  and  _46
REMARK    8  A    between atoms: _53  and  _55
REMARK                            x       y       z     vdW  Elec       q    Type
REMARK                         _______ _______ _______ _____ _____    ______ ____
ROOT
ATOM     10  C   UNL     1      68.943  54.472  23.387  0.00  0.00    +0.038 A 
ATOM     11  C   UNL     1      68.765  54.191  22.008  0.00  0.00    +0.047 A 
ATOM     12  C   UNL     1      67.452  54.269  21.387  0.00  0.00    +0.035 A 
ATOM     32  C   UNL     1      66.341  54.638  22.200  0.00  0.00    +0.024 A 
ATOM     33  C   UNL     1      66.503  54.925  23.604  0.00  0.00    +0.007 A 
ATOM     34  C   UNL     1      67.796  54.848  24.222  0.00  0.00    -0.029 A 
ATOM     35  C   UNL     1      67.909  55.160  25.733  0.00  0.00    +0.045 C 
ENDROOT
BRANCH  10   9
ATOM      4  C   UNL     1      73.100  56.431  24.769  0.00  0.00    +0.077 A 
ATOM      5  C   UNL     1      72.692  57.740  24.347  0.00  0.00    +0.048 A 
ATOM      6  C   UNL     1      71.407  57.865  23.773  0.00  0.00    +0.116 A 
ATOM      7  N   UNL     1      70.600  56.757  23.636  0.00  0.00    -0.223 NA
ATOM      8  C   UNL     1      71.025  55.509  24.052  0.00  0.00    +0.220 A 
ATOM      9  N   UNL     1      70.226  54.382  23.931  0.00  0.00    -0.283 N 
ATOM     36  H   UNL     1      70.579  53.478  24.244  0.00  0.00    +0.155 HD
ATOM     37  N   UNL     1      72.248  55.363  24.602  0.00  0.00    -0.214 NA
BRANCH   4   3
ATOM      1  C   UNL     1      76.797  56.753  26.006  0.00  0.00    +0.020 A 
ATOM      2  C   UNL     1      75.536  57.084  25.385  0.00  0.00    +0.013 A 
ATOM      3  C   UNL     1      74.428  56.138  25.398  0.00  0.00    +0.019 A 
ATOM     38  C   UNL     1      74.629  54.855  26.054  0.00  0.00    +0.120 A 
ATOM     39  N   UNL     1      75.856  54.563  26.643  0.00  0.00    -0.263 NA
ATOM     40  C   UNL     1      76.930  55.465  26.635  0.00  0.00    +0.111 A 
ENDBRANCH   4   3
ENDBRANCH  10   9
BRANCH  12  13
ATOM     13  N   UNL     1      67.210  53.988  19.994  0.00  0.00    -0.281 N 
ATOM     14  C   UNL     1      67.393  54.831  18.910  0.00  0.00    +0.248 C 
ATOM     30  O   UNL     1      67.591  56.034  18.997  0.00  0.00    -0.270 OA
ATOM     31  H   UNL     1      66.861  53.053  19.780  0.00  0.00    +0.155 HD
BRANCH  14  15
ATOM     15  C   UNL     1      67.332  54.259  17.531  0.00  0.00    +0.037 A 
ATOM     16  C   UNL     1      67.585  52.837  17.287  0.00  0.00    +0.013 A 
ATOM     17  C   UNL     1      67.537  52.314  15.944  0.00  0.00    +0.005 A 
ATOM     18  C   UNL     1      67.232  53.214  14.835  0.00  0.00    -0.033 A 
ATOM     28  C   UNL     1      66.980  54.620  15.107  0.00  0.00    +0.005 A 
ATOM     29  C   UNL     1      67.027  55.136  16.421  0.00  0.00    +0.013 A 
BRANCH  18  19
ATOM     19  C   UNL     1      67.181  52.747  13.369  0.00  0.00    +0.119 C 
BRANCH  19  20
ATOM     20  N   UNL     1      68.416  52.127  12.805  0.00  0.00    -0.302 NA
ATOM     21  C   UNL     1      68.517  50.637  13.142  0.00  0.00    +0.066 C 
ATOM     22  C   UNL     1      69.804  49.999  12.526  0.00  0.00    -0.064 C 
ATOM     23  N   UNL     1      71.036  50.753  13.030  0.00  0.00    +0.379 N 
ATOM     24  C   UNL     1      72.251  50.120  12.498  0.00  0.00    -0.096 C 
ATOM     25  H   UNL     1      71.061  50.655  14.140  0.00  0.00    -0.082 HD
ATOM     26  C   UNL     1      70.943  52.236  12.701  0.00  0.00    -0.064 C 
ATOM     27  C   UNL     1      69.645  52.854  13.293  0.00  0.00    +0.066 C 
ENDBRANCH  19  20
ENDBRANCH  18  19
ENDBRANCH  14  15
ENDBRANCH  12  13
TORSDOF 6
ENDMDL
