MODEL 1
REMARK VINA RESULT:      -9.1      0.000      0.000
REMARK  Name = C:\Users\Docking\Desktop\test protocol\1iep_ligandH.pdb
REMARK  8 active torsions:
REMARK  status: ('A' for Active; 'I' for Inactive)
REMARK    1  A    between atoms: _5  and  _11
REMARK    2  A    between atoms: _19  and  _21
REMARK    3  A    between atoms: _22  and  _66
REMARK    4  A    between atoms: _27  and  _30
REMARK    5  A    between atoms: _32  and  _33
REMARK    6  A    between atoms: _38  and  _43
REMARK    7  A    between atoms: _43  and  _46
REMARK    8  A    between atoms: _53  and  _55
REMARK                            x       y       z     vdW  Elec       q    Type
REMARK                         _______ _______ _______ _____ _____    ______ ____
ROOT
ATOM     10  C   UNL     1      67.511  52.591  15.457  0.00  0.00    +0.038 A 
ATOM     11  C   UNL     1      67.896  52.519  16.820  0.00  0.00    +0.047 A 
ATOM     12  C   UNL     1      68.199  53.721  17.581  0.00  0.00    +0.035 A 
ATOM     32  C   UNL     1      68.097  54.981  16.922  0.00  0.00    +0.024 A 
ATOM     33  C   UNL     1      67.708  55.072  15.537  0.00  0.00    +0.007 A 
ATOM     34  C   UNL     1      67.411  53.890  14.780  0.00  0.00    -0.029 A 
ATOM     35  C   UNL     1      67.006  54.047  13.296  0.00  0.00    +0.045 C 
ENDROOT
BRANCH  10   9
ATOM      4  C   UNL     1      68.754  49.004  12.519  0.00  0.00    +0.077 A 
ATOM      5  C   UNL     1      70.062  49.555  12.305  0.00  0.00    +0.048 A 
ATOM      6  C   UNL     1      70.372  50.766  12.963  0.00  0.00    +0.116 A 
ATOM      7  N   UNL     1      69.437  51.372  13.773  0.00  0.00    -0.223 NA
ATOM      8  C   UNL     1      68.185  50.816  13.958  0.00  0.00    +0.220 A 
ATOM      9  N   UNL     1      67.232  51.405  14.775  0.00  0.00    -0.283 N 
ATOM     36  H   UNL     1      66.317  50.967  14.879  0.00  0.00    +0.155 HD
ATOM     37  N   UNL     1      67.864  49.661  13.339  0.00  0.00    -0.214 NA
BRANCH   4   3
ATOM      1  C   UNL     1      68.445  45.873  10.196  0.00  0.00    +0.020 A 
ATOM      2  C   UNL     1      68.946  47.105  10.760  0.00  0.00    +0.013 A 
ATOM      3  C   UNL     1      68.278  47.729  11.896  0.00  0.00    +0.019 A 
ATOM     38  C   UNL     1      67.098  47.075  12.442  0.00  0.00    +0.120 A 
ATOM     39  N   UNL     1      66.639  45.890  11.876  0.00  0.00    -0.263 NA
ATOM     40  C   UNL     1      67.272  45.281  10.783  0.00  0.00    +0.111 A 
ENDBRANCH   4   3
ENDBRANCH  10   9
BRANCH  12  13
ATOM     13  N   UNL     1      68.602  53.710  18.965  0.00  0.00    -0.281 N 
ATOM     14  C   UNL     1      67.850  54.062  20.074  0.00  0.00    +0.248 C 
ATOM     30  O   UNL     1      66.778  54.646  20.025  0.00  0.00    -0.270 OA
ATOM     31  H   UNL     1      69.558  53.406  19.150  0.00  0.00    +0.155 HD
BRANCH  14  15
ATOM     15  C   UNL     1      68.371  53.728  21.435  0.00  0.00    +0.037 A 
ATOM     16  C   UNL     1      67.800  54.339  22.638  0.00  0.00    +0.013 A 
ATOM     17  C   UNL     1      68.332  54.013  23.937  0.00  0.00    +0.005 A 
ATOM     18  C   UNL     1      69.443  53.070  24.040  0.00  0.00    -0.033 A 
ATOM     28  C   UNL     1      69.987  52.475  22.831  0.00  0.00    +0.005 A 
ATOM     29  C   UNL     1      69.468  52.792  21.555  0.00  0.00    +0.013 A 
BRANCH  18  19
ATOM     19  C   UNL     1      70.088  52.680  25.383  0.00  0.00    +0.119 C 
BRANCH  19  20
ATOM     20  N   UNL     1      71.543  52.970  25.553  0.00  0.00    -0.302 NA
ATOM     21  C   UNL     1      72.053  52.558  26.936  0.00  0.00    +0.066 C 
ATOM     22  C   UNL     1      73.582  52.848  27.089  0.00  0.00    -0.064 C 
ATOM     23  N   UNL     1      73.845  54.333  26.835  0.00  0.00    +0.379 N 
ATOM     24  C   UNL     1      75.273  54.620  27.034  0.00  0.00    -0.096 C 
ATOM     25  H   UNL     1      73.273  54.912  27.597  0.00  0.00    -0.082 HD
ATOM     26  C   UNL     1      73.338  54.752  25.462  0.00  0.00    -0.064 C 
ATOM     27  C   UNL     1      71.824  54.433  25.310  0.00  0.00    +0.066 C 
ENDBRANCH  19  20
ENDBRANCH  18  19
ENDBRANCH  14  15
ENDBRANCH  12  13
TORSDOF 6
ENDMDL
MODEL 2
REMARK VINA RESULT:      -9.1      3.652     11.780
REMARK  Name = C:\Users\Docking\Desktop\test protocol\1iep_ligandH.pdb
REMARK  8 active torsions:
REMARK  status: ('A' for Active; 'I' for Inactive)
REMARK    1  A    between atoms: _5  and  _11
REMARK    2  A    between atoms: _19  and  _21
REMARK    3  A    between atoms: _22  and  _66
REMARK    4  A    between atoms: _27  and  _30
REMARK    5  A    between atoms: _32  and  _33
REMARK    6  A    between atoms: _38  and  _43
REMARK    7  A    between atoms: _43  and  _46
REMARK    8  A    between atoms: _53  and  _55
REMARK                            x       y       z     vdW  Elec       q    Type
REMARK                         _______ _______ _______ _____ _____    ______ ____
ROOT
ATOM     10  C   UNL     1      67.798  53.190  15.542  0.00  0.00    +0.038 A 
ATOM     11  C   UNL     1      67.967  51.814  15.242  0.00  0.00    +0.047 A 
ATOM     12  C   UNL     1      67.547  51.266  13.962  0.00  0.00    +0.035 A 
ATOM     32  C   UNL     1      66.960  52.148  13.009  0.00  0.00    +0.024 A 
ATOM     33  C   UNL     1      66.780  53.549  13.297  0.00  0.00    +0.007 A 
ATOM     34  C   UNL     1      67.190  54.095  14.559  0.00  0.00    -0.029 A 
ATOM     35  C   UNL     1      66.966  55.604  14.816  0.00  0.00    +0.045 C 
ENDROOT
BRANCH  10   9
ATOM      4  C   UNL     1      71.030  55.299  18.395  0.00  0.00    +0.077 A 
ATOM      5  C   UNL     1      71.969  55.447  17.321  0.00  0.00    +0.048 A 
ATOM      6  C   UNL     1      71.585  54.960  16.051  0.00  0.00    +0.116 A 
ATOM      7  N   UNL     1      70.350  54.372  15.880  0.00  0.00    -0.223 NA
ATOM      8  C   UNL     1      69.469  54.244  16.938  0.00  0.00    +0.220 A 
ATOM      9  N   UNL     1      68.219  53.664  16.787  0.00  0.00    -0.283 N 
ATOM     36  H   UNL     1      67.600  53.581  17.593  0.00  0.00    +0.155 HD
ATOM     37  N   UNL     1      69.813  54.700  18.160  0.00  0.00    -0.214 NA
BRANCH   4   3
ATOM      1  C   UNL     1      72.401  57.284  21.475  0.00  0.00    +0.020 A 
ATOM      2  C   UNL     1      72.186  56.872  20.107  0.00  0.00    +0.013 A 
ATOM      3  C   UNL     1      71.289  55.766  19.794  0.00  0.00    +0.019 A 
ATOM     38  C   UNL     1      70.619  55.094  20.897  0.00  0.00    +0.120 A 
ATOM     39  N   UNL     1      70.847  55.512  22.205  0.00  0.00    -0.263 NA
ATOM     40  C   UNL     1      71.709  56.573  22.518  0.00  0.00    +0.111 A 
ENDBRANCH   4   3
ENDBRANCH  10   9
BRANCH  12  13
ATOM     13  N   UNL     1      67.686  49.876  13.605  0.00  0.00    -0.281 N 
ATOM     14  C   UNL     1      68.854  49.141  13.481  0.00  0.00    +0.248 C 
ATOM     30  O   UNL     1      69.975  49.625  13.450  0.00  0.00    -0.270 OA
ATOM     31  H   UNL     1      66.818  49.372  13.422  0.00  0.00    +0.155 HD
BRANCH  14  15
ATOM     15  C   UNL     1      68.762  47.654  13.359  0.00  0.00    +0.037 A 
ATOM     16  C   UNL     1      69.633  46.772  14.140  0.00  0.00    +0.013 A 
ATOM     17  C   UNL     1      69.535  45.342  13.991  0.00  0.00    +0.005 A 
ATOM     18  C   UNL     1      68.560  44.784  13.056  0.00  0.00    -0.033 A 
ATOM     28  C   UNL     1      67.705  45.682  12.298  0.00  0.00    +0.005 A 
ATOM     29  C   UNL     1      67.799  47.084  12.441  0.00  0.00    +0.013 A 
BRANCH  18  19
ATOM     19  C   UNL     1      68.402  43.271  12.817  0.00  0.00    +0.119 C 
BRANCH  19  20
ATOM     20  N   UNL     1      67.410  42.545  13.666  0.00  0.00    -0.302 NA
ATOM     21  C   UNL     1      65.968  42.929  13.321  0.00  0.00    +0.066 C 
ATOM     22  C   UNL     1      64.944  42.144  14.203  0.00  0.00    -0.064 C 
ATOM     23  N   UNL     1      65.237  42.410  15.680  0.00  0.00    +0.379 N 
ATOM     24  C   UNL     1      64.239  41.720  16.510  0.00  0.00    -0.096 C 
ATOM     25  H   UNL     1      65.123  43.505  15.855  0.00  0.00    -0.082 HD
ATOM     26  C   UNL     1      66.669  42.034  16.031  0.00  0.00    -0.064 C 
ATOM     27  C   UNL     1      67.678  42.798  15.129  0.00  0.00    +0.066 C 
ENDBRANCH  19  20
ENDBRANCH  18  19
ENDBRANCH  14  15
ENDBRANCH  12  13
TORSDOF 6
ENDMDL
MODEL 3
REMARK VINA RESULT:      -9.0      2.266     12.318
REMARK  Name = C:\Users\Docking\Desktop\test protocol\1iep_ligandH.pdb
REMARK  8 active torsions:
REMARK  status: ('A' for Active; 'I' for Inactive)
REMARK    1  A    between atoms: _5  and  _11
REMARK    2  A    between atoms: _19  and  _21
REMARK    3  A    between atoms: _22  and  _66
REMARK    4  A    between atoms: _27  and  _30
REMARK    5  A    between atoms: _32  and  _33
REMARK    6  A    between atoms: _38  and  _43
REMARK    7  A    between atoms: _43  and  _46
REMARK    8  A    between atoms: _53  and  _55
REMARK                            x       y       z     vdW  Elec       q    Type
REMARK                         _______ _______ _______ _____ _____    ______ ____
ROOT
ATOM     10  C   UNL     1      68.817  54.041  23.287  0.00  0.00    +0.038 A 
ATOM     11  C   UNL     1      68.738  54.018  21.871  0.00  0.00    +0.047 A 
ATOM     12  C   UNL     1      67.518  54.403  21.178  0.00  0.00    +0.035 A 
ATOM     32  C   UNL     1      66.398  54.810  21.960  0.00  0.00    +0.024 A 
ATOM     33  C   UNL     1      66.460  54.839  23.400  0.00  0.00    +0.007 A 
ATOM     34  C   UNL     1      67.660  54.457  24.089  0.00  0.00    -0.029 A 
ATOM     35  C   UNL     1      67.668  54.500  25.634  0.00  0.00    +0.045 C 
ENDROOT
BRANCH  10   9
ATOM      4  C   UNL     1      73.092  55.054  25.218  0.00  0.00    +0.077 A 
ATOM      5  C   UNL     1      72.942  56.458  24.960  0.00  0.00    +0.048 A 
ATOM      6  C   UNL     1      71.753  56.877  24.323  0.00  0.00    +0.116 A 
ATOM      7  N   UNL     1      70.792  55.953  23.973  0.00  0.00    -0.223 NA
ATOM      8  C   UNL     1      70.969  54.606  24.235  0.00  0.00    +0.220 A 
ATOM      9  N   UNL     1      70.013  53.660  23.899  0.00  0.00    -0.283 N 
ATOM     36  H   UNL     1      70.184  52.676  24.102  0.00  0.00    +0.155 HD
ATOM     37  N   UNL     1      72.097  54.181  24.841  0.00  0.00    -0.214 NA
BRANCH   4   3
ATOM      1  C   UNL     1      76.781  54.227  26.225  0.00  0.00    +0.020 A 
ATOM      2  C   UNL     1      75.658  54.833  25.547  0.00  0.00    +0.013 A 
ATOM      3  C   UNL     1      74.291  54.457  25.887  0.00  0.00    +0.019 A 
ATOM     38  C   UNL     1      74.094  53.457  26.925  0.00  0.00    +0.120 A 
ATOM     39  N   UNL     1      75.194  52.889  27.559  0.00  0.00    -0.263 NA
ATOM     40  C   UNL     1      76.514  53.241  27.239  0.00  0.00    +0.111 A 
ENDBRANCH   4   3
ENDBRANCH  10   9
BRANCH  12  13
ATOM     13  N   UNL     1      67.377  54.392  19.744  0.00  0.00    -0.281 N 
ATOM     14  C   UNL     1      68.168  55.034  18.805  0.00  0.00    +0.248 C 
ATOM     30  O   UNL     1      68.995  55.894  19.070  0.00  0.00    -0.270 OA
ATOM     31  H   UNL     1      66.599  53.844  19.375  0.00  0.00    +0.155 HD
BRANCH  14  15
ATOM     15  C   UNL     1      68.007  54.680  17.362  0.00  0.00    +0.037 A 
ATOM     16  C   UNL     1      68.461  55.584  16.302  0.00  0.00    +0.013 A 
ATOM     17  C   UNL     1      68.279  55.226  14.918  0.00  0.00    +0.005 A 
ATOM     18  C   UNL     1      67.639  53.955  14.586  0.00  0.00    -0.033 A 
ATOM     28  C   UNL     1      67.202  53.075  15.657  0.00  0.00    +0.005 A 
ATOM     29  C   UNL     1      67.378  53.423  17.014  0.00  0.00    +0.013 A 
BRANCH  18  19
ATOM     19  C   UNL     1      67.384  53.501  13.136  0.00  0.00    +0.119 C 
BRANCH  19  20
ATOM     20  N   UNL     1      68.351  52.529  12.544  0.00  0.00    -0.302 NA
ATOM     21  C   UNL     1      68.031  51.086  12.941  0.00  0.00    +0.066 C 
ATOM     22  C   UNL     1      69.039  50.081  12.294  0.00  0.00    -0.064 C 
ATOM     23  N   UNL     1      70.463  50.453  12.709  0.00  0.00    +0.379 N 
ATOM     24  C   UNL     1      71.408  49.476  12.150  0.00  0.00    -0.096 C 
ATOM     25  H   UNL     1      70.521  50.383  13.820  0.00  0.00    -0.082 HD
ATOM     26  C   UNL     1      70.789  51.888  12.320  0.00  0.00    -0.064 C 
ATOM     27  C   UNL     1      69.764  52.876  12.944  0.00  0.00    +0.066 C 
ENDBRANCH  19  20
ENDBRANCH  18  19
ENDBRANCH  14  15
ENDBRANCH  12  13
TORSDOF 6
ENDMDL
MODEL 4
REMARK VINA RESULT:      -8.8      2.464      3.441
REMARK  Name = C:\Users\Docking\Desktop\test protocol\1iep_ligandH.pdb
REMARK  8 active torsions:
REMARK  status: ('A' for Active; 'I' for Inactive)
REMARK    1  A    between atoms: _5  and  _11
REMARK    2  A    between atoms: _19  and  _21
REMARK    3  A    between atoms: _22  and  _66
REMARK    4  A    between atoms: _27  and  _30
REMARK    5  A    between atoms: _32  and  _33
REMARK    6  A    between atoms: _38  and  _43
REMARK    7  A    between atoms: _43  and  _46
REMARK    8  A    between atoms: _53  and  _55
REMARK                            x       y       z     vdW  Elec       q    Type
REMARK                         _______ _______ _______ _____ _____    ______ ____
ROOT
ATOM     10  C   UNL     1      68.308  54.168  16.494  0.00  0.00    +0.038 A 
ATOM     11  C   UNL     1      68.517  53.892  17.869  0.00  0.00    +0.047 A 
ATOM     12  C   UNL     1      67.513  54.233  18.866  0.00  0.00    +0.035 A 
ATOM     32  C   UNL     1      66.306  54.850  18.426  0.00  0.00    +0.024 A 
ATOM     33  C   UNL     1      66.078  55.138  17.032  0.00  0.00    +0.007 A 
ATOM     34  C   UNL     1      67.065  54.807  16.044  0.00  0.00    -0.029 A 
ATOM     35  C   UNL     1      66.769  55.145  14.565  0.00  0.00    +0.045 C 
ENDROOT
BRANCH  10   9
ATOM      4  C   UNL     1      70.114  51.317  13.081  0.00  0.00    +0.077 A 
ATOM      5  C   UNL     1      68.987  50.431  13.142  0.00  0.00    +0.048 A 
ATOM      6  C   UNL     1      67.968  50.740  14.071  0.00  0.00    +0.116 A 
ATOM      7  N   UNL     1      68.077  51.856  14.872  0.00  0.00    -0.223 NA
ATOM      8  C   UNL     1      69.178  52.689  14.789  0.00  0.00    +0.220 A 
ATOM      9  N   UNL     1      69.305  53.820  15.580  0.00  0.00    -0.283 N 
ATOM     36  H   UNL     1      70.136  54.405  15.494  0.00  0.00    +0.155 HD
ATOM     37  N   UNL     1      70.165  52.414  13.912  0.00  0.00    -0.214 NA
BRANCH   4   3
ATOM      1  C   UNL     1      73.009  51.988  10.538  0.00  0.00    +0.020 A 
ATOM      2  C   UNL     1      71.895  52.227  11.426  0.00  0.00    +0.013 A 
ATOM      3  C   UNL     1      71.270  51.126  12.149  0.00  0.00    +0.019 A 
ATOM     38  C   UNL     1      71.801  49.786  11.950  0.00  0.00    +0.120 A 
ATOM     39  N   UNL     1      72.874  49.587  11.087  0.00  0.00    -0.263 NA
ATOM     40  C   UNL     1      73.483  50.638  10.385  0.00  0.00    +0.111 A 
ENDBRANCH   4   3
ENDBRANCH  10   9
BRANCH  12  13
ATOM     13  N   UNL     1      67.673  53.985  20.277  0.00  0.00    -0.281 N 
ATOM     14  C   UNL     1      68.201  52.860  20.890  0.00  0.00    +0.248 C 
ATOM     30  O   UNL     1      68.420  51.801  20.320  0.00  0.00    -0.270 OA
ATOM     31  H   UNL     1      67.359  54.729  20.901  0.00  0.00    +0.155 HD
BRANCH  14  15
ATOM     15  C   UNL     1      68.517  52.914  22.350  0.00  0.00    +0.037 A 
ATOM     16  C   UNL     1      69.089  51.759  23.047  0.00  0.00    +0.013 A 
ATOM     17  C   UNL     1      69.369  51.832  24.459  0.00  0.00    +0.005 A 
ATOM     18  C   UNL     1      69.077  53.067  25.184  0.00  0.00    -0.033 A 
ATOM     28  C   UNL     1      68.515  54.199  24.466  0.00  0.00    +0.005 A 
ATOM     29  C   UNL     1      68.238  54.130  23.082  0.00  0.00    +0.013 A 
BRANCH  18  19
ATOM     19  C   UNL     1      69.324  53.227  26.695  0.00  0.00    +0.119 C 
BRANCH  19  20
ATOM     20  N   UNL     1      70.740  53.172  27.167  0.00  0.00    -0.302 NA
ATOM     21  C   UNL     1      71.729  53.539  26.057  0.00  0.00    +0.066 C 
ATOM     22  C   UNL     1      73.204  53.499  26.574  0.00  0.00    -0.064 C 
ATOM     23  N   UNL     1      73.508  52.107  27.133  0.00  0.00    +0.379 N 
ATOM     24  C   UNL     1      74.912  52.049  27.567  0.00  0.00    -0.096 C 
ATOM     25  H   UNL     1      73.379  51.374  26.303  0.00  0.00    -0.082 HD
ATOM     26  C   UNL     1      72.527  51.734  28.235  0.00  0.00    -0.064 C 
ATOM     27  C   UNL     1      71.062  51.806  27.719  0.00  0.00    +0.066 C 
ENDBRANCH  19  20
ENDBRANCH  18  19
ENDBRANCH  14  15
ENDBRANCH  12  13
TORSDOF 6
ENDMDL
MODEL 5
REMARK VINA RESULT:      -8.8      1.631      2.826
REMARK  Name = C:\Users\Docking\Desktop\test protocol\1iep_ligandH.pdb
REMARK  8 active torsions:
REMARK  status: ('A' for Active; 'I' for Inactive)
REMARK    1  A    between atoms: _5  and  _11
REMARK    2  A    between atoms: _19  and  _21
REMARK    3  A    between atoms: _22  and  _66
REMARK    4  A    between atoms: _27  and  _30
REMARK    5  A    between atoms: _32  and  _33
REMARK    6  A    between atoms: _38  and  _43
REMARK    7  A    between atoms: _43  and  _46
REMARK    8  A    between atoms: _53  and  _55
REMARK                            x       y       z     vdW  Elec       q    Type
REMARK                         _______ _______ _______ _____ _____    ______ ____
ROOT
ATOM     10  C   UNL     1      67.507  52.619  15.456  0.00  0.00    +0.038 A 
ATOM     11  C   UNL     1      67.939  52.595  16.807  0.00  0.00    +0.047 A 
ATOM     12  C   UNL     1      68.224  53.826  17.528  0.00  0.00    +0.035 A 
ATOM     32  C   UNL     1      68.056  55.064  16.844  0.00  0.00    +0.024 A 
ATOM     33  C   UNL     1      67.619  55.108  15.470  0.00  0.00    +0.007 A 
ATOM     34  C   UNL     1      67.339  53.897  14.753  0.00  0.00    -0.029 A 
ATOM     35  C   UNL     1      66.879  54.003  13.280  0.00  0.00    +0.045 C 
ENDROOT
BRANCH  10   9
ATOM      4  C   UNL     1      68.781  49.002  12.571  0.00  0.00    +0.077 A 
ATOM      5  C   UNL     1      70.063  49.589  12.303  0.00  0.00    +0.048 A 
ATOM      6  C   UNL     1      70.352  50.826  12.921  0.00  0.00    +0.116 A 
ATOM      7  N   UNL     1      69.422  51.422  13.745  0.00  0.00    -0.223 NA
ATOM      8  C   UNL     1      68.195  50.830  13.981  0.00  0.00    +0.220 A 
ATOM      9  N   UNL     1      67.247  51.408  14.812  0.00  0.00    -0.283 N 
ATOM     36  H   UNL     1      66.351  50.943  14.955  0.00  0.00    +0.155 HD
ATOM     37  N   UNL     1      67.894  49.649  13.401  0.00  0.00    -0.214 NA
BRANCH   4   3
ATOM      1  C   UNL     1      68.600  45.723  10.445  0.00  0.00    +0.020 A 
ATOM      2  C   UNL     1      69.080  46.981  10.969  0.00  0.00    +0.013 A 
ATOM      3  C   UNL     1      68.330  47.696  11.994  0.00  0.00    +0.019 A 
ATOM     38  C   UNL     1      67.088  47.106  12.471  0.00  0.00    +0.120 A 
ATOM     39  N   UNL     1      66.650  45.894  11.948  0.00  0.00    -0.263 NA
ATOM     40  C   UNL     1      67.363  45.197  10.960  0.00  0.00    +0.111 A 
ENDBRANCH   4   3
ENDBRANCH  10   9
BRANCH  12  13
ATOM     13  N   UNL     1      68.673  53.862  18.898  0.00  0.00    -0.281 N 
ATOM     14  C   UNL     1      67.923  54.121  20.034  0.00  0.00    +0.248 C 
ATOM     30  O   UNL     1      66.788  54.573  20.024  0.00  0.00    -0.270 OA
ATOM     31  H   UNL     1      69.665  53.675  19.049  0.00  0.00    +0.155 HD
BRANCH  14  15
ATOM     15  C   UNL     1      68.527  53.853  21.374  0.00  0.00    +0.037 A 
ATOM     16  C   UNL     1      69.384  52.687  21.602  0.00  0.00    +0.013 A 
ATOM     17  C   UNL     1      69.940  52.442  22.909  0.00  0.00    +0.005 A 
ATOM     18  C   UNL     1      69.641  53.367  23.999  0.00  0.00    -0.033 A 
ATOM     28  C   UNL     1      68.791  54.519  23.745  0.00  0.00    +0.005 A 
ATOM     29  C   UNL     1      68.244  54.761  22.465  0.00  0.00    +0.013 A 
BRANCH  18  19
ATOM     19  C   UNL     1      70.173  53.173  25.432  0.00  0.00    +0.119 C 
BRANCH  19  20
ATOM     20  N   UNL     1      69.621  52.029  26.217  0.00  0.00    -0.302 NA
ATOM     21  C   UNL     1      70.113  50.678  25.689  0.00  0.00    +0.066 C 
ATOM     22  C   UNL     1      69.544  49.494  26.536  0.00  0.00    -0.064 C 
ATOM     23  N   UNL     1      68.015  49.554  26.528  0.00  0.00    +0.379 N 
ATOM     24  C   UNL     1      67.476  48.409  27.276  0.00  0.00    -0.096 C 
ATOM     25  H   UNL     1      67.679  49.456  25.470  0.00  0.00    -0.082 HD
ATOM     26  C   UNL     1      67.517  50.894  27.049  0.00  0.00    -0.064 C 
ATOM     27  C   UNL     1      68.112  52.066  26.219  0.00  0.00    +0.066 C 
ENDBRANCH  19  20
ENDBRANCH  18  19
ENDBRANCH  14  15
ENDBRANCH  12  13
TORSDOF 6
ENDMDL
