MODEL 1
REMARK VINA RESULT:      -7.8      0.000      0.000
REMARK  Name = C:\Users\Docking\Desktop\test protocol\1iep_ligandH.pdb
REMARK  8 active torsions:
REMARK  status: ('A' for Active; 'I' for Inactive)
REMARK    1  A    between atoms: _5  and  _11
REMARK    2  A    between atoms: _19  and  _21
REMARK    3  A    between atoms: _22  and  _66
REMARK    4  A    between atoms: _27  and  _30
REMARK    5  A    between atoms: _32  and  _33
REMARK    6  A    between atoms: _38  and  _43
REMARK    7  A    between atoms: _43  and  _46
REMARK    8  A    between atoms: _53  and  _55
REMARK                            x       y       z     vdW  Elec       q    Type
REMARK                         _______ _______ _______ _____ _____    ______ ____
ROOT
ATOM     10  C   UNL     1      69.331  55.846  17.608  0.00  0.00    +0.038 A 
ATOM     11  C   UNL     1      69.807  57.063  17.056  0.00  0.00    +0.047 A 
ATOM     12  C   UNL     1      69.632  58.326  17.756  0.00  0.00    +0.035 A 
ATOM     32  C   UNL     1      68.969  58.312  19.018  0.00  0.00    +0.024 A 
ATOM     33  C   UNL     1      68.478  57.085  19.593  0.00  0.00    +0.007 A 
ATOM     34  C   UNL     1      68.646  55.836  18.906  0.00  0.00    -0.029 A 
ATOM     35  C   UNL     1      68.093  54.552  19.566  0.00  0.00    +0.045 C 
ENDROOT
BRANCH  10   9
ATOM      4  C   UNL     1      68.092  52.712  14.190  0.00  0.00    +0.077 A 
ATOM      5  C   UNL     1      66.942  53.484  13.816  0.00  0.00    +0.048 A 
ATOM      6  C   UNL     1      66.701  54.678  14.532  0.00  0.00    +0.116 A 
ATOM      7  N   UNL     1      67.553  55.061  15.545  0.00  0.00    -0.223 NA
ATOM      8  C   UNL     1      68.652  54.292  15.882  0.00  0.00    +0.220 A 
ATOM      9  N   UNL     1      69.527  54.662  16.892  0.00  0.00    -0.283 N 
ATOM     36  H   UNL     1      70.322  54.064  17.115  0.00  0.00    +0.155 HD
ATOM     37  N   UNL     1      68.903  53.147  15.214  0.00  0.00    -0.214 NA
BRANCH   4   3
ATOM      1  C   UNL     1      68.107  48.998  12.963  0.00  0.00    +0.020 A 
ATOM      2  C   UNL     1      67.686  50.211  13.625  0.00  0.00    +0.013 A 
ATOM      3  C   UNL     1      68.481  51.428  13.525  0.00  0.00    +0.019 A 
ATOM     38  C   UNL     1      69.706  51.384  12.740  0.00  0.00    +0.120 A 
ATOM     39  N   UNL     1      70.087  50.201  12.115  0.00  0.00    -0.263 NA
ATOM     40  C   UNL     1      69.331  49.023  12.206  0.00  0.00    +0.111 A 
ENDBRANCH   4   3
ENDBRANCH  10   9
BRANCH  12  13
ATOM     13  N   UNL     1      70.087  59.594  17.242  0.00  0.00    -0.281 N 
ATOM     14  C   UNL     1      71.392  60.011  17.038  0.00  0.00    +0.248 C 
ATOM     30  O   UNL     1      72.378  59.432  17.470  0.00  0.00    -0.270 OA
ATOM     31  H   UNL     1      69.359  60.265  16.999  0.00  0.00    +0.155 HD
BRANCH  14  15
ATOM     15  C   UNL     1      71.637  61.259  16.253  0.00  0.00    +0.037 A 
ATOM     16  C   UNL     1      71.857  62.545  16.920  0.00  0.00    +0.013 A 
ATOM     17  C   UNL     1      72.074  63.737  16.138  0.00  0.00    +0.005 A 
ATOM     18  C   UNL     1      72.073  63.647  14.680  0.00  0.00    -0.033 A 
ATOM     28  C   UNL     1      71.857  62.358  14.045  0.00  0.00    +0.005 A 
ATOM     29  C   UNL     1      71.644  61.188  14.808  0.00  0.00    +0.013 A 
BRANCH  18  19
ATOM     19  C   UNL     1      72.275  64.871  13.767  0.00  0.00    +0.119 C 
BRANCH  19  20
ATOM     20  N   UNL     1      73.680  65.308  13.510  0.00  0.00    -0.302 NA
ATOM     21  C   UNL     1      74.091  66.479  14.407  0.00  0.00    +0.066 C 
ATOM     22  C   UNL     1      75.571  66.908  14.140  0.00  0.00    -0.064 C 
ATOM     23  N   UNL     1      75.735  67.273  12.663  0.00  0.00    +0.379 N 
ATOM     24  C   UNL     1      77.110  67.732  12.422  0.00  0.00    -0.096 C 
ATOM     25  H   UNL     1      75.050  68.126  12.448  0.00  0.00    -0.082 HD
ATOM     26  C   UNL     1      75.325  66.115  11.764  0.00  0.00    -0.064 C 
ATOM     27  C   UNL     1      73.863  65.677  12.058  0.00  0.00    +0.066 C 
ENDBRANCH  19  20
ENDBRANCH  18  19
ENDBRANCH  14  15
ENDBRANCH  12  13
TORSDOF 6
ENDMDL
MODEL 2
REMARK VINA RESULT:      -7.7      8.109     12.191
REMARK  Name = C:\Users\Docking\Desktop\test protocol\1iep_ligandH.pdb
REMARK  8 active torsions:
REMARK  status: ('A' for Active; 'I' for Inactive)
REMARK    1  A    between atoms: _5  and  _11
REMARK    2  A    between atoms: _19  and  _21
REMARK    3  A    between atoms: _22  and  _66
REMARK    4  A    between atoms: _27  and  _30
REMARK    5  A    between atoms: _32  and  _33
REMARK    6  A    between atoms: _38  and  _43
REMARK    7  A    between atoms: _43  and  _46
REMARK    8  A    between atoms: _53  and  _55
REMARK                            x       y       z     vdW  Elec       q    Type
REMARK                         _______ _______ _______ _____ _____    ______ ____
ROOT
ATOM     10  C   UNL     1      68.214  54.531  23.248  0.00  0.00    +0.038 A 
ATOM     11  C   UNL     1      67.847  53.963  22.001  0.00  0.00    +0.047 A 
ATOM     12  C   UNL     1      68.375  54.486  20.751  0.00  0.00    +0.035 A 
ATOM     32  C   UNL     1      69.278  55.588  20.807  0.00  0.00    +0.024 A 
ATOM     33  C   UNL     1      69.661  56.178  22.065  0.00  0.00    +0.007 A 
ATOM     34  C   UNL     1      69.142  55.668  23.302  0.00  0.00    -0.029 A 
ATOM     35  C   UNL     1      69.582  56.344  24.621  0.00  0.00    +0.045 C 
ENDROOT
BRANCH  10   9
ATOM      4  C   UNL     1      68.039  51.159  26.659  0.00  0.00    +0.077 A 
ATOM      5  C   UNL     1      69.089  50.399  26.044  0.00  0.00    +0.048 A 
ATOM      6  C   UNL     1      69.643  50.907  24.847  0.00  0.00    +0.116 A 
ATOM      7  N   UNL     1      69.174  52.088  24.314  0.00  0.00    -0.223 NA
ATOM      8  C   UNL     1      68.158  52.795  24.931  0.00  0.00    +0.220 A 
ATOM      9  N   UNL     1      67.677  53.989  24.417  0.00  0.00    -0.283 N 
ATOM     36  H   UNL     1      66.922  54.477  24.898  0.00  0.00    +0.155 HD
ATOM     37  N   UNL     1      67.612  52.331  26.074  0.00  0.00    -0.214 NA
BRANCH   4   3
ATOM      1  C   UNL     1      65.331  50.023  29.243  0.00  0.00    +0.020 A 
ATOM      2  C   UNL     1      65.942  50.408  27.991  0.00  0.00    +0.013 A 
ATOM      3  C   UNL     1      67.356  50.755  27.928  0.00  0.00    +0.019 A 
ATOM     38  C   UNL     1      68.130  50.702  29.159  0.00  0.00    +0.120 A 
ATOM     39  N   UNL     1      67.514  50.330  30.350  0.00  0.00    -0.263 NA
ATOM     40  C   UNL     1      66.154  49.995  30.423  0.00  0.00    +0.111 A 
ENDBRANCH   4   3
ENDBRANCH  10   9
BRANCH  12  13
ATOM     13  N   UNL     1      68.032  53.956  19.455  0.00  0.00    -0.281 N 
ATOM     14  C   UNL     1      67.167  54.494  18.516  0.00  0.00    +0.248 C 
ATOM     30  O   UNL     1      66.390  55.411  18.737  0.00  0.00    -0.270 OA
ATOM     31  H   UNL     1      68.480  53.076  19.198  0.00  0.00    +0.155 HD
BRANCH  14  15
ATOM     15  C   UNL     1      67.154  53.923  17.135  0.00  0.00    +0.037 A 
ATOM     16  C   UNL     1      67.625  52.561  16.871  0.00  0.00    +0.013 A 
ATOM     17  C   UNL     1      67.618  52.040  15.527  0.00  0.00    +0.005 A 
ATOM     18  C   UNL     1      67.135  52.882  14.436  0.00  0.00    -0.033 A 
ATOM     28  C   UNL     1      66.669  54.228  14.726  0.00  0.00    +0.005 A 
ATOM     29  C   UNL     1      66.676  54.742  16.042  0.00  0.00    +0.013 A 
BRANCH  18  19
ATOM     19  C   UNL     1      67.111  52.417  12.968  0.00  0.00    +0.119 C 
BRANCH  19  20
ATOM     20  N   UNL     1      68.366  51.820  12.419  0.00  0.00    -0.302 NA
ATOM     21  C   UNL     1      68.471  50.323  12.724  0.00  0.00    +0.066 C 
ATOM     22  C   UNL     1      69.777  49.710  12.124  0.00  0.00    -0.064 C 
ATOM     23  N   UNL     1      70.990  50.461  12.676  0.00  0.00    +0.379 N 
ATOM     24  C   UNL     1      72.223  49.850  12.158  0.00  0.00    -0.096 C 
ATOM     25  H   UNL     1      70.990  50.337  13.783  0.00  0.00    -0.082 HD
ATOM     26  C   UNL     1      70.893  51.951  12.379  0.00  0.00    -0.064 C 
ATOM     27  C   UNL     1      69.576  52.544  12.954  0.00  0.00    +0.066 C 
ENDBRANCH  19  20
ENDBRANCH  18  19
ENDBRANCH  14  15
ENDBRANCH  12  13
TORSDOF 6
ENDMDL
MODEL 3
REMARK VINA RESULT:      -7.6      1.236      1.800
REMARK  Name = C:\Users\Docking\Desktop\test protocol\1iep_ligandH.pdb
REMARK  8 active torsions:
REMARK  status: ('A' for Active; 'I' for Inactive)
REMARK    1  A    between atoms: _5  and  _11
REMARK    2  A    between atoms: _19  and  _21
REMARK    3  A    between atoms: _22  and  _66
REMARK    4  A    between atoms: _27  and  _30
REMARK    5  A    between atoms: _32  and  _33
REMARK    6  A    between atoms: _38  and  _43
REMARK    7  A    between atoms: _43  and  _46
REMARK    8  A    between atoms: _53  and  _55
REMARK                            x       y       z     vdW  Elec       q    Type
REMARK                         _______ _______ _______ _____ _____    ______ ____
ROOT
ATOM     10  C   UNL     1      69.240  55.715  17.703  0.00  0.00    +0.038 A 
ATOM     11  C   UNL     1      69.712  56.937  17.159  0.00  0.00    +0.047 A 
ATOM     12  C   UNL     1      69.533  58.195  17.867  0.00  0.00    +0.035 A 
ATOM     32  C   UNL     1      68.871  58.171  19.129  0.00  0.00    +0.024 A 
ATOM     33  C   UNL     1      68.384  56.939  19.696  0.00  0.00    +0.007 A 
ATOM     34  C   UNL     1      68.555  55.695  19.001  0.00  0.00    -0.029 A 
ATOM     35  C   UNL     1      68.007  54.405  19.654  0.00  0.00    +0.045 C 
ENDROOT
BRANCH  10   9
ATOM      4  C   UNL     1      68.071  52.651  14.198  0.00  0.00    +0.077 A 
ATOM      5  C   UNL     1      66.954  53.453  13.789  0.00  0.00    +0.048 A 
ATOM      6  C   UNL     1      66.709  54.642  14.512  0.00  0.00    +0.116 A 
ATOM      7  N   UNL     1      67.529  54.994  15.563  0.00  0.00    -0.223 NA
ATOM      8  C   UNL     1      68.597  54.198  15.932  0.00  0.00    +0.220 A 
ATOM      9  N   UNL     1      69.439  54.537  16.980  0.00  0.00    -0.283 N 
ATOM     36  H   UNL     1      70.212  53.919  17.226  0.00  0.00    +0.155 HD
ATOM     37  N   UNL     1      68.850  53.056  15.258  0.00  0.00    -0.214 NA
BRANCH   4   3
ATOM      1  C   UNL     1      68.065  48.949  12.935  0.00  0.00    +0.020 A 
ATOM      2  C   UNL     1      67.644  50.162  13.598  0.00  0.00    +0.013 A 
ATOM      3  C   UNL     1      68.460  51.368  13.531  0.00  0.00    +0.019 A 
ATOM     38  C   UNL     1      69.705  51.313  12.780  0.00  0.00    +0.120 A 
ATOM     39  N   UNL     1      70.085  50.130  12.154  0.00  0.00    -0.263 NA
ATOM     40  C   UNL     1      69.309  48.963  12.212  0.00  0.00    +0.111 A 
ENDBRANCH   4   3
ENDBRANCH  10   9
BRANCH  12  13
ATOM     13  N   UNL     1      69.984  59.467  17.361  0.00  0.00    -0.281 N 
ATOM     14  C   UNL     1      71.176  60.119  17.634  0.00  0.00    +0.248 C 
ATOM     30  O   UNL     1      71.947  59.803  18.527  0.00  0.00    -0.270 OA
ATOM     31  H   UNL     1      69.348  59.946  16.723  0.00  0.00    +0.155 HD
BRANCH  14  15
ATOM     15  C   UNL     1      71.560  61.301  16.803  0.00  0.00    +0.037 A 
ATOM     16  C   UNL     1      71.473  62.663  17.334  0.00  0.00    +0.013 A 
ATOM     17  C   UNL     1      71.833  63.787  16.506  0.00  0.00    +0.005 A 
ATOM     18  C   UNL     1      72.285  63.551  15.137  0.00  0.00    -0.033 A 
ATOM     28  C   UNL     1      72.367  62.189  14.637  0.00  0.00    +0.005 A 
ATOM     29  C   UNL     1      72.014  61.085  15.446  0.00  0.00    +0.013 A 
BRANCH  18  19
ATOM     19  C   UNL     1      72.669  64.691  14.175  0.00  0.00    +0.119 C 
BRANCH  19  20
ATOM     20  N   UNL     1      73.056  64.311  12.784  0.00  0.00    -0.302 NA
ATOM     21  C   UNL     1      73.839  65.424  12.081  0.00  0.00    +0.066 C 
ATOM     22  C   UNL     1      74.256  65.000  10.634  0.00  0.00    -0.064 C 
ATOM     23  N   UNL     1      73.005  64.629   9.835  0.00  0.00    +0.379 N 
ATOM     24  C   UNL     1      73.388  64.287   8.457  0.00  0.00    -0.096 C 
ATOM     25  H   UNL     1      72.353  65.532   9.790  0.00  0.00    -0.082 HD
ATOM     26  C   UNL     1      72.220  63.525  10.528  0.00  0.00    -0.064 C 
ATOM     27  C   UNL     1      71.836  63.945  11.975  0.00  0.00    +0.066 C 
ENDBRANCH  19  20
ENDBRANCH  18  19
ENDBRANCH  14  15
ENDBRANCH  12  13
TORSDOF 6
ENDMDL
MODEL 4
REMARK VINA RESULT:      -7.5      3.390     12.208
REMARK  Name = C:\Users\Docking\Desktop\test protocol\1iep_ligandH.pdb
REMARK  8 active torsions:
REMARK  status: ('A' for Active; 'I' for Inactive)
REMARK    1  A    between atoms: _5  and  _11
REMARK    2  A    between atoms: _19  and  _21
REMARK    3  A    between atoms: _22  and  _66
REMARK    4  A    between atoms: _27  and  _30
REMARK    5  A    between atoms: _32  and  _33
REMARK    6  A    between atoms: _38  and  _43
REMARK    7  A    between atoms: _43  and  _46
REMARK    8  A    between atoms: _53  and  _55
REMARK                            x       y       z     vdW  Elec       q    Type
REMARK                         _______ _______ _______ _____ _____    ______ ____
ROOT
ATOM     10  C   UNL     1      72.468  63.845  13.339  0.00  0.00    +0.038 A 
ATOM     11  C   UNL     1      72.067  62.586  13.853  0.00  0.00    +0.047 A 
ATOM     12  C   UNL     1      72.699  62.019  15.034  0.00  0.00    +0.035 A 
ATOM     32  C   UNL     1      73.737  62.764  15.668  0.00  0.00    +0.024 A 
ATOM     33  C   UNL     1      74.158  64.045  15.158  0.00  0.00    +0.007 A 
ATOM     34  C   UNL     1      73.539  64.608  13.992  0.00  0.00    -0.029 A 
ATOM     35  C   UNL     1      74.035  65.982  13.485  0.00  0.00    +0.045 C 
ENDROOT
BRANCH  10   9
ATOM      4  C   UNL     1      72.244  64.635   8.610  0.00  0.00    +0.077 A 
ATOM      5  C   UNL     1      73.526  64.032   8.388  0.00  0.00    +0.048 A 
ATOM      6  C   UNL     1      74.214  63.537   9.519  0.00  0.00    +0.116 A 
ATOM      7  N   UNL     1      73.652  63.642  10.772  0.00  0.00    -0.223 NA
ATOM      8  C   UNL     1      72.414  64.232  10.951  0.00  0.00    +0.220 A 
ATOM      9  N   UNL     1      71.826  64.342  12.202  0.00  0.00    -0.283 N 
ATOM     36  H   UNL     1      70.914  64.790  12.293  0.00  0.00    +0.155 HD
ATOM     37  N   UNL     1      71.737  64.713   9.888  0.00  0.00    -0.214 NA
BRANCH   4   3
ATOM      1  C   UNL     1      69.221  65.401   6.247  0.00  0.00    +0.020 A 
ATOM      2  C   UNL     1      69.999  64.824   7.320  0.00  0.00    +0.013 A 
ATOM      3  C   UNL     1      71.393  65.202   7.516  0.00  0.00    +0.019 A 
ATOM     38  C   UNL     1      71.975  66.174   6.603  0.00  0.00    +0.120 A 
ATOM     39  N   UNL     1      71.202  66.712   5.578  0.00  0.00    -0.263 NA
ATOM     40  C   UNL     1      69.860  66.355   5.379  0.00  0.00    +0.111 A 
ENDBRANCH   4   3
ENDBRANCH  10   9
BRANCH  12  13
ATOM     13  N   UNL     1      72.340  60.742  15.598  0.00  0.00    -0.281 N 
ATOM     14  C   UNL     1      71.425  60.482  16.605  0.00  0.00    +0.248 C 
ATOM     30  O   UNL     1      70.931  61.336  17.326  0.00  0.00    -0.270 OA
ATOM     31  H   UNL     1      72.817  59.930  15.206  0.00  0.00    +0.155 HD
BRANCH  14  15
ATOM     15  C   UNL     1      71.011  59.069  16.858  0.00  0.00    +0.037 A 
ATOM     16  C   UNL     1      71.630  57.955  16.136  0.00  0.00    +0.013 A 
ATOM     17  C   UNL     1      71.200  56.602  16.387  0.00  0.00    +0.005 A 
ATOM     18  C   UNL     1      70.144  56.356  17.367  0.00  0.00    -0.033 A 
ATOM     28  C   UNL     1      69.551  57.480  18.072  0.00  0.00    +0.005 A 
ATOM     29  C   UNL     1      69.969  58.807  17.829  0.00  0.00    +0.013 A 
BRANCH  18  19
ATOM     19  C   UNL     1      69.608  54.947  17.682  0.00  0.00    +0.119 C 
BRANCH  19  20
ATOM     20  N   UNL     1      69.041  54.161  16.546  0.00  0.00    -0.302 NA
ATOM     21  C   UNL     1      68.124  55.009  15.661  0.00  0.00    +0.066 C 
ATOM     22  C   UNL     1      67.558  54.177  14.465  0.00  0.00    -0.064 C 
ATOM     23  N   UNL     1      66.811  52.956  15.005  0.00  0.00    +0.379 N 
ATOM     24  C   UNL     1      66.228  52.203  13.885  0.00  0.00    -0.096 C 
ATOM     25  H   UNL     1      65.971  53.327  15.637  0.00  0.00    -0.082 HD
ATOM     26  C   UNL     1      67.715  52.108  15.889  0.00  0.00    -0.064 C 
ATOM     27  C   UNL     1      68.295  52.953  17.057  0.00  0.00    +0.066 C 
ENDBRANCH  19  20
ENDBRANCH  18  19
ENDBRANCH  14  15
ENDBRANCH  12  13
TORSDOF 6
ENDMDL
MODEL 5
REMARK VINA RESULT:      -7.5     15.209     19.024
REMARK  Name = C:\Users\Docking\Desktop\test protocol\1iep_ligandH.pdb
REMARK  8 active torsions:
REMARK  status: ('A' for Active; 'I' for Inactive)
REMARK    1  A    between atoms: _5  and  _11
REMARK    2  A    between atoms: _19  and  _21
REMARK    3  A    between atoms: _22  and  _66
REMARK    4  A    between atoms: _27  and  _30
REMARK    5  A    between atoms: _32  and  _33
REMARK    6  A    between atoms: _38  and  _43
REMARK    7  A    between atoms: _43  and  _46
REMARK    8  A    between atoms: _53  and  _55
REMARK                            x       y       z     vdW  Elec       q    Type
REMARK                         _______ _______ _______ _____ _____    ______ ____
ROOT
ATOM     10  C   UNL     1      76.727  70.517   5.261  0.00  0.00    +0.038 A 
ATOM     11  C   UNL     1      75.371  70.143   5.085  0.00  0.00    +0.047 A 
ATOM     12  C   UNL     1      74.604  70.609   3.940  0.00  0.00    +0.035 A 
ATOM     32  C   UNL     1      75.251  71.455   2.993  0.00  0.00    +0.024 A 
ATOM     33  C   UNL     1      76.629  71.847   3.157  0.00  0.00    +0.007 A 
ATOM     34  C   UNL     1      77.390  71.391   4.286  0.00  0.00    -0.029 A 
ATOM     35  C   UNL     1      78.861  71.848   4.414  0.00  0.00    +0.045 C 
ENDROOT
BRANCH  10   9
ATOM      4  C   UNL     1      78.273  70.950   9.785  0.00  0.00    +0.077 A 
ATOM      5  C   UNL     1      77.680  72.249   9.925  0.00  0.00    +0.048 A 
ATOM      6  C   UNL     1      76.993  72.773   8.807  0.00  0.00    +0.116 A 
ATOM      7  N   UNL     1      76.910  72.044   7.641  0.00  0.00    -0.223 NA
ATOM      8  C   UNL     1      77.494  70.795   7.539  0.00  0.00    +0.220 A 
ATOM      9  N   UNL     1      77.416  70.040   6.378  0.00  0.00    -0.283 N 
ATOM     36  H   UNL     1      77.867  69.126   6.340  0.00  0.00    +0.155 HD
ATOM     37  N   UNL     1      78.157  70.273   8.591  0.00  0.00    -0.214 NA
BRANCH   4   3
ATOM      1  C   UNL     1      80.813  68.683  11.711  0.00  0.00    +0.020 A 
ATOM      2  C   UNL     1      80.114  69.322  10.620  0.00  0.00    +0.013 A 
ATOM      3  C   UNL     1      79.029  70.261  10.877  0.00  0.00    +0.019 A 
ATOM     38  C   UNL     1      78.674  70.534  12.262  0.00  0.00    +0.120 A 
ATOM     39  N   UNL     1      79.364  69.903  13.292  0.00  0.00    -0.263 NA
ATOM     40  C   UNL     1      80.408  68.997  13.056  0.00  0.00    +0.111 A 
ENDBRANCH   4   3
ENDBRANCH  10   9
BRANCH  12  13
ATOM     13  N   UNL     1      73.221  70.269   3.713  0.00  0.00    -0.281 N 
ATOM     14  C   UNL     1      72.713  69.121   3.127  0.00  0.00    +0.248 C 
ATOM     30  O   UNL     1      73.382  68.303   2.514  0.00  0.00    -0.270 OA
ATOM     31  H   UNL     1      72.535  70.957   4.021  0.00  0.00    +0.155 HD
BRANCH  14  15
ATOM     15  C   UNL     1      71.246  68.850   3.225  0.00  0.00    +0.037 A 
ATOM     16  C   UNL     1      70.288  69.522   2.344  0.00  0.00    +0.013 A 
ATOM     17  C   UNL     1      68.877  69.255   2.471  0.00  0.00    +0.005 A 
ATOM     18  C   UNL     1      68.416  68.309   3.484  0.00  0.00    -0.033 A 
ATOM     28  C   UNL     1      69.388  67.652   4.341  0.00  0.00    +0.005 A 
ATOM     29  C   UNL     1      70.772  67.912   4.220  0.00  0.00    +0.013 A 
BRANCH  18  19
ATOM     19  C   UNL     1      66.928  67.979   3.704  0.00  0.00    +0.119 C 
BRANCH  19  20
ATOM     20  N   UNL     1      65.994  68.241   2.569  0.00  0.00    -0.302 NA
ATOM     21  C   UNL     1      64.551  67.858   2.911  0.00  0.00    +0.066 C 
ATOM     22  C   UNL     1      63.584  68.160   1.720  0.00  0.00    -0.064 C 
ATOM     23  N   UNL     1      64.063  67.410   0.476  0.00  0.00    +0.379 N 
ATOM     24  C   UNL     1      63.123  67.645  -0.630  0.00  0.00    -0.096 C 
ATOM     25  H   UNL     1      64.044  66.320   0.710  0.00  0.00    -0.082 HD
ATOM     26  C   UNL     1      65.498  67.782   0.130  0.00  0.00    -0.064 C 
ATOM     27  C   UNL     1      66.445  67.506   1.330  0.00  0.00    +0.066 C 
ENDBRANCH  19  20
ENDBRANCH  18  19
ENDBRANCH  14  15
ENDBRANCH  12  13
TORSDOF 6
ENDMDL
