MODEL 1
REMARK VINA RESULT:      -8.0      0.000      0.000
REMARK  Name = C:\Users\Docking\Desktop\test protocol\1iep_ligandH.pdb
REMARK  8 active torsions:
REMARK  status: ('A' for Active; 'I' for Inactive)
REMARK    1  A    between atoms: _5  and  _11
REMARK    2  A    between atoms: _19  and  _21
REMARK    3  A    between atoms: _22  and  _66
REMARK    4  A    between atoms: _27  and  _30
REMARK    5  A    between atoms: _32  and  _33
REMARK    6  A    between atoms: _38  and  _43
REMARK    7  A    between atoms: _43  and  _46
REMARK    8  A    between atoms: _53  and  _55
REMARK                            x       y       z     vdW  Elec       q    Type
REMARK                         _______ _______ _______ _____ _____    ______ ____
ROOT
ATOM     10  C   UNL     1      22.501   4.570  11.779  0.00  0.00    +0.038 A 
ATOM     11  C   UNL     1      21.682   5.121  10.761  0.00  0.00    +0.047 A 
ATOM     12  C   UNL     1      22.185   6.149   9.863  0.00  0.00    +0.035 A 
ATOM     32  C   UNL     1      23.530   6.590  10.029  0.00  0.00    +0.024 A 
ATOM     33  C   UNL     1      24.377   6.042  11.059  0.00  0.00    +0.007 A 
ATOM     34  C   UNL     1      23.885   5.030  11.949  0.00  0.00    -0.029 A 
ATOM     35  C   UNL     1      24.835   4.483  13.039  0.00  0.00    +0.045 C 
ENDROOT
BRANCH  10   9
ATOM      4  C   UNL     1      20.495   3.148  15.901  0.00  0.00    +0.077 A 
ATOM      5  C   UNL     1      20.542   4.472  16.449  0.00  0.00    +0.048 A 
ATOM      6  C   UNL     1      21.096   5.490  15.641  0.00  0.00    +0.116 A 
ATOM      7  N   UNL     1      21.565   5.194  14.380  0.00  0.00    -0.223 NA
ATOM      8  C   UNL     1      21.507   3.905  13.882  0.00  0.00    +0.220 A 
ATOM      9  N   UNL     1      21.966   3.586  12.613  0.00  0.00    -0.283 N 
ATOM     36  H   UNL     1      21.912   2.622  12.285  0.00  0.00    +0.155 HD
ATOM     37  N   UNL     1      20.984   2.915  14.635  0.00  0.00    -0.214 NA
BRANCH   4   3
ATOM      1  C   UNL     1      18.234   0.868  18.135  0.00  0.00    +0.020 A 
ATOM      2  C   UNL     1      18.733   2.038  17.451  0.00  0.00    +0.013 A 
ATOM      3  C   UNL     1      19.936   1.966  16.631  0.00  0.00    +0.019 A 
ATOM     38  C   UNL     1      20.616   0.684  16.524  0.00  0.00    +0.120 A 
ATOM     39  N   UNL     1      20.113  -0.426  17.195  0.00  0.00    -0.263 NA
ATOM     40  C   UNL     1      18.957  -0.368  17.988  0.00  0.00    +0.111 A 
ENDBRANCH   4   3
ENDBRANCH  10   9
BRANCH  12  13
ATOM     13  N   UNL     1      21.397   6.751   8.817  0.00  0.00    -0.281 N 
ATOM     14  C   UNL     1      20.172   6.331   8.325  0.00  0.00    +0.248 C 
ATOM     30  O   UNL     1      19.665   5.246   8.566  0.00  0.00    -0.270 OA
ATOM     31  H   UNL     1      21.790   7.588   8.386  0.00  0.00    +0.155 HD
BRANCH  14  15
ATOM     15  C   UNL     1      19.405   7.244   7.423  0.00  0.00    +0.037 A 
ATOM     16  C   UNL     1      18.423   8.191   7.957  0.00  0.00    +0.013 A 
ATOM     17  C   UNL     1      17.685   9.048   7.064  0.00  0.00    +0.005 A 
ATOM     18  C   UNL     1      17.927   8.962   5.626  0.00  0.00    -0.033 A 
ATOM     28  C   UNL     1      18.910   8.017   5.123  0.00  0.00    +0.005 A 
ATOM     29  C   UNL     1      19.635   7.175   5.996  0.00  0.00    +0.013 A 
BRANCH  18  19
ATOM     19  C   UNL     1      17.170   9.823   4.597  0.00  0.00    +0.119 C 
BRANCH  19  20
ATOM     20  N   UNL     1      17.696   9.840   3.200  0.00  0.00    -0.302 NA
ATOM     21  C   UNL     1      18.608  11.044   2.944  0.00  0.00    +0.066 C 
ATOM     22  C   UNL     1      19.167  11.034   1.484  0.00  0.00    -0.064 C 
ATOM     23  N   UNL     1      18.002  11.017   0.494  0.00  0.00    +0.379 N 
ATOM     24  C   UNL     1      18.524  11.066  -0.879  0.00  0.00    -0.096 C 
ATOM     25  H   UNL     1      17.403  11.942   0.662  0.00  0.00    -0.082 HD
ATOM     26  C   UNL     1      17.089   9.824   0.743  0.00  0.00    -0.064 C 
ATOM     27  C   UNL     1      16.562   9.828   2.205  0.00  0.00    +0.066 C 
ENDBRANCH  19  20
ENDBRANCH  18  19
ENDBRANCH  14  15
ENDBRANCH  12  13
TORSDOF 6
ENDMDL
MODEL 2
REMARK VINA RESULT:      -7.9      5.429     10.722
REMARK  Name = C:\Users\Docking\Desktop\test protocol\1iep_ligandH.pdb
REMARK  8 active torsions:
REMARK  status: ('A' for Active; 'I' for Inactive)
REMARK    1  A    between atoms: _5  and  _11
REMARK    2  A    between atoms: _19  and  _21
REMARK    3  A    between atoms: _22  and  _66
REMARK    4  A    between atoms: _27  and  _30
REMARK    5  A    between atoms: _32  and  _33
REMARK    6  A    between atoms: _38  and  _43
REMARK    7  A    between atoms: _43  and  _46
REMARK    8  A    between atoms: _53  and  _55
REMARK                            x       y       z     vdW  Elec       q    Type
REMARK                         _______ _______ _______ _____ _____    ______ ____
ROOT
ATOM     10  C   UNL     1      18.035  -2.627  17.768  0.00  0.00    +0.038 A 
ATOM     11  C   UNL     1      18.445  -1.400  17.189  0.00  0.00    +0.047 A 
ATOM     12  C   UNL     1      18.280  -0.140  17.897  0.00  0.00    +0.035 A 
ATOM     32  C   UNL     1      17.694  -0.168  19.197  0.00  0.00    +0.024 A 
ATOM     33  C   UNL     1      17.270  -1.407  19.801  0.00  0.00    +0.007 A 
ATOM     34  C   UNL     1      17.429  -2.652  19.105  0.00  0.00    -0.029 A 
ATOM     35  C   UNL     1      16.950  -3.949  19.798  0.00  0.00    +0.045 C 
ENDROOT
BRANCH  10   9
ATOM      4  C   UNL     1      16.843  -5.653  14.238  0.00  0.00    +0.077 A 
ATOM      5  C   UNL     1      15.748  -4.827  13.819  0.00  0.00    +0.048 A 
ATOM      6  C   UNL     1      15.520  -3.635  14.544  0.00  0.00    +0.116 A 
ATOM      7  N   UNL     1      16.334  -3.304  15.605  0.00  0.00    -0.223 NA
ATOM      8  C   UNL     1      17.381  -4.124  15.984  0.00  0.00    +0.220 A 
ATOM      9  N   UNL     1      18.217  -3.807  17.043  0.00  0.00    -0.283 N 
ATOM     36  H   UNL     1      18.974  -4.442  17.296  0.00  0.00    +0.155 HD
ATOM     37  N   UNL     1      17.618  -5.268  15.309  0.00  0.00    -0.214 NA
BRANCH   4   3
ATOM      1  C   UNL     1      16.794  -9.361  12.993  0.00  0.00    +0.020 A 
ATOM      2  C   UNL     1      16.392  -8.142  13.657  0.00  0.00    +0.013 A 
ATOM      3  C   UNL     1      17.213  -6.941  13.571  0.00  0.00    +0.019 A 
ATOM     38  C   UNL     1      18.444  -7.007  12.798  0.00  0.00    +0.120 A 
ATOM     39  N   UNL     1      18.807  -8.195  12.171  0.00  0.00    -0.263 NA
ATOM     40  C   UNL     1      18.026  -9.358  12.249  0.00  0.00    +0.111 A 
ENDBRANCH   4   3
ENDBRANCH  10   9
BRANCH  12  13
ATOM     13  N   UNL     1      18.670   1.138  17.356  0.00  0.00    -0.281 N 
ATOM     14  C   UNL     1      19.867   1.811  17.541  0.00  0.00    +0.248 C 
ATOM     30  O   UNL     1      20.705   1.513  18.379  0.00  0.00    -0.270 OA
ATOM     31  H   UNL     1      17.981   1.603  16.765  0.00  0.00    +0.155 HD
BRANCH  14  15
ATOM     15  C   UNL     1      20.169   2.996  16.682  0.00  0.00    +0.037 A 
ATOM     16  C   UNL     1      20.434   4.313  17.268  0.00  0.00    +0.013 A 
ATOM     17  C   UNL     1      20.706   5.443  16.415  0.00  0.00    +0.005 A 
ATOM     18  C   UNL     1      20.715   5.260  14.966  0.00  0.00    -0.033 A 
ATOM     28  C   UNL     1      20.454   3.942  14.411  0.00  0.00    +0.005 A 
ATOM     29  C   UNL     1      20.186   2.832  15.244  0.00  0.00    +0.013 A 
BRANCH  18  19
ATOM     19  C   UNL     1      20.975   6.414  13.979  0.00  0.00    +0.119 C 
BRANCH  19  20
ATOM     20  N   UNL     1      21.623   6.069  12.679  0.00  0.00    -0.302 NA
ATOM     21  C   UNL     1      22.576   7.168  12.202  0.00  0.00    +0.066 C 
ATOM     22  C   UNL     1      23.262   6.781  10.851  0.00  0.00    -0.064 C 
ATOM     23  N   UNL     1      22.188   6.501   9.799  0.00  0.00    +0.379 N 
ATOM     24  C   UNL     1      22.830   6.193   8.513  0.00  0.00    -0.096 C 
ATOM     25  H   UNL     1      21.594   7.435   9.665  0.00  0.00    -0.082 HD
ATOM     26  C   UNL     1      21.235   5.410  10.266  0.00  0.00    -0.064 C 
ATOM     27  C   UNL     1      20.581   5.792  11.623  0.00  0.00    +0.066 C 
ENDBRANCH  19  20
ENDBRANCH  18  19
ENDBRANCH  14  15
ENDBRANCH  12  13
TORSDOF 6
ENDMDL
MODEL 3
REMARK VINA RESULT:      -7.9      8.818     15.531
REMARK  Name = C:\Users\Docking\Desktop\test protocol\1iep_ligandH.pdb
REMARK  8 active torsions:
REMARK  status: ('A' for Active; 'I' for Inactive)
REMARK    1  A    between atoms: _5  and  _11
REMARK    2  A    between atoms: _19  and  _21
REMARK    3  A    between atoms: _22  and  _66
REMARK    4  A    between atoms: _27  and  _30
REMARK    5  A    between atoms: _32  and  _33
REMARK    6  A    between atoms: _38  and  _43
REMARK    7  A    between atoms: _43  and  _46
REMARK    8  A    between atoms: _53  and  _55
REMARK                            x       y       z     vdW  Elec       q    Type
REMARK                         _______ _______ _______ _____ _____    ______ ____
ROOT
ATOM     10  C   UNL     1      13.757   9.200   1.173  0.00  0.00    +0.038 A 
ATOM     11  C   UNL     1      15.105   9.466   1.523  0.00  0.00    +0.047 A 
ATOM     12  C   UNL     1      15.456   9.958   2.846  0.00  0.00    +0.035 A 
ATOM     32  C   UNL     1      14.407  10.166   3.789  0.00  0.00    +0.024 A 
ATOM     33  C   UNL     1      13.031   9.902   3.449  0.00  0.00    +0.007 A 
ATOM     34  C   UNL     1      12.679   9.419   2.145  0.00  0.00    -0.029 A 
ATOM     35  C   UNL     1      11.187   9.159   1.834  0.00  0.00    +0.045 C 
ENDROOT
BRANCH  10   9
ATOM      4  C   UNL     1      12.442   9.881  -3.393  0.00  0.00    +0.077 A 
ATOM      5  C   UNL     1      12.271  11.292  -3.195  0.00  0.00    +0.048 A 
ATOM      6  C   UNL     1      12.525  11.801  -1.902  0.00  0.00    +0.116 A 
ATOM      7  N   UNL     1      12.920  10.954  -0.890  0.00  0.00    -0.223 NA
ATOM      8  C   UNL     1      13.073   9.598  -1.114  0.00  0.00    +0.220 A 
ATOM      9  N   UNL     1      13.477   8.729  -0.112  0.00  0.00    -0.283 N 
ATOM     36  H   UNL     1      13.571   7.734  -0.316  0.00  0.00    +0.155 HD
ATOM     37  N   UNL     1      12.835   9.087  -2.339  0.00  0.00    -0.214 NA
BRANCH   4   3
ATOM      1  C   UNL     1      12.746   8.784  -7.135  0.00  0.00    +0.020 A 
ATOM      2  C   UNL     1      13.006   9.477  -5.894  0.00  0.00    +0.013 A 
ATOM      3  C   UNL     1      12.215   9.194  -4.703  0.00  0.00    +0.019 A 
ATOM     38  C   UNL     1      11.160   8.195  -4.802  0.00  0.00    +0.120 A 
ATOM     39  N   UNL     1      10.932   7.546  -6.011  0.00  0.00    -0.263 NA
ATOM     40  C   UNL     1      11.686   7.811  -7.164  0.00  0.00    +0.111 A 
ENDBRANCH   4   3
ENDBRANCH  10   9
BRANCH  12  13
ATOM     13  N   UNL     1      16.806  10.253   3.257  0.00  0.00    -0.281 N 
ATOM     14  C   UNL     1      17.507   9.719   4.326  0.00  0.00    +0.248 C 
ATOM     30  O   UNL     1      17.003   9.061   5.223  0.00  0.00    -0.270 OA
ATOM     31  H   UNL     1      17.306  10.939   2.690  0.00  0.00    +0.155 HD
BRANCH  14  15
ATOM     15  C   UNL     1      18.979   9.965   4.419  0.00  0.00    +0.037 A 
ATOM     16  C   UNL     1      19.758   9.488   5.564  0.00  0.00    +0.013 A 
ATOM     17  C   UNL     1      21.173   9.752   5.637  0.00  0.00    +0.005 A 
ATOM     18  C   UNL     1      21.818  10.498   4.559  0.00  0.00    -0.033 A 
ATOM     28  C   UNL     1      21.023  10.955   3.432  0.00  0.00    +0.005 A 
ATOM     29  C   UNL     1      19.635  10.698   3.357  0.00  0.00    +0.013 A 
BRANCH  18  19
ATOM     19  C   UNL     1      23.319  10.844   4.564  0.00  0.00    +0.119 C 
BRANCH  19  20
ATOM     20  N   UNL     1      23.764  11.945   5.470  0.00  0.00    -0.302 NA
ATOM     21  C   UNL     1      23.660  13.318   4.799  0.00  0.00    +0.066 C 
ATOM     22  C   UNL     1      24.108  14.460   5.768  0.00  0.00    -0.064 C 
ATOM     23  N   UNL     1      25.539  14.194   6.239  0.00  0.00    +0.379 N 
ATOM     24  C   UNL     1      25.983  15.296   7.104  0.00  0.00    -0.096 C 
ATOM     25  H   UNL     1      26.195  14.185   5.338  0.00  0.00    -0.082 HD
ATOM     26  C   UNL     1      25.651  12.830   6.905  0.00  0.00    -0.064 C 
ATOM     27  C   UNL     1      25.176  11.704   5.944  0.00  0.00    +0.066 C 
ENDBRANCH  19  20
ENDBRANCH  18  19
ENDBRANCH  14  15
ENDBRANCH  12  13
TORSDOF 6
ENDMDL
MODEL 4
REMARK VINA RESULT:      -7.8      7.169     15.006
REMARK  Name = C:\Users\Docking\Desktop\test protocol\1iep_ligandH.pdb
REMARK  8 active torsions:
REMARK  status: ('A' for Active; 'I' for Inactive)
REMARK    1  A    between atoms: _5  and  _11
REMARK    2  A    between atoms: _19  and  _21
REMARK    3  A    between atoms: _22  and  _66
REMARK    4  A    between atoms: _27  and  _30
REMARK    5  A    between atoms: _32  and  _33
REMARK    6  A    between atoms: _38  and  _43
REMARK    7  A    between atoms: _43  and  _46
REMARK    8  A    between atoms: _53  and  _55
REMARK                            x       y       z     vdW  Elec       q    Type
REMARK                         _______ _______ _______ _____ _____    ______ ____
ROOT
ATOM     10  C   UNL     1      18.516  -0.070  16.788  0.00  0.00    +0.038 A 
ATOM     11  C   UNL     1      18.283  -1.259  16.051  0.00  0.00    +0.047 A 
ATOM     12  C   UNL     1      18.040  -2.526  16.723  0.00  0.00    +0.035 A 
ATOM     32  C   UNL     1      18.039  -2.545  18.148  0.00  0.00    +0.024 A 
ATOM     33  C   UNL     1      18.275  -1.346  18.913  0.00  0.00    +0.007 A 
ATOM     34  C   UNL     1      18.518  -0.094  18.256  0.00  0.00    -0.029 A 
ATOM     35  C   UNL     1      18.771   1.158  19.127  0.00  0.00    +0.045 C 
ENDROOT
BRANCH  10   9
ATOM      4  C   UNL     1      21.419   3.062  14.596  0.00  0.00    +0.077 A 
ATOM      5  C   UNL     1      22.583   2.276  14.887  0.00  0.00    +0.048 A 
ATOM      6  C   UNL     1      22.393   1.077  15.609  0.00  0.00    +0.116 A 
ATOM      7  N   UNL     1      21.128   0.700  16.005  0.00  0.00    -0.223 NA
ATOM      8  C   UNL     1      20.026   1.482  15.710  0.00  0.00    +0.220 A 
ATOM      9  N   UNL     1      18.744   1.119  16.091  0.00  0.00    -0.283 N 
ATOM     36  H   UNL     1      17.958   1.726  15.860  0.00  0.00    +0.155 HD
ATOM     37  N   UNL     1      20.182   2.632  15.022  0.00  0.00    -0.214 NA
BRANCH   4   3
ATOM      1  C   UNL     1      20.493   6.015  12.204  0.00  0.00    +0.020 A 
ATOM      2  C   UNL     1      20.408   4.757  12.910  0.00  0.00    +0.013 A 
ATOM      3  C   UNL     1      21.457   4.352  13.839  0.00  0.00    +0.019 A 
ATOM     38  C   UNL     1      22.585   5.250  14.032  0.00  0.00    +0.120 A 
ATOM     39  N   UNL     1      22.640   6.454  13.337  0.00  0.00    -0.263 NA
ATOM     40  C   UNL     1      21.638   6.854  12.440  0.00  0.00    +0.111 A 
ENDBRANCH   4   3
ENDBRANCH  10   9
BRANCH  12  13
ATOM     13  N   UNL     1      17.806  -3.767  16.027  0.00  0.00    -0.281 N 
ATOM     14  C   UNL     1      16.842  -4.038  15.070  0.00  0.00    +0.248 C 
ATOM     30  O   UNL     1      15.893  -3.310  14.820  0.00  0.00    -0.270 OA
ATOM     31  H   UNL     1      18.426  -4.540  16.270  0.00  0.00    +0.155 HD
BRANCH  14  15
ATOM     15  C   UNL     1      16.938  -5.307  14.287  0.00  0.00    +0.037 A 
ATOM     16  C   UNL     1      18.108  -5.600  13.455  0.00  0.00    +0.013 A 
ATOM     17  C   UNL     1      18.168  -6.824  12.696  0.00  0.00    +0.005 A 
ATOM     18  C   UNL     1      17.054  -7.766  12.768  0.00  0.00    -0.033 A 
ATOM     28  C   UNL     1      15.908  -7.453  13.605  0.00  0.00    +0.005 A 
ATOM     29  C   UNL     1      15.845  -6.254  14.349  0.00  0.00    +0.013 A 
BRANCH  18  19
ATOM     19  C   UNL     1      17.023  -9.087  11.976  0.00  0.00    +0.119 C 
BRANCH  19  20
ATOM     20  N   UNL     1      16.573 -10.311  12.704  0.00  0.00    -0.302 NA
ATOM     21  C   UNL     1      17.542 -10.701  13.824  0.00  0.00    +0.066 C 
ATOM     22  C   UNL     1      17.045 -11.970  14.591  0.00  0.00    -0.064 C 
ATOM     23  N   UNL     1      16.868 -13.123  13.601  0.00  0.00    +0.379 N 
ATOM     24  C   UNL     1      16.456 -14.333  14.327  0.00  0.00    -0.096 C 
ATOM     25  H   UNL     1      17.862 -13.327  13.139  0.00  0.00    -0.082 HD
ATOM     26  C   UNL     1      15.909 -12.742  12.482  0.00  0.00    -0.064 C 
ATOM     27  C   UNL     1      16.397 -11.463  11.747  0.00  0.00    +0.066 C 
ENDBRANCH  19  20
ENDBRANCH  18  19
ENDBRANCH  14  15
ENDBRANCH  12  13
TORSDOF 6
ENDMDL
MODEL 5
REMARK VINA RESULT:      -7.8      6.719     11.076
REMARK  Name = C:\Users\Docking\Desktop\test protocol\1iep_ligandH.pdb
REMARK  8 active torsions:
REMARK  status: ('A' for Active; 'I' for Inactive)
REMARK    1  A    between atoms: _5  and  _11
REMARK    2  A    between atoms: _19  and  _21
REMARK    3  A    between atoms: _22  and  _66
REMARK    4  A    between atoms: _27  and  _30
REMARK    5  A    between atoms: _32  and  _33
REMARK    6  A    between atoms: _38  and  _43
REMARK    7  A    between atoms: _43  and  _46
REMARK    8  A    between atoms: _53  and  _55
REMARK                            x       y       z     vdW  Elec       q    Type
REMARK                         _______ _______ _______ _____ _____    ______ ____
ROOT
ATOM     10  C   UNL     1      18.025  -2.454  17.788  0.00  0.00    +0.038 A 
ATOM     11  C   UNL     1      18.482  -1.221  17.258  0.00  0.00    +0.047 A 
ATOM     12  C   UNL     1      18.291   0.027  17.981  0.00  0.00    +0.035 A 
ATOM     32  C   UNL     1      17.632  -0.019  19.245  0.00  0.00    +0.024 A 
ATOM     33  C   UNL     1      17.160  -1.264  19.798  0.00  0.00    +0.007 A 
ATOM     34  C   UNL     1      17.343  -2.497  19.088  0.00  0.00    -0.029 A 
ATOM     35  C   UNL     1      16.811  -3.801  19.726  0.00  0.00    +0.045 C 
ENDROOT
BRANCH  10   9
ATOM      4  C   UNL     1      16.863  -5.504  14.269  0.00  0.00    +0.077 A 
ATOM      5  C   UNL     1      15.725  -4.719  13.884  0.00  0.00    +0.048 A 
ATOM      6  C   UNL     1      15.469  -3.542  14.622  0.00  0.00    +0.116 A 
ATOM      7  N   UNL     1      16.297  -3.185  15.665  0.00  0.00    -0.223 NA
ATOM      8  C   UNL     1      17.385  -3.965  16.011  0.00  0.00    +0.220 A 
ATOM      9  N   UNL     1      18.235  -3.621  17.051  0.00  0.00    -0.283 N 
ATOM     36  H   UNL     1      19.022  -4.227  17.280  0.00  0.00    +0.155 HD
ATOM     37  N   UNL     1      17.649  -5.095  15.323  0.00  0.00    -0.214 NA
BRANCH   4   3
ATOM      1  C   UNL     1      16.893  -9.185  12.947  0.00  0.00    +0.020 A 
ATOM      2  C   UNL     1      16.459  -7.986  13.626  0.00  0.00    +0.013 A 
ATOM      3  C   UNL     1      17.265  -6.773  13.584  0.00  0.00    +0.019 A 
ATOM     38  C   UNL     1      18.515  -6.807  12.840  0.00  0.00    +0.120 A 
ATOM     39  N   UNL     1      18.908  -7.976  12.197  0.00  0.00    -0.263 NA
ATOM     40  C   UNL     1      18.141  -9.150  12.232  0.00  0.00    +0.111 A 
ENDBRANCH   4   3
ENDBRANCH  10   9
BRANCH  12  13
ATOM     13  N   UNL     1      18.726   1.310  17.489  0.00  0.00    -0.281 N 
ATOM     14  C   UNL     1      20.022   1.732  17.241  0.00  0.00    +0.248 C 
ATOM     30  O   UNL     1      21.024   1.139  17.610  0.00  0.00    -0.270 OA
ATOM     31  H   UNL     1      17.989   1.990  17.300  0.00  0.00    +0.155 HD
BRANCH  14  15
ATOM     15  C   UNL     1      20.235   3.005  16.487  0.00  0.00    +0.037 A 
ATOM     16  C   UNL     1      20.270   3.024  15.023  0.00  0.00    +0.013 A 
ATOM     17  C   UNL     1      20.494   4.263  14.321  0.00  0.00    +0.005 A 
ATOM     18  C   UNL     1      20.683   5.495  15.084  0.00  0.00    -0.033 A 
ATOM     28  C   UNL     1      20.639   5.448  16.536  0.00  0.00    +0.005 A 
ATOM     29  C   UNL     1      20.420   4.235  17.227  0.00  0.00    +0.013 A 
BRANCH  18  19
ATOM     19  C   UNL     1      20.949   6.858  14.419  0.00  0.00    +0.119 C 
BRANCH  19  20
ATOM     20  N   UNL     1      22.269   7.045  13.745  0.00  0.00    -0.302 NA
ATOM     21  C   UNL     1      23.165   8.032  14.500  0.00  0.00    +0.066 C 
ATOM     22  C   UNL     1      24.550   8.198  13.794  0.00  0.00    -0.064 C 
ATOM     23  N   UNL     1      24.332   8.658  12.352  0.00  0.00    +0.379 N 
ATOM     24  C   UNL     1      25.634   8.871  11.703  0.00  0.00    -0.096 C 
ATOM     25  H   UNL     1      23.806   9.640  12.386  0.00  0.00    -0.082 HD
ATOM     26  C   UNL     1      23.440   7.684  11.595  0.00  0.00    -0.064 C 
ATOM     27  C   UNL     1      22.078   7.503  12.321  0.00  0.00    +0.066 C 
ENDBRANCH  19  20
ENDBRANCH  18  19
ENDBRANCH  14  15
ENDBRANCH  12  13
TORSDOF 6
ENDMDL
