MODEL 1
REMARK VINA RESULT:      -7.9      0.000      0.000
REMARK  Name = C:\Users\Docking\Desktop\test protocol\1iep_ligandH.pdb
REMARK  8 active torsions:
REMARK  status: ('A' for Active; 'I' for Inactive)
REMARK    1  A    between atoms: _5  and  _11
REMARK    2  A    between atoms: _19  and  _21
REMARK    3  A    between atoms: _22  and  _66
REMARK    4  A    between atoms: _27  and  _30
REMARK    5  A    between atoms: _32  and  _33
REMARK    6  A    between atoms: _38  and  _43
REMARK    7  A    between atoms: _43  and  _46
REMARK    8  A    between atoms: _53  and  _55
REMARK                            x       y       z     vdW  Elec       q    Type
REMARK                         _______ _______ _______ _____ _____    ______ ____
ROOT
ATOM     10  C   UNL     1      76.660  71.352   5.343  0.00  0.00    +0.038 A 
ATOM     11  C   UNL     1      75.313  70.943   5.169  0.00  0.00    +0.047 A 
ATOM     12  C   UNL     1      74.567  71.298   3.972  0.00  0.00    +0.035 A 
ATOM     32  C   UNL     1      75.225  72.070   2.971  0.00  0.00    +0.024 A 
ATOM     33  C   UNL     1      76.593  72.495   3.131  0.00  0.00    +0.007 A 
ATOM     34  C   UNL     1      77.333  72.149   4.311  0.00  0.00    -0.029 A 
ATOM     35  C   UNL     1      78.795  72.638   4.432  0.00  0.00    +0.045 C 
ENDROOT
BRANCH  10   9
ATOM      4  C   UNL     1      78.093  72.193   9.846  0.00  0.00    +0.077 A 
ATOM      5  C   UNL     1      77.479  73.490   9.862  0.00  0.00    +0.048 A 
ATOM      6  C   UNL     1      76.811  73.906   8.688  0.00  0.00    +0.116 A 
ATOM      7  N   UNL     1      76.766  73.078   7.587  0.00  0.00    -0.223 NA
ATOM      8  C   UNL     1      77.369  71.834   7.605  0.00  0.00    +0.220 A 
ATOM      9  N   UNL     1      77.329  70.982   6.512  0.00  0.00    -0.283 N 
ATOM     36  H   UNL     1      77.793  70.076   6.562  0.00  0.00    +0.155 HD
ATOM     37  N   UNL     1      78.015  71.414   8.713  0.00  0.00    -0.214 NA
BRANCH   4   3
ATOM      1  C   UNL     1      79.568  71.621  13.423  0.00  0.00    +0.020 A 
ATOM      2  C   UNL     1      78.837  72.224  12.332  0.00  0.00    +0.013 A 
ATOM      3  C   UNL     1      78.833  71.611  11.010  0.00  0.00    +0.019 A 
ATOM     38  C   UNL     1      79.583  70.378  10.823  0.00  0.00    +0.120 A 
ATOM     39  N   UNL     1      80.278  69.821  11.892  0.00  0.00    -0.263 NA
ATOM     40  C   UNL     1      80.291  70.403  13.169  0.00  0.00    +0.111 A 
ENDBRANCH   4   3
ENDBRANCH  10   9
BRANCH  12  13
ATOM     13  N   UNL     1      73.195  70.918   3.744  0.00  0.00    -0.281 N 
ATOM     14  C   UNL     1      72.696  69.657   3.460  0.00  0.00    +0.248 C 
ATOM     30  O   UNL     1      73.384  68.697   3.146  0.00  0.00    -0.270 OA
ATOM     31  H   UNL     1      72.507  71.670   3.799  0.00  0.00    +0.155 HD
BRANCH  14  15
ATOM     15  C   UNL     1      71.220  69.434   3.519  0.00  0.00    +0.037 A 
ATOM     16  C   UNL     1      70.300  70.210   2.683  0.00  0.00    +0.013 A 
ATOM     17  C   UNL     1      68.879  69.987   2.772  0.00  0.00    +0.005 A 
ATOM     18  C   UNL     1      68.368  68.981   3.700  0.00  0.00    -0.033 A 
ATOM     28  C   UNL     1      69.303  68.222   4.514  0.00  0.00    +0.005 A 
ATOM     29  C   UNL     1      70.697  68.438   4.430  0.00  0.00    +0.013 A 
BRANCH  18  19
ATOM     19  C   UNL     1      66.866  68.691   3.876  0.00  0.00    +0.119 C 
BRANCH  19  20
ATOM     20  N   UNL     1      65.974  68.977   2.713  0.00  0.00    -0.302 NA
ATOM     21  C   UNL     1      64.508  68.656   3.021  0.00  0.00    +0.066 C 
ATOM     22  C   UNL     1      63.586  68.982   1.802  0.00  0.00    -0.064 C 
ATOM     23  N   UNL     1      64.066  68.200   0.579  0.00  0.00    +0.379 N 
ATOM     24  C   UNL     1      63.167  68.460  -0.555  0.00  0.00    -0.096 C 
ATOM     25  H   UNL     1      63.998  67.114   0.823  0.00  0.00    -0.082 HD
ATOM     26  C   UNL     1      65.523  68.511   0.267  0.00  0.00    -0.064 C 
ATOM     27  C   UNL     1      66.428  68.211   1.495  0.00  0.00    +0.066 C 
ENDBRANCH  19  20
ENDBRANCH  18  19
ENDBRANCH  14  15
ENDBRANCH  12  13
TORSDOF 6
ENDMDL
MODEL 2
REMARK VINA RESULT:      -7.8     15.316     19.205
REMARK  Name = C:\Users\Docking\Desktop\test protocol\1iep_ligandH.pdb
REMARK  8 active torsions:
REMARK  status: ('A' for Active; 'I' for Inactive)
REMARK    1  A    between atoms: _5  and  _11
REMARK    2  A    between atoms: _19  and  _21
REMARK    3  A    between atoms: _22  and  _66
REMARK    4  A    between atoms: _27  and  _30
REMARK    5  A    between atoms: _32  and  _33
REMARK    6  A    between atoms: _38  and  _43
REMARK    7  A    between atoms: _43  and  _46
REMARK    8  A    between atoms: _53  and  _55
REMARK                            x       y       z     vdW  Elec       q    Type
REMARK                         _______ _______ _______ _____ _____    ______ ____
ROOT
ATOM     10  C   UNL     1      69.508  56.594  17.921  0.00  0.00    +0.038 A 
ATOM     11  C   UNL     1      69.914  57.837  17.372  0.00  0.00    +0.047 A 
ATOM     12  C   UNL     1      69.707  59.082  18.094  0.00  0.00    +0.035 A 
ATOM     32  C   UNL     1      69.086  59.024  19.376  0.00  0.00    +0.024 A 
ATOM     33  C   UNL     1      68.665  57.770  19.948  0.00  0.00    +0.007 A 
ATOM     34  C   UNL     1      68.865  56.538  19.239  0.00  0.00    -0.029 A 
ATOM     35  C   UNL     1      68.388  55.223  19.899  0.00  0.00    +0.045 C 
ENDROOT
BRANCH  10   9
ATOM      4  C   UNL     1      68.323  53.477  14.468  0.00  0.00    +0.077 A 
ATOM      5  C   UNL     1      67.144  54.219  14.121  0.00  0.00    +0.048 A 
ATOM      6  C   UNL     1      66.875  55.393  14.861  0.00  0.00    +0.116 A 
ATOM      7  N   UNL     1      67.728  55.786  15.869  0.00  0.00    -0.223 NA
ATOM      8  C   UNL     1      68.855  55.047  16.179  0.00  0.00    +0.220 A 
ATOM      9  N   UNL     1      69.731  55.429  17.183  0.00  0.00    -0.283 N 
ATOM     36  H   UNL     1      70.547  54.852  17.386  0.00  0.00    +0.155 HD
ATOM     37  N   UNL     1      69.133  53.922  15.488  0.00  0.00    -0.214 NA
BRANCH   4   3
ATOM      1  C   UNL     1      68.468  49.773  13.222  0.00  0.00    +0.020 A 
ATOM      2  C   UNL     1      68.020  50.960  13.911  0.00  0.00    +0.013 A 
ATOM      3  C   UNL     1      68.744  52.218  13.776  0.00  0.00    +0.019 A 
ATOM     38  C   UNL     1      69.926  52.241  12.929  0.00  0.00    +0.120 A 
ATOM     39  N   UNL     1      70.335  51.081  12.278  0.00  0.00    -0.263 NA
ATOM     40  C   UNL     1      69.648  49.864  12.402  0.00  0.00    +0.111 A 
ENDBRANCH   4   3
ENDBRANCH  10   9
BRANCH  12  13
ATOM     13  N   UNL     1      70.091  60.375  17.584  0.00  0.00    -0.281 N 
ATOM     14  C   UNL     1      71.365  60.912  17.497  0.00  0.00    +0.248 C 
ATOM     30  O   UNL     1      72.352  60.443  18.046  0.00  0.00    -0.270 OA
ATOM     31  H   UNL     1      69.332  60.966  17.246  0.00  0.00    +0.155 HD
BRANCH  14  15
ATOM     15  C   UNL     1      71.571  62.157  16.697  0.00  0.00    +0.037 A 
ATOM     16  C   UNL     1      71.703  62.111  15.239  0.00  0.00    +0.013 A 
ATOM     17  C   UNL     1      71.917  63.326  14.493  0.00  0.00    +0.005 A 
ATOM     18  C   UNL     1      72.000  64.598  15.206  0.00  0.00    -0.033 A 
ATOM     28  C   UNL     1      71.861  64.616  16.652  0.00  0.00    +0.005 A 
ATOM     29  C   UNL     1      71.652  63.428  17.387  0.00  0.00    +0.013 A 
BRANCH  18  19
ATOM     19  C   UNL     1      72.248  65.941  14.493  0.00  0.00    +0.119 C 
BRANCH  19  20
ATOM     20  N   UNL     1      73.651  66.249  14.084  0.00  0.00    -0.302 NA
ATOM     21  C   UNL     1      74.311  67.268  15.018  0.00  0.00    +0.066 C 
ATOM     22  C   UNL     1      75.786  67.562  14.590  0.00  0.00    -0.064 C 
ATOM     23  N   UNL     1      75.804  68.061  13.144  0.00  0.00    +0.379 N 
ATOM     24  C   UNL     1      77.182  68.393  12.757  0.00  0.00    -0.096 C 
ATOM     25  H   UNL     1      75.205  69.001  13.104  0.00  0.00    -0.082 HD
ATOM     26  C   UNL     1      75.147  67.055  12.209  0.00  0.00    -0.064 C 
ATOM     27  C   UNL     1      73.692  66.748  12.661  0.00  0.00    +0.066 C 
ENDBRANCH  19  20
ENDBRANCH  18  19
ENDBRANCH  14  15
ENDBRANCH  12  13
TORSDOF 6
ENDMDL
MODEL 3
REMARK VINA RESULT:      -7.8      6.229      7.732
REMARK  Name = C:\Users\Docking\Desktop\test protocol\1iep_ligandH.pdb
REMARK  8 active torsions:
REMARK  status: ('A' for Active; 'I' for Inactive)
REMARK    1  A    between atoms: _5  and  _11
REMARK    2  A    between atoms: _19  and  _21
REMARK    3  A    between atoms: _22  and  _66
REMARK    4  A    between atoms: _27  and  _30
REMARK    5  A    between atoms: _32  and  _33
REMARK    6  A    between atoms: _38  and  _43
REMARK    7  A    between atoms: _43  and  _46
REMARK    8  A    between atoms: _53  and  _55
REMARK                            x       y       z     vdW  Elec       q    Type
REMARK                         _______ _______ _______ _____ _____    ______ ____
ROOT
ATOM     10  C   UNL     1      73.870  64.836  12.430  0.00  0.00    +0.038 A 
ATOM     11  C   UNL     1      73.205  65.507  11.372  0.00  0.00    +0.047 A 
ATOM     12  C   UNL     1      73.421  65.124   9.985  0.00  0.00    +0.035 A 
ATOM     32  C   UNL     1      74.318  64.051   9.713  0.00  0.00    +0.024 A 
ATOM     33  C   UNL     1      75.003  63.359  10.776  0.00  0.00    +0.007 A 
ATOM     34  C   UNL     1      74.796  63.734  12.146  0.00  0.00    -0.029 A 
ATOM     35  C   UNL     1      75.562  62.961  13.244  0.00  0.00    +0.045 C 
ENDROOT
BRANCH  10   9
ATOM      4  C   UNL     1      74.748  67.648  16.220  0.00  0.00    +0.077 A 
ATOM      5  C   UNL     1      75.800  68.342  15.536  0.00  0.00    +0.048 A 
ATOM      6  C   UNL     1      76.088  67.941  14.212  0.00  0.00    +0.116 A 
ATOM      7  N   UNL     1      75.372  66.920  13.626  0.00  0.00    -0.223 NA
ATOM      8  C   UNL     1      74.365  66.269  14.315  0.00  0.00    +0.220 A 
ATOM      9  N   UNL     1      73.626  65.245  13.743  0.00  0.00    -0.283 N 
ATOM     36  H   UNL     1      72.896  64.786  14.287  0.00  0.00    +0.155 HD
ATOM     37  N   UNL     1      74.071  66.633  15.581  0.00  0.00    -0.214 NA
BRANCH   4   3
ATOM      1  C   UNL     1      73.731  69.565  19.474  0.00  0.00    +0.020 A 
ATOM      2  C   UNL     1      74.143  69.320  18.111  0.00  0.00    +0.013 A 
ATOM      3  C   UNL     1      74.323  67.959  17.622  0.00  0.00    +0.019 A 
ATOM     38  C   UNL     1      74.074  66.860  18.543  0.00  0.00    +0.120 A 
ATOM     39  N   UNL     1      73.679  67.128  19.850  0.00  0.00    -0.263 NA
ATOM     40  C   UNL     1      73.505  68.433  20.333  0.00  0.00    +0.111 A 
ENDBRANCH   4   3
ENDBRANCH  10   9
BRANCH  12  13
ATOM     13  N   UNL     1      72.780  65.774   8.869  0.00  0.00    -0.281 N 
ATOM     14  C   UNL     1      71.572  65.450   8.273  0.00  0.00    +0.248 C 
ATOM     30  O   UNL     1      70.958  64.413   8.476  0.00  0.00    -0.270 OA
ATOM     31  H   UNL     1      73.278  66.569   8.469  0.00  0.00    +0.155 HD
BRANCH  14  15
ATOM     15  C   UNL     1      70.966  66.409   7.301  0.00  0.00    +0.037 A 
ATOM     16  C   UNL     1      71.802  67.292   6.483  0.00  0.00    +0.013 A 
ATOM     17  C   UNL     1      71.191  68.221   5.565  0.00  0.00    +0.005 A 
ATOM     18  C   UNL     1      69.735  68.269   5.459  0.00  0.00    -0.033 A 
ATOM     28  C   UNL     1      68.930  67.379   6.278  0.00  0.00    +0.005 A 
ATOM     29  C   UNL     1      69.525  66.468   7.180  0.00  0.00    +0.013 A 
BRANCH  18  19
ATOM     19  C   UNL     1      68.997  69.243   4.522  0.00  0.00    +0.119 C 
BRANCH  19  20
ATOM     20  N   UNL     1      68.179  68.648   3.423  0.00  0.00    -0.302 NA
ATOM     21  C   UNL     1      68.796  68.903   2.045  0.00  0.00    +0.066 C 
ATOM     22  C   UNL     1      67.939  68.254   0.909  0.00  0.00    -0.064 C 
ATOM     23  N   UNL     1      66.512  68.801   0.974  0.00  0.00    +0.379 N 
ATOM     24  C   UNL     1      65.720  68.236  -0.128  0.00  0.00    -0.096 C 
ATOM     25  H   UNL     1      66.566  69.904   0.822  0.00  0.00    -0.082 HD
ATOM     26  C   UNL     1      65.893  68.553   2.342  0.00  0.00    -0.064 C 
ATOM     27  C   UNL     1      66.767  69.177   3.466  0.00  0.00    +0.066 C 
ENDBRANCH  19  20
ENDBRANCH  18  19
ENDBRANCH  14  15
ENDBRANCH  12  13
TORSDOF 6
ENDMDL
MODEL 4
REMARK VINA RESULT:      -7.7     21.547     23.797
REMARK  Name = C:\Users\Docking\Desktop\test protocol\1iep_ligandH.pdb
REMARK  8 active torsions:
REMARK  status: ('A' for Active; 'I' for Inactive)
REMARK    1  A    between atoms: _5  and  _11
REMARK    2  A    between atoms: _19  and  _21
REMARK    3  A    between atoms: _22  and  _66
REMARK    4  A    between atoms: _27  and  _30
REMARK    5  A    between atoms: _32  and  _33
REMARK    6  A    between atoms: _38  and  _43
REMARK    7  A    between atoms: _43  and  _46
REMARK    8  A    between atoms: _53  and  _55
REMARK                            x       y       z     vdW  Elec       q    Type
REMARK                         _______ _______ _______ _____ _____    ______ ____
ROOT
ATOM     10  C   UNL     1      67.164  54.561  23.845  0.00  0.00    +0.038 A 
ATOM     11  C   UNL     1      66.939  54.694  22.451  0.00  0.00    +0.047 A 
ATOM     12  C   UNL     1      67.735  53.952  21.487  0.00  0.00    +0.035 A 
ATOM     32  C   UNL     1      68.752  53.081  21.977  0.00  0.00    +0.024 A 
ATOM     33  C   UNL     1      68.995  52.935  23.390  0.00  0.00    +0.007 A 
ATOM     34  C   UNL     1      68.214  53.666  24.347  0.00  0.00    -0.029 A 
ATOM     35  C   UNL     1      68.523  53.476  25.850  0.00  0.00    +0.045 C 
ENDROOT
BRANCH  10   9
ATOM      4  C   UNL     1      66.430  58.295  26.771  0.00  0.00    +0.077 A 
ATOM      5  C   UNL     1      67.751  58.808  26.544  0.00  0.00    +0.048 A 
ATOM      6  C   UNL     1      68.590  58.077  25.673  0.00  0.00    +0.116 A 
ATOM      7  N   UNL     1      68.132  56.921  25.079  0.00  0.00    -0.223 NA
ATOM      8  C   UNL     1      66.853  56.453  25.320  0.00  0.00    +0.220 A 
ATOM      9  N   UNL     1      66.370  55.297  24.727  0.00  0.00    -0.283 N 
ATOM     36  H   UNL     1      65.423  54.981  24.937  0.00  0.00    +0.155 HD
ATOM     37  N   UNL     1      66.033  57.132  26.149  0.00  0.00    -0.214 NA
BRANCH   4   3
ATOM      1  C   UNL     1      64.720  60.005  29.845  0.00  0.00    +0.020 A 
ATOM      2  C   UNL     1      65.727  59.370  29.026  0.00  0.00    +0.013 A 
ATOM      3  C   UNL     1      65.425  58.956  27.662  0.00  0.00    +0.019 A 
ATOM     38  C   UNL     1      64.084  59.202  27.152  0.00  0.00    +0.120 A 
ATOM     39  N   UNL     1      63.135  59.814  27.964  0.00  0.00    -0.263 NA
ATOM     40  C   UNL     1      63.414  60.215  29.279  0.00  0.00    +0.111 A 
ENDBRANCH   4   3
ENDBRANCH  10   9
BRANCH  12  13
ATOM     13  N   UNL     1      67.557  54.052  20.059  0.00  0.00    -0.281 N 
ATOM     14  C   UNL     1      68.307  54.789  19.157  0.00  0.00    +0.248 C 
ATOM     30  O   UNL     1      69.118  55.648  19.472  0.00  0.00    -0.270 OA
ATOM     31  H   UNL     1      66.785  53.513  19.666  0.00  0.00    +0.155 HD
BRANCH  14  15
ATOM     15  C   UNL     1      68.119  54.548  17.694  0.00  0.00    +0.037 A 
ATOM     16  C   UNL     1      68.298  55.625  16.717  0.00  0.00    +0.013 A 
ATOM     17  C   UNL     1      68.093  55.369  15.313  0.00  0.00    +0.005 A 
ATOM     18  C   UNL     1      67.708  54.028  14.878  0.00  0.00    -0.033 A 
ATOM     28  C   UNL     1      67.543  52.977  15.868  0.00  0.00    +0.005 A 
ATOM     29  C   UNL     1      67.741  53.224  17.245  0.00  0.00    +0.013 A 
BRANCH  18  19
ATOM     19  C   UNL     1      67.449  53.670  13.403  0.00  0.00    +0.119 C 
BRANCH  19  20
ATOM     20  N   UNL     1      68.447  52.789  12.727  0.00  0.00    -0.302 NA
ATOM     21  C   UNL     1      68.220  51.309  13.052  0.00  0.00    +0.066 C 
ATOM     22  C   UNL     1      69.259  50.400  12.319  0.00  0.00    -0.064 C 
ATOM     23  N   UNL     1      70.674  50.829  12.711  0.00  0.00    +0.379 N 
ATOM     24  C   UNL     1      71.652  49.938  12.069  0.00  0.00    -0.096 C 
ATOM     25  H   UNL     1      70.772  50.701  13.814  0.00  0.00    -0.082 HD
ATOM     26  C   UNL     1      70.907  52.299  12.394  0.00  0.00    -0.064 C 
ATOM     27  C   UNL     1      69.851  53.192  13.103  0.00  0.00    +0.066 C 
ENDBRANCH  19  20
ENDBRANCH  18  19
ENDBRANCH  14  15
ENDBRANCH  12  13
TORSDOF 6
ENDMDL
MODEL 5
REMARK VINA RESULT:      -7.7     23.078     25.576
REMARK  Name = C:\Users\Docking\Desktop\test protocol\1iep_ligandH.pdb
REMARK  8 active torsions:
REMARK  status: ('A' for Active; 'I' for Inactive)
REMARK    1  A    between atoms: _5  and  _11
REMARK    2  A    between atoms: _19  and  _21
REMARK    3  A    between atoms: _22  and  _66
REMARK    4  A    between atoms: _27  and  _30
REMARK    5  A    between atoms: _32  and  _33
REMARK    6  A    between atoms: _38  and  _43
REMARK    7  A    between atoms: _43  and  _46
REMARK    8  A    between atoms: _53  and  _55
REMARK                            x       y       z     vdW  Elec       q    Type
REMARK                         _______ _______ _______ _____ _____    ______ ____
ROOT
ATOM     10  C   UNL     1      67.778  54.074  22.642  0.00  0.00    +0.038 A 
ATOM     11  C   UNL     1      66.695  54.631  23.370  0.00  0.00    +0.047 A 
ATOM     12  C   UNL     1      66.853  55.043  24.756  0.00  0.00    +0.035 A 
ATOM     32  C   UNL     1      68.128  54.874  25.369  0.00  0.00    +0.024 A 
ATOM     33  C   UNL     1      69.239  54.308  24.645  0.00  0.00    +0.007 A 
ATOM     34  C   UNL     1      69.089  53.898  23.278  0.00  0.00    -0.029 A 
ATOM     35  C   UNL     1      70.312  53.291  22.552  0.00  0.00    +0.045 C 
ENDROOT
BRANCH  10   9
ATOM      4  C   UNL     1      67.879  54.957  17.925  0.00  0.00    +0.077 A 
ATOM      5  C   UNL     1      68.360  56.293  18.126  0.00  0.00    +0.048 A 
ATOM      6  C   UNL     1      68.562  56.717  19.459  0.00  0.00    +0.116 A 
ATOM      7  N   UNL     1      68.299  55.860  20.505  0.00  0.00    -0.223 NA
ATOM      8  C   UNL     1      67.834  54.578  20.277  0.00  0.00    +0.220 A 
ATOM      9  N   UNL     1      67.570  53.696  21.313  0.00  0.00    -0.283 N 
ATOM     36  H   UNL     1      67.221  52.761  21.104  0.00  0.00    +0.155 HD
ATOM     37  N   UNL     1      67.631  54.150  19.013  0.00  0.00    -0.214 NA
BRANCH   4   3
ATOM      1  C   UNL     1      66.993  54.537  14.139  0.00  0.00    +0.020 A 
ATOM      2  C   UNL     1      67.231  55.160  15.420  0.00  0.00    +0.013 A 
ATOM      3  C   UNL     1      67.619  54.362  16.576  0.00  0.00    +0.019 A 
ATOM     38  C   UNL     1      67.759  52.925  16.400  0.00  0.00    +0.120 A 
ATOM     39  N   UNL     1      67.522  52.352  15.155  0.00  0.00    -0.263 NA
ATOM     40  C   UNL     1      67.146  53.109  14.036  0.00  0.00    +0.111 A 
ENDBRANCH   4   3
ENDBRANCH  10   9
BRANCH  12  13
ATOM     13  N   UNL     1      65.788  55.608  25.547  0.00  0.00    -0.281 N 
ATOM     14  C   UNL     1      65.706  56.885  26.076  0.00  0.00    +0.248 C 
ATOM     30  O   UNL     1      66.639  57.673  26.129  0.00  0.00    -0.270 OA
ATOM     31  H   UNL     1      64.999  54.991  25.741  0.00  0.00    +0.155 HD
BRANCH  14  15
ATOM     15  C   UNL     1      64.403  57.350  26.641  0.00  0.00    +0.037 A 
ATOM     16  C   UNL     1      63.477  56.415  27.286  0.00  0.00    +0.013 A 
ATOM     17  C   UNL     1      62.219  56.887  27.808  0.00  0.00    +0.005 A 
ATOM     18  C   UNL     1      61.880  58.303  27.688  0.00  0.00    -0.033 A 
ATOM     28  C   UNL     1      62.819  59.210  27.049  0.00  0.00    +0.005 A 
ATOM     29  C   UNL     1      64.053  58.751  26.535  0.00  0.00    +0.013 A 
BRANCH  18  19
ATOM     19  C   UNL     1      60.550  58.890  28.197  0.00  0.00    +0.119 C 
BRANCH  19  20
ATOM     20  N   UNL     1      59.640  59.501  27.183  0.00  0.00    -0.302 NA
ATOM     21  C   UNL     1      58.340  60.012  27.812  0.00  0.00    +0.066 C 
ATOM     22  C   UNL     1      57.409  60.668  26.741  0.00  0.00    -0.064 C 
ATOM     23  N   UNL     1      57.113  59.652  25.636  0.00  0.00    +0.379 N 
ATOM     24  C   UNL     1      56.191  60.247  24.657  0.00  0.00    -0.096 C 
ATOM     25  H   UNL     1      56.595  58.784  26.105  0.00  0.00    -0.082 HD
ATOM     26  C   UNL     1      58.400  59.137  25.007  0.00  0.00    -0.064 C 
ATOM     27  C   UNL     1      59.331  58.514  26.085  0.00  0.00    +0.066 C 
ENDBRANCH  19  20
ENDBRANCH  18  19
ENDBRANCH  14  15
ENDBRANCH  12  13
TORSDOF 6
ENDMDL
