MODEL 1
REMARK VINA RESULT:     -10.0      0.000      0.000
REMARK  Name = C:\Users\Docking\Desktop\test protocol\1iep_ligandH.pdb
REMARK  8 active torsions:
REMARK  status: ('A' for Active; 'I' for Inactive)
REMARK    1  A    between atoms: _5  and  _11
REMARK    2  A    between atoms: _19  and  _21
REMARK    3  A    between atoms: _22  and  _66
REMARK    4  A    between atoms: _27  and  _30
REMARK    5  A    between atoms: _32  and  _33
REMARK    6  A    between atoms: _38  and  _43
REMARK    7  A    between atoms: _43  and  _46
REMARK    8  A    between atoms: _53  and  _55
REMARK                            x       y       z     vdW  Elec       q    Type
REMARK                         _______ _______ _______ _____ _____    ______ ____
ROOT
ATOM     10  C   UNL     1     -16.383   0.189   5.872  0.00  0.00    +0.038 A 
ATOM     11  C   UNL     1     -15.892  -0.703   6.860  0.00  0.00    +0.047 A 
ATOM     12  C   UNL     1     -16.647  -0.970   8.074  0.00  0.00    +0.035 A 
ATOM     32  C   UNL     1     -17.900  -0.314   8.248  0.00  0.00    +0.024 A 
ATOM     33  C   UNL     1     -18.414   0.596   7.255  0.00  0.00    +0.007 A 
ATOM     34  C   UNL     1     -17.672   0.866   6.056  0.00  0.00    -0.029 A 
ATOM     35  C   UNL     1     -18.268   1.855   5.028  0.00  0.00    +0.045 C 
ENDROOT
BRANCH  10   9
ATOM      4  C   UNL     1     -13.079   2.634   3.394  0.00  0.00    +0.077 A 
ATOM      5  C   UNL     1     -12.883   3.570   4.464  0.00  0.00    +0.048 A 
ATOM      6  C   UNL     1     -13.657   3.390   5.632  0.00  0.00    +0.116 A 
ATOM      7  N   UNL     1     -14.557   2.350   5.714  0.00  0.00    -0.223 NA
ATOM      8  C   UNL     1     -14.723   1.467   4.662  0.00  0.00    +0.220 A 
ATOM      9  N   UNL     1     -15.616   0.409   4.725  0.00  0.00    -0.283 N 
ATOM     36  H   UNL     1     -15.715  -0.216   3.926  0.00  0.00    +0.155 HD
ATOM     37  N   UNL     1     -13.997   1.617   3.535  0.00  0.00    -0.214 NA
BRANCH   4   3
ATOM      1  C   UNL     1     -12.215   2.580  -0.421  0.00  0.00    +0.020 A 
ATOM      2  C   UNL     1     -12.981   2.518   0.802  0.00  0.00    +0.013 A 
ATOM      3  C   UNL     1     -12.333   2.690   2.097  0.00  0.00    +0.019 A 
ATOM     38  C   UNL     1     -10.898   2.927   2.118  0.00  0.00    +0.120 A 
ATOM     39  N   UNL     1     -10.186   2.981   0.924  0.00  0.00    -0.263 NA
ATOM     40  C   UNL     1     -10.798   2.815  -0.327  0.00  0.00    +0.111 A 
ENDBRANCH   4   3
ENDBRANCH  10   9
BRANCH  12  13
ATOM     13  N   UNL     1     -16.196  -1.859   9.116  0.00  0.00    -0.281 N 
ATOM     14  C   UNL     1     -15.971  -3.223   9.033  0.00  0.00    +0.248 C 
ATOM     30  O   UNL     1     -16.330  -3.927   8.102  0.00  0.00    -0.270 OA
ATOM     31  H   UNL     1     -16.021  -1.430  10.025  0.00  0.00    +0.155 HD
BRANCH  14  15
ATOM     15  C   UNL     1     -15.256  -3.906  10.154  0.00  0.00    +0.037 A 
ATOM     16  C   UNL     1     -14.047  -4.698   9.913  0.00  0.00    +0.013 A 
ATOM     17  C   UNL     1     -13.386  -5.361  11.009  0.00  0.00    +0.005 A 
ATOM     18  C   UNL     1     -13.933  -5.233  12.358  0.00  0.00    -0.033 A 
ATOM     28  C   UNL     1     -15.131  -4.437  12.569  0.00  0.00    +0.005 A 
ATOM     29  C   UNL     1     -15.782  -3.787  11.497  0.00  0.00    +0.013 A 
BRANCH  18  19
ATOM     19  C   UNL     1     -13.306  -5.923  13.584  0.00  0.00    +0.119 C 
BRANCH  19  20
ATOM     20  N   UNL     1     -11.925  -5.506  13.971  0.00  0.00    -0.302 NA
ATOM     21  C   UNL     1     -10.900  -6.618  13.728  0.00  0.00    +0.066 C 
ATOM     22  C   UNL     1      -9.458  -6.157  14.117  0.00  0.00    -0.064 C 
ATOM     23  N   UNL     1      -9.444  -5.719  15.583  0.00  0.00    +0.379 N 
ATOM     24  C   UNL     1      -8.077  -5.340  15.968  0.00  0.00    -0.096 C 
ATOM     25  H   UNL     1      -9.739  -6.598  16.201  0.00  0.00    -0.082 HD
ATOM     26  C   UNL     1     -10.462  -4.615  15.834  0.00  0.00    -0.064 C 
ATOM     27  C   UNL     1     -11.887  -5.073  15.416  0.00  0.00    +0.066 C 
ENDBRANCH  19  20
ENDBRANCH  18  19
ENDBRANCH  14  15
ENDBRANCH  12  13
TORSDOF 6
ENDMDL
MODEL 2
REMARK VINA RESULT:     -10.0      9.223     14.385
REMARK  Name = C:\Users\Docking\Desktop\test protocol\1iep_ligandH.pdb
REMARK  8 active torsions:
REMARK  status: ('A' for Active; 'I' for Inactive)
REMARK    1  A    between atoms: _5  and  _11
REMARK    2  A    between atoms: _19  and  _21
REMARK    3  A    between atoms: _22  and  _66
REMARK    4  A    between atoms: _27  and  _30
REMARK    5  A    between atoms: _32  and  _33
REMARK    6  A    between atoms: _38  and  _43
REMARK    7  A    between atoms: _43  and  _46
REMARK    8  A    between atoms: _53  and  _55
REMARK                            x       y       z     vdW  Elec       q    Type
REMARK                         _______ _______ _______ _____ _____    ______ ____
ROOT
ATOM     10  C   UNL     1     -24.763   2.783  -1.068  0.00  0.00    +0.038 A 
ATOM     11  C   UNL     1     -23.635   2.619  -0.225  0.00  0.00    +0.047 A 
ATOM     12  C   UNL     1     -22.322   2.318  -0.774  0.00  0.00    +0.035 A 
ATOM     32  C   UNL     1     -22.194   2.193  -2.188  0.00  0.00    +0.024 A 
ATOM     33  C   UNL     1     -23.331   2.355  -3.060  0.00  0.00    +0.007 A 
ATOM     34  C   UNL     1     -24.629   2.649  -2.524  0.00  0.00    -0.029 A 
ATOM     35  C   UNL     1     -25.813   2.806  -3.505  0.00  0.00    +0.045 C 
ENDROOT
BRANCH  10   9
ATOM      4  C   UNL     1     -29.224   1.562   0.217  0.00  0.00    +0.077 A 
ATOM      5  C   UNL     1     -29.088   0.247  -0.340  0.00  0.00    +0.048 A 
ATOM      6  C   UNL     1     -27.857  -0.073  -0.955  0.00  0.00    +0.116 A 
ATOM      7  N   UNL     1     -26.844   0.860  -1.003  0.00  0.00    -0.223 NA
ATOM      8  C   UNL     1     -27.008   2.120  -0.457  0.00  0.00    +0.220 A 
ATOM      9  N   UNL     1     -26.000   3.071  -0.487  0.00  0.00    -0.283 N 
ATOM     36  H   UNL     1     -26.163   3.992  -0.079  0.00  0.00    +0.155 HD
ATOM     37  N   UNL     1     -28.175   2.450   0.135  0.00  0.00    -0.214 NA
BRANCH   4   3
ATOM      1  C   UNL     1     -32.922   2.610   0.944  0.00  0.00    +0.020 A 
ATOM      2  C   UNL     1     -31.756   2.133   0.236  0.00  0.00    +0.013 A 
ATOM      3  C   UNL     1     -30.463   2.048   0.903  0.00  0.00    +0.019 A 
ATOM     38  C   UNL     1     -30.383   2.456   2.298  0.00  0.00    +0.120 A 
ATOM     39  N   UNL     1     -31.522   2.912   2.953  0.00  0.00    -0.263 NA
ATOM     40  C   UNL     1     -32.771   3.000   2.321  0.00  0.00    +0.111 A 
ENDBRANCH   4   3
ENDBRANCH  10   9
BRANCH  12  13
ATOM     13  N   UNL     1     -21.142   2.133   0.033  0.00  0.00    -0.281 N 
ATOM     14  C   UNL     1     -19.935   2.809  -0.055  0.00  0.00    +0.248 C 
ATOM     30  O   UNL     1     -19.614   3.531  -0.987  0.00  0.00    -0.270 OA
ATOM     31  H   UNL     1     -21.203   1.418   0.758  0.00  0.00    +0.155 HD
BRANCH  14  15
ATOM     15  C   UNL     1     -18.935   2.647   1.044  0.00  0.00    +0.037 A 
ATOM     16  C   UNL     1     -18.601   1.324   1.578  0.00  0.00    +0.013 A 
ATOM     17  C   UNL     1     -17.645   1.197   2.650  0.00  0.00    +0.005 A 
ATOM     18  C   UNL     1     -17.016   2.398   3.193  0.00  0.00    -0.033 A 
ATOM     28  C   UNL     1     -17.362   3.698   2.641  0.00  0.00    +0.005 A 
ATOM     29  C   UNL     1     -18.299   3.826   1.592  0.00  0.00    +0.013 A 
BRANCH  18  19
ATOM     19  C   UNL     1     -16.001   2.360   4.351  0.00  0.00    +0.119 C 
BRANCH  19  20
ATOM     20  N   UNL     1     -14.577   2.670   4.024  0.00  0.00    -0.302 NA
ATOM     21  C   UNL     1     -13.827   1.442   3.501  0.00  0.00    +0.066 C 
ATOM     22  C   UNL     1     -12.345   1.791   3.142  0.00  0.00    -0.064 C 
ATOM     23  N   UNL     1     -11.647   2.368   4.374  0.00  0.00    +0.379 N 
ATOM     24  C   UNL     1     -10.238   2.643   4.056  0.00  0.00    -0.096 C 
ATOM     25  H   UNL     1     -11.668   1.589   5.171  0.00  0.00    -0.082 HD
ATOM     26  C   UNL     1     -12.389   3.588   4.902  0.00  0.00    -0.064 C 
ATOM     27  C   UNL     1     -13.867   3.238   5.228  0.00  0.00    +0.066 C 
ENDBRANCH  19  20
ENDBRANCH  18  19
ENDBRANCH  14  15
ENDBRANCH  12  13
TORSDOF 6
ENDMDL
MODEL 3
REMARK VINA RESULT:      -9.8     15.572     19.475
REMARK  Name = C:\Users\Docking\Desktop\test protocol\1iep_ligandH.pdb
REMARK  8 active torsions:
REMARK  status: ('A' for Active; 'I' for Inactive)
REMARK    1  A    between atoms: _5  and  _11
REMARK    2  A    between atoms: _19  and  _21
REMARK    3  A    between atoms: _22  and  _66
REMARK    4  A    between atoms: _27  and  _30
REMARK    5  A    between atoms: _32  and  _33
REMARK    6  A    between atoms: _38  and  _43
REMARK    7  A    between atoms: _43  and  _46
REMARK    8  A    between atoms: _53  and  _55
REMARK                            x       y       z     vdW  Elec       q    Type
REMARK                         _______ _______ _______ _____ _____    ______ ____
ROOT
ATOM     10  C   UNL     1     -24.750   2.345  -1.982  0.00  0.00    +0.038 A 
ATOM     11  C   UNL     1     -25.964   2.813  -1.418  0.00  0.00    +0.047 A 
ATOM     12  C   UNL     1     -26.678   2.036  -0.416  0.00  0.00    +0.035 A 
ATOM     32  C   UNL     1     -26.124   0.787  -0.009  0.00  0.00    +0.024 A 
ATOM     33  C   UNL     1     -24.891   0.295  -0.573  0.00  0.00    +0.007 A 
ATOM     34  C   UNL     1     -24.185   1.056  -1.564  0.00  0.00    -0.029 A 
ATOM     35  C   UNL     1     -22.871   0.477  -2.138  0.00  0.00    +0.045 C 
ENDROOT
BRANCH  10   9
ATOM      4  C   UNL     1     -24.507   4.365  -6.329  0.00  0.00    +0.077 A 
ATOM      5  C   UNL     1     -25.754   3.782  -6.735  0.00  0.00    +0.048 A 
ATOM      6  C   UNL     1     -26.422   2.963  -5.797  0.00  0.00    +0.116 A 
ATOM      7  N   UNL     1     -25.876   2.750  -4.550  0.00  0.00    -0.223 NA
ATOM      8  C   UNL     1     -24.671   3.326  -4.192  0.00  0.00    +0.220 A 
ATOM      9  N   UNL     1     -24.107   3.131  -2.940  0.00  0.00    -0.283 N 
ATOM     36  H   UNL     1     -23.213   3.568  -2.717  0.00  0.00    +0.155 HD
ATOM     37  N   UNL     1     -24.012   4.111  -5.069  0.00  0.00    -0.214 NA
BRANCH   4   3
ATOM      1  C   UNL     1     -23.257   7.430  -8.413  0.00  0.00    +0.020 A 
ATOM      2  C   UNL     1     -24.089   6.610  -7.563  0.00  0.00    +0.013 A 
ATOM      3  C   UNL     1     -23.684   5.257  -7.206  0.00  0.00    +0.019 A 
ATOM     38  C   UNL     1     -22.420   4.759  -7.729  0.00  0.00    +0.120 A 
ATOM     39  N   UNL     1     -21.641   5.571  -8.546  0.00  0.00    -0.263 NA
ATOM     40  C   UNL     1     -22.021   6.875  -8.898  0.00  0.00    +0.111 A 
ENDBRANCH   4   3
ENDBRANCH  10   9
BRANCH  12  13
ATOM     13  N   UNL     1     -27.918   2.456   0.186  0.00  0.00    -0.281 N 
ATOM     14  C   UNL     1     -29.101   1.742   0.288  0.00  0.00    +0.248 C 
ATOM     30  O   UNL     1     -29.336   0.706  -0.316  0.00  0.00    -0.270 OA
ATOM     31  H   UNL     1     -27.926   3.395   0.586  0.00  0.00    +0.155 HD
BRANCH  14  15
ATOM     15  C   UNL     1     -30.183   2.260   1.179  0.00  0.00    +0.037 A 
ATOM     16  C   UNL     1     -30.636   3.651   1.094  0.00  0.00    +0.013 A 
ATOM     17  C   UNL     1     -31.670   4.130   1.977  0.00  0.00    +0.005 A 
ATOM     18  C   UNL     1     -32.260   3.215   2.952  0.00  0.00    -0.033 A 
ATOM     28  C   UNL     1     -31.796   1.839   3.011  0.00  0.00    +0.005 A 
ATOM     29  C   UNL     1     -30.781   1.367   2.148  0.00  0.00    +0.013 A 
BRANCH  18  19
ATOM     19  C   UNL     1     -33.353   3.646   3.947  0.00  0.00    +0.119 C 
BRANCH  19  20
ATOM     20  N   UNL     1     -34.746   3.180   3.676  0.00  0.00    -0.302 NA
ATOM     21  C   UNL     1     -35.357   3.876   2.457  0.00  0.00    +0.066 C 
ATOM     22  C   UNL     1     -36.806   3.362   2.174  0.00  0.00    -0.064 C 
ATOM     23  N   UNL     1     -37.674   3.582   3.414  0.00  0.00    +0.379 N 
ATOM     24  C   UNL     1     -39.051   3.152   3.132  0.00  0.00    -0.096 C 
ATOM     25  H   UNL     1     -37.697   4.677   3.621  0.00  0.00    -0.082 HD
ATOM     26  C   UNL     1     -37.072   2.895   4.632  0.00  0.00    -0.064 C 
ATOM     27  C   UNL     1     -35.622   3.392   4.887  0.00  0.00    +0.066 C 
ENDBRANCH  19  20
ENDBRANCH  18  19
ENDBRANCH  14  15
ENDBRANCH  12  13
TORSDOF 6
ENDMDL
MODEL 4
REMARK VINA RESULT:      -9.7      2.530     12.761
REMARK  Name = C:\Users\Docking\Desktop\test protocol\1iep_ligandH.pdb
REMARK  8 active torsions:
REMARK  status: ('A' for Active; 'I' for Inactive)
REMARK    1  A    between atoms: _5  and  _11
REMARK    2  A    between atoms: _19  and  _21
REMARK    3  A    between atoms: _22  and  _66
REMARK    4  A    between atoms: _27  and  _30
REMARK    5  A    between atoms: _32  and  _33
REMARK    6  A    between atoms: _38  and  _43
REMARK    7  A    between atoms: _43  and  _46
REMARK    8  A    between atoms: _53  and  _55
REMARK                            x       y       z     vdW  Elec       q    Type
REMARK                         _______ _______ _______ _____ _____    ______ ____
ROOT
ATOM     10  C   UNL     1     -12.554  -5.798  11.323  0.00  0.00    +0.038 A 
ATOM     11  C   UNL     1     -13.330  -4.762  10.744  0.00  0.00    +0.047 A 
ATOM     12  C   UNL     1     -14.225  -5.025   9.628  0.00  0.00    +0.035 A 
ATOM     32  C   UNL     1     -14.307  -6.357   9.127  0.00  0.00    +0.024 A 
ATOM     33  C   UNL     1     -13.524  -7.422   9.702  0.00  0.00    +0.007 A 
ATOM     34  C   UNL     1     -12.638  -7.168  10.802  0.00  0.00    -0.029 A 
ATOM     35  C   UNL     1     -11.819  -8.348  11.375  0.00  0.00    +0.045 C 
ENDROOT
BRANCH  10   9
ATOM      4  C   UNL     1     -11.573  -5.603  16.017  0.00  0.00    +0.077 A 
ATOM      5  C   UNL     1     -12.858  -6.136  16.368  0.00  0.00    +0.048 A 
ATOM      6  C   UNL     1     -13.745  -6.441  15.311  0.00  0.00    +0.116 A 
ATOM      7  N   UNL     1     -13.364  -6.225  14.004  0.00  0.00    -0.223 NA
ATOM      8  C   UNL     1     -12.118  -5.708  13.700  0.00  0.00    +0.220 A 
ATOM      9  N   UNL     1     -11.712  -5.490  12.393  0.00  0.00    -0.283 N 
ATOM     36  H   UNL     1     -10.788  -5.100  12.211  0.00  0.00    +0.155 HD
ATOM     37  N   UNL     1     -11.254  -5.407  14.692  0.00  0.00    -0.214 NA
BRANCH   4   3
ATOM      1  C   UNL     1      -8.662  -3.761  17.870  0.00  0.00    +0.020 A 
ATOM      2  C   UNL     1      -9.658  -4.072  16.871  0.00  0.00    +0.013 A 
ATOM      3  C   UNL     1     -10.525  -5.234  17.021  0.00  0.00    +0.019 A 
ATOM     38  C   UNL     1     -10.358  -6.066  18.203  0.00  0.00    +0.120 A 
ATOM     39  N   UNL     1      -9.389  -5.742  19.148  0.00  0.00    -0.263 NA
ATOM     40  C   UNL     1      -8.548  -4.627  19.013  0.00  0.00    +0.111 A 
ENDBRANCH   4   3
ENDBRANCH  10   9
BRANCH  12  13
ATOM     13  N   UNL     1     -15.031  -4.011   8.994  0.00  0.00    -0.281 N 
ATOM     14  C   UNL     1     -16.080  -3.291   9.543  0.00  0.00    +0.248 C 
ATOM     30  O   UNL     1     -16.625  -3.563  10.602  0.00  0.00    -0.270 OA
ATOM     31  H   UNL     1     -14.801  -3.798   8.024  0.00  0.00    +0.155 HD
BRANCH  14  15
ATOM     15  C   UNL     1     -16.609  -2.106   8.801  0.00  0.00    +0.037 A 
ATOM     16  C   UNL     1     -17.839  -1.432   9.224  0.00  0.00    +0.013 A 
ATOM     17  C   UNL     1     -18.336  -0.302   8.480  0.00  0.00    +0.005 A 
ATOM     18  C   UNL     1     -17.602   0.162   7.305  0.00  0.00    -0.033 A 
ATOM     28  C   UNL     1     -16.381  -0.522   6.911  0.00  0.00    +0.005 A 
ATOM     29  C   UNL     1     -15.891  -1.631   7.637  0.00  0.00    +0.013 A 
BRANCH  18  19
ATOM     19  C   UNL     1     -18.070   1.347   6.440  0.00  0.00    +0.119 C 
BRANCH  19  20
ATOM     20  N   UNL     1     -17.215   1.723   5.275  0.00  0.00    -0.302 NA
ATOM     21  C   UNL     1     -16.380   2.975   5.555  0.00  0.00    +0.066 C 
ATOM     22  C   UNL     1     -15.475   3.341   4.334  0.00  0.00    -0.064 C 
ATOM     23  N   UNL     1     -16.350   3.539   3.095  0.00  0.00    +0.379 N 
ATOM     24  C   UNL     1     -15.508   3.940   1.958  0.00  0.00    -0.096 C 
ATOM     25  H   UNL     1     -17.052   4.379   3.308  0.00  0.00    -0.082 HD
ATOM     26  C   UNL     1     -17.186   2.299   2.811  0.00  0.00    -0.064 C 
ATOM     27  C   UNL     1     -18.059   1.927   4.041  0.00  0.00    +0.066 C 
ENDBRANCH  19  20
ENDBRANCH  18  19
ENDBRANCH  14  15
ENDBRANCH  12  13
TORSDOF 6
ENDMDL
MODEL 5
REMARK VINA RESULT:      -9.7      2.605      4.294
REMARK  Name = C:\Users\Docking\Desktop\test protocol\1iep_ligandH.pdb
REMARK  8 active torsions:
REMARK  status: ('A' for Active; 'I' for Inactive)
REMARK    1  A    between atoms: _5  and  _11
REMARK    2  A    between atoms: _19  and  _21
REMARK    3  A    between atoms: _22  and  _66
REMARK    4  A    between atoms: _27  and  _30
REMARK    5  A    between atoms: _32  and  _33
REMARK    6  A    between atoms: _38  and  _43
REMARK    7  A    between atoms: _43  and  _46
REMARK    8  A    between atoms: _53  and  _55
REMARK                            x       y       z     vdW  Elec       q    Type
REMARK                         _______ _______ _______ _____ _____    ______ ____
ROOT
ATOM     10  C   UNL     1     -15.166   3.213   4.641  0.00  0.00    +0.038 A 
ATOM     11  C   UNL     1     -15.335   2.182   5.600  0.00  0.00    +0.047 A 
ATOM     12  C   UNL     1     -16.574   1.423   5.679  0.00  0.00    +0.035 A 
ATOM     32  C   UNL     1     -17.619   1.740   4.763  0.00  0.00    +0.024 A 
ATOM     33  C   UNL     1     -17.464   2.785   3.782  0.00  0.00    +0.007 A 
ATOM     34  C   UNL     1     -16.246   3.539   3.701  0.00  0.00    -0.029 A 
ATOM     35  C   UNL     1     -16.138   4.653   2.634  0.00  0.00    +0.045 C 
ENDROOT
BRANCH  10   9
ATOM      4  C   UNL     1     -10.376   3.366   4.367  0.00  0.00    +0.077 A 
ATOM      5  C   UNL     1     -10.275   1.936   4.307  0.00  0.00    +0.048 A 
ATOM      6  C   UNL     1     -11.479   1.198   4.357  0.00  0.00    +0.116 A 
ATOM      7  N   UNL     1     -12.688   1.851   4.459  0.00  0.00    -0.223 NA
ATOM      8  C   UNL     1     -12.750   3.231   4.515  0.00  0.00    +0.220 A 
ATOM      9  N   UNL     1     -13.956   3.909   4.610  0.00  0.00    -0.283 N 
ATOM     36  H   UNL     1     -13.959   4.928   4.657  0.00  0.00    +0.155 HD
ATOM     37  N   UNL     1     -11.615   3.959   4.471  0.00  0.00    -0.214 NA
BRANCH   4   3
ATOM      1  C   UNL     1      -8.076   6.460   3.706  0.00  0.00    +0.020 A 
ATOM      2  C   UNL     1      -9.246   5.612   3.723  0.00  0.00    +0.013 A 
ATOM      3  C   UNL     1      -9.195   4.284   4.321  0.00  0.00    +0.019 A 
ATOM     38  C   UNL     1      -7.935   3.840   4.898  0.00  0.00    +0.120 A 
ATOM     39  N   UNL     1      -6.824   4.678   4.866  0.00  0.00    -0.263 NA
ATOM     40  C   UNL     1      -6.861   5.957   4.291  0.00  0.00    +0.111 A 
ENDBRANCH   4   3
ENDBRANCH  10   9
BRANCH  12  13
ATOM     13  N   UNL     1     -16.806   0.371   6.637  0.00  0.00    -0.281 N 
ATOM     14  C   UNL     1     -16.972  -0.982   6.392  0.00  0.00    +0.248 C 
ATOM     30  O   UNL     1     -17.158  -1.467   5.285  0.00  0.00    -0.270 OA
ATOM     31  H   UNL     1     -16.855   0.659   7.614  0.00  0.00    +0.155 HD
BRANCH  14  15
ATOM     15  C   UNL     1     -16.939  -1.934   7.544  0.00  0.00    +0.037 A 
ATOM     16  C   UNL     1     -16.976  -3.383   7.334  0.00  0.00    +0.013 A 
ATOM     17  C   UNL     1     -16.960  -4.279   8.463  0.00  0.00    +0.005 A 
ATOM     18  C   UNL     1     -16.907  -3.726   9.814  0.00  0.00    -0.033 A 
ATOM     28  C   UNL     1     -16.866  -2.284   9.994  0.00  0.00    +0.005 A 
ATOM     29  C   UNL     1     -16.882  -1.403   8.889  0.00  0.00    +0.013 A 
BRANCH  18  19
ATOM     19  C   UNL     1     -16.909  -4.606  11.079  0.00  0.00    +0.119 C 
BRANCH  19  20
ATOM     20  N   UNL     1     -15.626  -5.275  11.448  0.00  0.00    -0.302 NA
ATOM     21  C   UNL     1     -15.471  -5.424  12.964  0.00  0.00    +0.066 C 
ATOM     22  C   UNL     1     -14.134  -6.147  13.331  0.00  0.00    -0.064 C 
ATOM     23  N   UNL     1     -12.958  -5.367  12.741  0.00  0.00    +0.379 N 
ATOM     24  C   UNL     1     -11.696  -6.012  13.133  0.00  0.00    -0.096 C 
ATOM     25  H   UNL     1     -12.970  -4.347  13.189  0.00  0.00    -0.082 HD
ATOM     26  C   UNL     1     -13.105  -5.212  11.234  0.00  0.00    -0.064 C 
ATOM     27  C   UNL     1     -14.450  -4.519  10.878  0.00  0.00    +0.066 C 
ENDBRANCH  19  20
ENDBRANCH  18  19
ENDBRANCH  14  15
ENDBRANCH  12  13
TORSDOF 6
ENDMDL
