MODEL 1
REMARK VINA RESULT:      -7.3      0.000      0.000
REMARK  Name = C:\Users\Docking\Desktop\test protocol\1iep_ligandH.pdb
REMARK  8 active torsions:
REMARK  status: ('A' for Active; 'I' for Inactive)
REMARK    1  A    between atoms: _5  and  _11
REMARK    2  A    between atoms: _19  and  _21
REMARK    3  A    between atoms: _22  and  _66
REMARK    4  A    between atoms: _27  and  _30
REMARK    5  A    between atoms: _32  and  _33
REMARK    6  A    between atoms: _38  and  _43
REMARK    7  A    between atoms: _43  and  _46
REMARK    8  A    between atoms: _53  and  _55
REMARK                            x       y       z     vdW  Elec       q    Type
REMARK                         _______ _______ _______ _____ _____    ______ ____
ROOT
ATOM     10  C   UNL     1     -24.806  16.878  19.436  0.00  0.00    +0.038 A 
ATOM     11  C   UNL     1     -24.418  17.758  18.393  0.00  0.00    +0.047 A 
ATOM     12  C   UNL     1     -24.704  19.182  18.465  0.00  0.00    +0.035 A 
ATOM     32  C   UNL     1     -25.384  19.678  19.616  0.00  0.00    +0.024 A 
ATOM     33  C   UNL     1     -25.787  18.797  20.684  0.00  0.00    +0.007 A 
ATOM     34  C   UNL     1     -25.510  17.391  20.617  0.00  0.00    -0.029 A 
ATOM     35  C   UNL     1     -25.971  16.493  21.789  0.00  0.00    +0.045 C 
ENDROOT
BRANCH  10   9
ATOM      4  C   UNL     1     -22.004  13.071  20.267  0.00  0.00    +0.077 A 
ATOM      5  C   UNL     1     -21.041  13.861  20.980  0.00  0.00    +0.048 A 
ATOM      6  C   UNL     1     -21.302  15.244  21.104  0.00  0.00    +0.116 A 
ATOM      7  N   UNL     1     -22.442  15.786  20.553  0.00  0.00    -0.223 NA
ATOM      8  C   UNL     1     -23.349  14.997  19.870  0.00  0.00    +0.220 A 
ATOM      9  N   UNL     1     -24.507  15.519  19.314  0.00  0.00    -0.283 N 
ATOM     36  H   UNL     1     -25.146  14.905  18.812  0.00  0.00    +0.155 HD
ATOM     37  N   UNL     1     -23.123  13.673  19.736  0.00  0.00    -0.214 NA
BRANCH   4   3
ATOM      1  C   UNL     1     -21.879   9.537  18.595  0.00  0.00    +0.020 A 
ATOM      2  C   UNL     1     -22.017  10.967  18.747  0.00  0.00    +0.013 A 
ATOM      3  C   UNL     1     -21.871  11.595  20.054  0.00  0.00    +0.019 A 
ATOM     38  C   UNL     1     -21.583  10.741  21.196  0.00  0.00    +0.120 A 
ATOM     39  N   UNL     1     -21.458   9.367  21.020  0.00  0.00    -0.263 NA
ATOM     40  C   UNL     1     -21.597   8.751  19.767  0.00  0.00    +0.111 A 
ENDBRANCH   4   3
ENDBRANCH  10   9
BRANCH  12  13
ATOM     13  N   UNL     1     -24.341  20.123  17.434  0.00  0.00    -0.281 N 
ATOM     14  C   UNL     1     -23.071  20.529  17.060  0.00  0.00    +0.248 C 
ATOM     30  O   UNL     1     -22.056  20.305  17.703  0.00  0.00    -0.270 OA
ATOM     31  H   UNL     1     -25.115  20.539  16.916  0.00  0.00    +0.155 HD
BRANCH  14  15
ATOM     15  C   UNL     1     -22.905  21.310  15.796  0.00  0.00    +0.037 A 
ATOM     16  C   UNL     1     -21.888  20.946  14.806  0.00  0.00    +0.013 A 
ATOM     17  C   UNL     1     -21.738  21.727  13.604  0.00  0.00    +0.005 A 
ATOM     18  C   UNL     1     -22.609  22.879  13.384  0.00  0.00    -0.033 A 
ATOM     28  C   UNL     1     -23.613  23.214  14.380  0.00  0.00    +0.005 A 
ATOM     29  C   UNL     1     -23.762  22.452  15.561  0.00  0.00    +0.013 A 
BRANCH  18  19
ATOM     19  C   UNL     1     -22.505  23.781  12.140  0.00  0.00    +0.119 C 
BRANCH  19  20
ATOM     20  N   UNL     1     -22.311  23.107  10.821  0.00  0.00    -0.302 NA
ATOM     21  C   UNL     1     -20.875  23.250  10.309  0.00  0.00    +0.066 C 
ATOM     22  C   UNL     1     -20.684  22.521   8.940  0.00  0.00    -0.064 C 
ATOM     23  N   UNL     1     -21.680  23.080   7.923  0.00  0.00    +0.379 N 
ATOM     24  C   UNL     1     -21.464  22.437   6.619  0.00  0.00    -0.096 C 
ATOM     25  H   UNL     1     -21.466  24.168   7.804  0.00  0.00    -0.082 HD
ATOM     26  C   UNL     1     -23.110  22.944   8.426  0.00  0.00    -0.064 C 
ATOM     27  C   UNL     1     -23.282  23.648   9.801  0.00  0.00    +0.066 C 
ENDBRANCH  19  20
ENDBRANCH  18  19
ENDBRANCH  14  15
ENDBRANCH  12  13
TORSDOF 6
ENDMDL
MODEL 2
REMARK VINA RESULT:      -7.1     21.183     26.908
REMARK  Name = C:\Users\Docking\Desktop\test protocol\1iep_ligandH.pdb
REMARK  8 active torsions:
REMARK  status: ('A' for Active; 'I' for Inactive)
REMARK    1  A    between atoms: _5  and  _11
REMARK    2  A    between atoms: _19  and  _21
REMARK    3  A    between atoms: _22  and  _66
REMARK    4  A    between atoms: _27  and  _30
REMARK    5  A    between atoms: _32  and  _33
REMARK    6  A    between atoms: _38  and  _43
REMARK    7  A    between atoms: _43  and  _46
REMARK    8  A    between atoms: _53  and  _55
REMARK                            x       y       z     vdW  Elec       q    Type
REMARK                         _______ _______ _______ _____ _____    ______ ____
ROOT
ATOM     10  C   UNL     1     -21.675  18.330 -11.000  0.00  0.00    +0.038 A 
ATOM     11  C   UNL     1     -22.114  18.985  -9.821  0.00  0.00    +0.047 A 
ATOM     12  C   UNL     1     -23.434  19.591  -9.743  0.00  0.00    +0.035 A 
ATOM     32  C   UNL     1     -24.282  19.509 -10.886  0.00  0.00    +0.024 A 
ATOM     33  C   UNL     1     -23.852  18.849 -12.093  0.00  0.00    +0.007 A 
ATOM     34  C   UNL     1     -22.550  18.252 -12.176  0.00  0.00    -0.029 A 
ATOM     35  C   UNL     1     -22.139  17.563 -13.498  0.00  0.00    +0.045 C 
ENDROOT
BRANCH  10   9
ATOM      4  C   UNL     1     -16.988  18.498 -12.023  0.00  0.00    +0.077 A 
ATOM      5  C   UNL     1     -17.099  19.810 -12.592  0.00  0.00    +0.048 A 
ATOM      6  C   UNL     1     -18.380  20.404 -12.608  0.00  0.00    +0.116 A 
ATOM      7  N   UNL     1     -19.464  19.727 -12.091  0.00  0.00    -0.223 NA
ATOM      8  C   UNL     1     -19.323  18.462 -11.552  0.00  0.00    +0.220 A 
ATOM      9  N   UNL     1     -20.397  17.766 -11.020  0.00  0.00    -0.283 N 
ATOM     36  H   UNL     1     -20.253  16.831 -10.638  0.00  0.00    +0.155 HD
ATOM     37  N   UNL     1     -18.110  17.872 -11.526  0.00  0.00    -0.214 NA
BRANCH   4   3
ATOM      1  C   UNL     1     -14.373  15.617 -11.616  0.00  0.00    +0.020 A 
ATOM      2  C   UNL     1     -15.643  16.302 -11.697  0.00  0.00    +0.013 A 
ATOM      3  C   UNL     1     -15.700  17.739 -11.930  0.00  0.00    +0.019 A 
ATOM     38  C   UNL     1     -14.445  18.460 -12.080  0.00  0.00    +0.120 A 
ATOM     39  N   UNL     1     -13.238  17.775 -11.996  0.00  0.00    -0.263 NA
ATOM     40  C   UNL     1     -13.169  16.392 -11.770  0.00  0.00    +0.111 A 
ENDBRANCH   4   3
ENDBRANCH  10   9
BRANCH  12  13
ATOM     13  N   UNL     1     -23.931  20.275  -8.576  0.00  0.00    -0.281 N 
ATOM     14  C   UNL     1     -24.904  19.847  -7.687  0.00  0.00    +0.248 C 
ATOM     30  O   UNL     1     -25.650  18.899  -7.884  0.00  0.00    -0.270 OA
ATOM     31  H   UNL     1     -23.515  21.185  -8.380  0.00  0.00    +0.155 HD
BRANCH  14  15
ATOM     15  C   UNL     1     -25.084  20.587  -6.401  0.00  0.00    +0.037 A 
ATOM     16  C   UNL     1     -24.760  19.965  -5.115  0.00  0.00    +0.013 A 
ATOM     17  C   UNL     1     -24.958  20.695  -3.888  0.00  0.00    +0.005 A 
ATOM     18  C   UNL     1     -25.483  22.057  -3.942  0.00  0.00    -0.033 A 
ATOM     28  C   UNL     1     -25.791  22.652  -5.232  0.00  0.00    +0.005 A 
ATOM     29  C   UNL     1     -25.599  21.939  -6.437  0.00  0.00    +0.013 A 
BRANCH  18  19
ATOM     19  C   UNL     1     -25.747  22.902  -2.682  0.00  0.00    +0.119 C 
BRANCH  19  20
ATOM     20  N   UNL     1     -25.723  24.387  -2.838  0.00  0.00    -0.302 NA
ATOM     21  C   UNL     1     -24.672  25.043  -1.938  0.00  0.00    +0.066 C 
ATOM     22  C   UNL     1     -24.645  26.594  -2.130  0.00  0.00    -0.064 C 
ATOM     23  N   UNL     1     -26.035  27.165  -1.843  0.00  0.00    +0.379 N 
ATOM     24  C   UNL     1     -25.999  28.629  -1.967  0.00  0.00    -0.096 C 
ATOM     25  H   UNL     1     -26.289  26.920  -0.786  0.00  0.00    -0.082 HD
ATOM     26  C   UNL     1     -27.087  26.516  -2.732  0.00  0.00    -0.064 C 
ATOM     27  C   UNL     1     -27.085  24.972  -2.555  0.00  0.00    +0.066 C 
ENDBRANCH  19  20
ENDBRANCH  18  19
ENDBRANCH  14  15
ENDBRANCH  12  13
TORSDOF 6
ENDMDL
MODEL 3
REMARK VINA RESULT:      -6.9      5.150      7.973
REMARK  Name = C:\Users\Docking\Desktop\test protocol\1iep_ligandH.pdb
REMARK  8 active torsions:
REMARK  status: ('A' for Active; 'I' for Inactive)
REMARK    1  A    between atoms: _5  and  _11
REMARK    2  A    between atoms: _19  and  _21
REMARK    3  A    between atoms: _22  and  _66
REMARK    4  A    between atoms: _27  and  _30
REMARK    5  A    between atoms: _32  and  _33
REMARK    6  A    between atoms: _38  and  _43
REMARK    7  A    between atoms: _43  and  _46
REMARK    8  A    between atoms: _53  and  _55
REMARK                            x       y       z     vdW  Elec       q    Type
REMARK                         _______ _______ _______ _____ _____    ______ ____
ROOT
ATOM     10  C   UNL     1     -22.422  21.847  15.284  0.00  0.00    +0.038 A 
ATOM     11  C   UNL     1     -21.653  21.943  14.096  0.00  0.00    +0.047 A 
ATOM     12  C   UNL     1     -22.089  22.771  12.982  0.00  0.00    +0.035 A 
ATOM     32  C   UNL     1     -23.312  23.490  13.113  0.00  0.00    +0.024 A 
ATOM     33  C   UNL     1     -24.107  23.404  14.313  0.00  0.00    +0.007 A 
ATOM     34  C   UNL     1     -23.684  22.587  15.414  0.00  0.00    -0.029 A 
ATOM     35  C   UNL     1     -24.579  22.527  16.674  0.00  0.00    +0.045 C 
ENDROOT
BRANCH  10   9
ATOM      4  C   UNL     1     -19.931  21.167  19.330  0.00  0.00    +0.077 A 
ATOM      5  C   UNL     1     -19.498  22.534  19.363  0.00  0.00    +0.048 A 
ATOM      6  C   UNL     1     -19.933  23.378  18.316  0.00  0.00    +0.116 A 
ATOM      7  N   UNL     1     -20.740  22.881  17.317  0.00  0.00    -0.223 NA
ATOM      8  C   UNL     1     -21.138  21.557  17.314  0.00  0.00    +0.220 A 
ATOM      9  N   UNL     1     -21.957  21.037  16.322  0.00  0.00    -0.283 N 
ATOM     36  H   UNL     1     -22.222  20.053  16.352  0.00  0.00    +0.155 HD
ATOM     37  N   UNL     1     -20.735  20.730  18.301  0.00  0.00    -0.214 NA
BRANCH   4   3
ATOM      1  C   UNL     1     -17.890  18.678  21.553  0.00  0.00    +0.020 A 
ATOM      2  C   UNL     1     -18.198  19.657  20.536  0.00  0.00    +0.013 A 
ATOM      3  C   UNL     1     -19.558  20.153  20.366  0.00  0.00    +0.019 A 
ATOM     38  C   UNL     1     -20.591  19.634  21.249  0.00  0.00    +0.120 A 
ATOM     39  N   UNL     1     -20.266  18.691  22.219  0.00  0.00    -0.263 NA
ATOM     40  C   UNL     1     -18.961  18.205  22.390  0.00  0.00    +0.111 A 
ENDBRANCH   4   3
ENDBRANCH  10   9
BRANCH  12  13
ATOM     13  N   UNL     1     -21.354  22.901  11.749  0.00  0.00    -0.281 N 
ATOM     14  C   UNL     1     -21.849  22.877  10.455  0.00  0.00    +0.248 C 
ATOM     30  O   UNL     1     -22.980  22.525  10.155  0.00  0.00    -0.270 OA
ATOM     31  H   UNL     1     -20.345  23.025  11.840  0.00  0.00    +0.155 HD
BRANCH  14  15
ATOM     15  C   UNL     1     -20.955  23.290   9.332  0.00  0.00    +0.037 A 
ATOM     16  C   UNL     1     -19.684  23.975   9.584  0.00  0.00    +0.013 A 
ATOM     17  C   UNL     1     -18.849  24.378   8.481  0.00  0.00    +0.005 A 
ATOM     18  C   UNL     1     -19.281  24.096   7.114  0.00  0.00    -0.033 A 
ATOM     28  C   UNL     1     -20.543  23.411   6.893  0.00  0.00    +0.005 A 
ATOM     29  C   UNL     1     -21.366  23.015   7.971  0.00  0.00    +0.013 A 
BRANCH  18  19
ATOM     19  C   UNL     1     -18.463  24.509   5.876  0.00  0.00    +0.119 C 
BRANCH  19  20
ATOM     20  N   UNL     1     -18.532  25.940   5.457  0.00  0.00    -0.302 NA
ATOM     21  C   UNL     1     -18.805  26.087   3.957  0.00  0.00    +0.066 C 
ATOM     22  C   UNL     1     -18.897  27.591   3.540  0.00  0.00    -0.064 C 
ATOM     23  N   UNL     1     -17.601  28.305   3.927  0.00  0.00    +0.379 N 
ATOM     24  C   UNL     1     -17.661  29.705   3.484  0.00  0.00    -0.096 C 
ATOM     25  H   UNL     1     -16.766  27.811   3.377  0.00  0.00    -0.082 HD
ATOM     26  C   UNL     1     -17.321  28.162   5.416  0.00  0.00    -0.064 C 
ATOM     27  C   UNL     1     -17.261  26.664   5.826  0.00  0.00    +0.066 C 
ENDBRANCH  19  20
ENDBRANCH  18  19
ENDBRANCH  14  15
ENDBRANCH  12  13
TORSDOF 6
ENDMDL
MODEL 4
REMARK VINA RESULT:      -6.9      3.805      6.947
REMARK  Name = C:\Users\Docking\Desktop\test protocol\1iep_ligandH.pdb
REMARK  8 active torsions:
REMARK  status: ('A' for Active; 'I' for Inactive)
REMARK    1  A    between atoms: _5  and  _11
REMARK    2  A    between atoms: _19  and  _21
REMARK    3  A    between atoms: _22  and  _66
REMARK    4  A    between atoms: _27  and  _30
REMARK    5  A    between atoms: _32  and  _33
REMARK    6  A    between atoms: _38  and  _43
REMARK    7  A    between atoms: _43  and  _46
REMARK    8  A    between atoms: _53  and  _55
REMARK                            x       y       z     vdW  Elec       q    Type
REMARK                         _______ _______ _______ _____ _____    ______ ____
ROOT
ATOM     10  C   UNL     1     -21.567  21.166  16.294  0.00  0.00    +0.038 A 
ATOM     11  C   UNL     1     -21.491  21.215  14.879  0.00  0.00    +0.047 A 
ATOM     12  C   UNL     1     -20.866  22.338  14.197  0.00  0.00    +0.035 A 
ATOM     32  C   UNL     1     -20.325  23.392  14.989  0.00  0.00    +0.024 A 
ATOM     33  C   UNL     1     -20.393  23.359  16.429  0.00  0.00    +0.007 A 
ATOM     34  C   UNL     1     -21.011  22.255  17.106  0.00  0.00    -0.029 A 
ATOM     35  C   UNL     1     -21.062  22.275  18.652  0.00  0.00    +0.045 C 
ENDROOT
BRANCH  10   9
ATOM      4  C   UNL     1     -25.416  18.892  18.041  0.00  0.00    +0.077 A 
ATOM      5  C   UNL     1     -26.276  20.003  17.755  0.00  0.00    +0.048 A 
ATOM      6  C   UNL     1     -25.687  21.144  17.165  0.00  0.00    +0.116 A 
ATOM      7  N   UNL     1     -24.338  21.161  16.885  0.00  0.00    -0.223 NA
ATOM      8  C   UNL     1     -23.536  20.072  17.176  0.00  0.00    +0.220 A 
ATOM      9  N   UNL     1     -22.178  20.064  16.896  0.00  0.00    -0.283 N 
ATOM     36  H   UNL     1     -21.620  19.244  17.132  0.00  0.00    +0.155 HD
ATOM     37  N   UNL     1     -24.074  18.971  17.741  0.00  0.00    -0.214 NA
BRANCH   4   3
ATOM      1  C   UNL     1     -25.490  15.394  19.791  0.00  0.00    +0.020 A 
ATOM      2  C   UNL     1     -24.981  16.611  19.203  0.00  0.00    +0.013 A 
ATOM      3  C   UNL     1     -25.889  17.614  18.661  0.00  0.00    +0.019 A 
ATOM     38  C   UNL     1     -27.319  17.353  18.732  0.00  0.00    +0.120 A 
ATOM     39  N   UNL     1     -27.781  16.171  19.304  0.00  0.00    -0.263 NA
ATOM     40  C   UNL     1     -26.915  15.198  19.827  0.00  0.00    +0.111 A 
ENDBRANCH   4   3
ENDBRANCH  10   9
BRANCH  12  13
ATOM     13  N   UNL     1     -20.767  22.447  12.763  0.00  0.00    -0.281 N 
ATOM     14  C   UNL     1     -21.739  22.873  11.872  0.00  0.00    +0.248 C 
ATOM     30  O   UNL     1     -22.918  23.024  12.156  0.00  0.00    -0.270 OA
ATOM     31  H   UNL     1     -19.872  22.177  12.354  0.00  0.00    +0.155 HD
BRANCH  14  15
ATOM     15  C   UNL     1     -21.347  23.160  10.459  0.00  0.00    +0.037 A 
ATOM     16  C   UNL     1     -22.339  23.158   9.380  0.00  0.00    +0.013 A 
ATOM     17  C   UNL     1     -21.931  23.421   8.023  0.00  0.00    +0.005 A 
ATOM     18  C   UNL     1     -20.524  23.690   7.737  0.00  0.00    -0.033 A 
ATOM     28  C   UNL     1     -19.562  23.691   8.827  0.00  0.00    +0.005 A 
ATOM     29  C   UNL     1     -19.958  23.432  10.158  0.00  0.00    +0.013 A 
BRANCH  18  19
ATOM     19  C   UNL     1     -19.996  23.960   6.315  0.00  0.00    +0.119 C 
BRANCH  19  20
ATOM     20  N   UNL     1     -19.160  25.181   6.117  0.00  0.00    -0.302 NA
ATOM     21  C   UNL     1     -19.910  26.460   6.500  0.00  0.00    +0.066 C 
ATOM     22  C   UNL     1     -19.012  27.725   6.308  0.00  0.00    -0.064 C 
ATOM     23  N   UNL     1     -18.534  27.792   4.857  0.00  0.00    +0.379 N 
ATOM     24  C   UNL     1     -17.738  29.012   4.658  0.00  0.00    -0.096 C 
ATOM     25  H   UNL     1     -19.437  27.868   4.207  0.00  0.00    -0.082 HD
ATOM     26  C   UNL     1     -17.790  26.524   4.466  0.00  0.00    -0.064 C 
ATOM     27  C   UNL     1     -18.680  25.269   4.689  0.00  0.00    +0.066 C 
ENDBRANCH  19  20
ENDBRANCH  18  19
ENDBRANCH  14  15
ENDBRANCH  12  13
TORSDOF 6
ENDMDL
MODEL 5
REMARK VINA RESULT:      -6.8     21.121     27.771
REMARK  Name = C:\Users\Docking\Desktop\test protocol\1iep_ligandH.pdb
REMARK  8 active torsions:
REMARK  status: ('A' for Active; 'I' for Inactive)
REMARK    1  A    between atoms: _5  and  _11
REMARK    2  A    between atoms: _19  and  _21
REMARK    3  A    between atoms: _22  and  _66
REMARK    4  A    between atoms: _27  and  _30
REMARK    5  A    between atoms: _32  and  _33
REMARK    6  A    between atoms: _38  and  _43
REMARK    7  A    between atoms: _43  and  _46
REMARK    8  A    between atoms: _53  and  _55
REMARK                            x       y       z     vdW  Elec       q    Type
REMARK                         _______ _______ _______ _____ _____    ______ ____
ROOT
ATOM     10  C   UNL     1     -20.181  17.283 -12.024  0.00  0.00    +0.038 A 
ATOM     11  C   UNL     1     -20.688  17.655 -10.752  0.00  0.00    +0.047 A 
ATOM     12  C   UNL     1     -21.989  18.290 -10.617  0.00  0.00    +0.035 A 
ATOM     32  C   UNL     1     -22.749  18.530 -11.799  0.00  0.00    +0.024 A 
ATOM     33  C   UNL     1     -22.249  18.160 -13.099  0.00  0.00    +0.007 A 
ATOM     34  C   UNL     1     -20.965  17.535 -13.239  0.00  0.00    -0.029 A 
ATOM     35  C   UNL     1     -20.476  17.165 -14.658  0.00  0.00    +0.045 C 
ENDROOT
BRANCH  10   9
ATOM      4  C   UNL     1     -15.392  17.481 -12.275  0.00  0.00    +0.077 A 
ATOM      5  C   UNL     1     -15.393  18.915 -12.293  0.00  0.00    +0.048 A 
ATOM      6  C   UNL     1     -16.647  19.564 -12.243  0.00  0.00    +0.116 A 
ATOM      7  N   UNL     1     -17.807  18.823 -12.180  0.00  0.00    -0.223 NA
ATOM      8  C   UNL     1     -17.771  17.441 -12.166  0.00  0.00    +0.220 A 
ATOM      9  N   UNL     1     -18.925  16.676 -12.095  0.00  0.00    -0.283 N 
ATOM     36  H   UNL     1     -18.856  15.658 -12.094  0.00  0.00    +0.155 HD
ATOM     37  N   UNL     1     -16.586  16.798 -12.214  0.00  0.00    -0.214 NA
BRANCH   4   3
ATOM      1  C   UNL     1     -12.865  14.517 -11.908  0.00  0.00    +0.020 A 
ATOM      2  C   UNL     1     -14.094  15.275 -11.843  0.00  0.00    +0.013 A 
ATOM      3  C   UNL     1     -14.146  16.652 -12.318  0.00  0.00    +0.019 A 
ATOM     38  C   UNL     1     -12.928  17.237 -12.859  0.00  0.00    +0.120 A 
ATOM     39  N   UNL     1     -11.759  16.483 -12.908  0.00  0.00    -0.263 NA
ATOM     40  C   UNL     1     -11.697  15.158 -12.452  0.00  0.00    +0.111 A 
ENDBRANCH   4   3
ENDBRANCH  10   9
BRANCH  12  13
ATOM     13  N   UNL     1     -22.552  18.697  -9.354  0.00  0.00    -0.281 N 
ATOM     14  C   UNL     1     -23.586  19.592  -9.130  0.00  0.00    +0.248 C 
ATOM     30  O   UNL     1     -24.043  20.345  -9.978  0.00  0.00    -0.270 OA
ATOM     31  H   UNL     1     -22.138  18.274  -8.523  0.00  0.00    +0.155 HD
BRANCH  14  15
ATOM     15  C   UNL     1     -24.188  19.673  -7.765  0.00  0.00    +0.037 A 
ATOM     16  C   UNL     1     -25.612  19.407  -7.546  0.00  0.00    +0.013 A 
ATOM     17  C   UNL     1     -26.171  19.509  -6.221  0.00  0.00    +0.005 A 
ATOM     18  C   UNL     1     -25.305  19.878  -5.104  0.00  0.00    -0.033 A 
ATOM     28  C   UNL     1     -23.895  20.131  -5.349  0.00  0.00    +0.005 A 
ATOM     29  C   UNL     1     -23.343  20.033  -6.646  0.00  0.00    +0.013 A 
BRANCH  18  19
ATOM     19  C   UNL     1     -25.820  20.031  -3.661  0.00  0.00    +0.119 C 
BRANCH  19  20
ATOM     20  N   UNL     1     -27.069  20.825  -3.461  0.00  0.00    -0.302 NA
ATOM     21  C   UNL     1     -26.873  21.959  -2.450  0.00  0.00    +0.066 C 
ATOM     22  C   UNL     1     -28.183  22.793  -2.270  0.00  0.00    -0.064 C 
ATOM     23  N   UNL     1     -29.318  21.867  -1.833  0.00  0.00    +0.379 N 
ATOM     24  C   UNL     1     -30.537  22.658  -1.606  0.00  0.00    -0.096 C 
ATOM     25  H   UNL     1     -29.026  21.411  -0.859  0.00  0.00    -0.082 HD
ATOM     26  C   UNL     1     -29.518  20.736  -2.831  0.00  0.00    -0.064 C 
ATOM     27  C   UNL     1     -28.203  19.931  -3.024  0.00  0.00    +0.066 C 
ENDBRANCH  19  20
ENDBRANCH  18  19
ENDBRANCH  14  15
ENDBRANCH  12  13
TORSDOF 6
ENDMDL
