MODEL 1
REMARK VINA RESULT:      -7.0      0.000      0.000
REMARK  Name = C:\Users\Docking\Desktop\test protocol\1iep_ligandH.pdb
REMARK  8 active torsions:
REMARK  status: ('A' for Active; 'I' for Inactive)
REMARK    1  A    between atoms: _5  and  _11
REMARK    2  A    between atoms: _19  and  _21
REMARK    3  A    between atoms: _22  and  _66
REMARK    4  A    between atoms: _27  and  _30
REMARK    5  A    between atoms: _32  and  _33
REMARK    6  A    between atoms: _38  and  _43
REMARK    7  A    between atoms: _43  and  _46
REMARK    8  A    between atoms: _53  and  _55
REMARK                            x       y       z     vdW  Elec       q    Type
REMARK                         _______ _______ _______ _____ _____    ______ ____
ROOT
ATOM     10  C   UNL     1       3.946   4.093   4.219  0.00  0.00    +0.038 A 
ATOM     11  C   UNL     1       3.815   3.242   5.347  0.00  0.00    +0.047 A 
ATOM     12  C   UNL     1       3.579   3.785   6.676  0.00  0.00    +0.035 A 
ATOM     32  C   UNL     1       3.478   5.200   6.820  0.00  0.00    +0.024 A 
ATOM     33  C   UNL     1       3.609   6.079   5.685  0.00  0.00    +0.007 A 
ATOM     34  C   UNL     1       3.845   5.550   4.372  0.00  0.00    -0.029 A 
ATOM     35  C   UNL     1       3.984   6.540   3.192  0.00  0.00    +0.045 C 
ENDROOT
BRANCH  10   9
ATOM      4  C   UNL     1       6.844   2.231   0.878  0.00  0.00    +0.077 A 
ATOM      5  C   UNL     1       8.011   2.447   1.685  0.00  0.00    +0.048 A 
ATOM      6  C   UNL     1       7.822   3.046   2.950  0.00  0.00    +0.116 A 
ATOM      7  N   UNL     1       6.557   3.399   3.368  0.00  0.00    -0.223 NA
ATOM      8  C   UNL     1       5.454   3.179   2.564  0.00  0.00    +0.220 A 
ATOM      9  N   UNL     1       4.172   3.518   2.967  0.00  0.00    -0.283 N 
ATOM     36  H   UNL     1       3.385   3.346   2.342  0.00  0.00    +0.155 HD
ATOM     37  N   UNL     1       5.607   2.609   1.350  0.00  0.00    -0.214 NA
BRANCH   4   3
ATOM      1  C   UNL     1       5.791   0.442  -2.437  0.00  0.00    +0.020 A 
ATOM      2  C   UNL     1       5.702   1.034  -1.123  0.00  0.00    +0.013 A 
ATOM      3  C   UNL     1       6.880   1.606  -0.482  0.00  0.00    +0.019 A 
ATOM     38  C   UNL     1       8.142   1.563  -1.205  0.00  0.00    +0.120 A 
ATOM     39  N   UNL     1       8.198   0.985  -2.470  0.00  0.00    -0.263 NA
ATOM     40  C   UNL     1       7.071   0.430  -3.095  0.00  0.00    +0.111 A 
ENDBRANCH   4   3
ENDBRANCH  10   9
BRANCH  12  13
ATOM     13  N   UNL     1       3.446   2.971   7.858  0.00  0.00    -0.281 N 
ATOM     14  C   UNL     1       4.211   3.015   9.013  0.00  0.00    +0.248 C 
ATOM     30  O   UNL     1       5.268   3.620   9.119  0.00  0.00    -0.270 OA
ATOM     31  H   UNL     1       2.698   2.279   7.843  0.00  0.00    +0.155 HD
BRANCH  14  15
ATOM     15  C   UNL     1       3.742   2.267  10.219  0.00  0.00    +0.037 A 
ATOM     16  C   UNL     1       4.693   1.658  11.152  0.00  0.00    +0.013 A 
ATOM     17  C   UNL     1       4.213   0.927  12.298  0.00  0.00    +0.005 A 
ATOM     18  C   UNL     1       2.774   0.803  12.518  0.00  0.00    -0.033 A 
ATOM     28  C   UNL     1       1.854   1.422  11.579  0.00  0.00    +0.005 A 
ATOM     29  C   UNL     1       2.320   2.138  10.454  0.00  0.00    +0.013 A 
BRANCH  18  19
ATOM     19  C   UNL     1       2.173   0.023  13.703  0.00  0.00    +0.119 C 
BRANCH  19  20
ATOM     20  N   UNL     1       1.896   0.789  14.955  0.00  0.00    -0.302 NA
ATOM     21  C   UNL     1       0.397   1.019  15.167  0.00  0.00    +0.066 C 
ATOM     22  C   UNL     1       0.124   1.802  16.492  0.00  0.00    -0.064 C 
ATOM     23  N   UNL     1       0.877   3.133  16.460  0.00  0.00    +0.379 N 
ATOM     24  C   UNL     1       0.575   3.897  17.680  0.00  0.00    -0.096 C 
ATOM     25  H   UNL     1       0.493   3.717  15.592  0.00  0.00    -0.082 HD
ATOM     26  C   UNL     1       2.368   2.913  16.247  0.00  0.00    -0.064 C 
ATOM     27  C   UNL     1       2.627   2.109  14.942  0.00  0.00    +0.066 C 
ENDBRANCH  19  20
ENDBRANCH  18  19
ENDBRANCH  14  15
ENDBRANCH  12  13
TORSDOF 6
ENDMDL
MODEL 2
REMARK VINA RESULT:      -6.7      2.414      3.684
REMARK  Name = C:\Users\Docking\Desktop\test protocol\1iep_ligandH.pdb
REMARK  8 active torsions:
REMARK  status: ('A' for Active; 'I' for Inactive)
REMARK    1  A    between atoms: _5  and  _11
REMARK    2  A    between atoms: _19  and  _21
REMARK    3  A    between atoms: _22  and  _66
REMARK    4  A    between atoms: _27  and  _30
REMARK    5  A    between atoms: _32  and  _33
REMARK    6  A    between atoms: _38  and  _43
REMARK    7  A    between atoms: _43  and  _46
REMARK    8  A    between atoms: _53  and  _55
REMARK                            x       y       z     vdW  Elec       q    Type
REMARK                         _______ _______ _______ _____ _____    ______ ____
ROOT
ATOM     10  C   UNL     1       4.423   2.155   1.937  0.00  0.00    +0.038 A 
ATOM     11  C   UNL     1       4.661   2.470   3.299  0.00  0.00    +0.047 A 
ATOM     12  C   UNL     1       3.582   2.910   4.170  0.00  0.00    +0.035 A 
ATOM     32  C   UNL     1       2.271   3.015   3.620  0.00  0.00    +0.024 A 
ATOM     33  C   UNL     1       2.011   2.700   2.238  0.00  0.00    +0.007 A 
ATOM     34  C   UNL     1       3.072   2.268   1.373  0.00  0.00    -0.029 A 
ATOM     35  C   UNL     1       2.736   1.950  -0.102  0.00  0.00    +0.045 C 
ENDROOT
BRANCH  10   9
ATOM      4  C   UNL     1       8.563   2.967  -0.351  0.00  0.00    +0.077 A 
ATOM      5  C   UNL     1       8.577   4.347   0.040  0.00  0.00    +0.048 A 
ATOM      6  C   UNL     1       7.496   4.810   0.824  0.00  0.00    +0.116 A 
ATOM      7  N   UNL     1       6.483   3.948   1.184  0.00  0.00    -0.223 NA
ATOM      8  C   UNL     1       6.500   2.623   0.789  0.00  0.00    +0.220 A 
ATOM      9  N   UNL     1       5.496   1.737   1.146  0.00  0.00    -0.283 N 
ATOM     36  H   UNL     1       5.541   0.769   0.829  0.00  0.00    +0.155 HD
ATOM     37  N   UNL     1       7.520   2.157   0.039  0.00  0.00    -0.214 NA
BRANCH   4   3
ATOM      1  C   UNL     1      11.344   2.356  -3.033  0.00  0.00    +0.020 A 
ATOM      2  C   UNL     1      10.314   3.018  -2.267  0.00  0.00    +0.013 A 
ATOM      3  C   UNL     1       9.636   2.328  -1.176  0.00  0.00    +0.019 A 
ATOM     38  C   UNL     1      10.029   0.958  -0.884  0.00  0.00    +0.120 A 
ATOM     39  N   UNL     1      11.023   0.345  -1.640  0.00  0.00    -0.263 NA
ATOM     40  C   UNL     1      11.681   0.998  -2.693  0.00  0.00    +0.111 A 
ENDBRANCH   4   3
ENDBRANCH  10   9
BRANCH  12  13
ATOM     13  N   UNL     1       3.766   3.251   5.559  0.00  0.00    -0.281 N 
ATOM     14  C   UNL     1       3.985   4.504   6.106  0.00  0.00    +0.248 C 
ATOM     30  O   UNL     1       4.271   5.501   5.459  0.00  0.00    -0.270 OA
ATOM     31  H   UNL     1       3.729   2.474   6.219  0.00  0.00    +0.155 HD
BRANCH  14  15
ATOM     15  C   UNL     1       3.887   4.673   7.588  0.00  0.00    +0.037 A 
ATOM     16  C   UNL     1       4.502   3.709   8.505  0.00  0.00    +0.013 A 
ATOM     17  C   UNL     1       4.378   3.886   9.930  0.00  0.00    +0.005 A 
ATOM     18  C   UNL     1       3.635   5.033  10.447  0.00  0.00    -0.033 A 
ATOM     28  C   UNL     1       3.039   5.976   9.515  0.00  0.00    +0.005 A 
ATOM     29  C   UNL     1       3.158   5.805   8.118  0.00  0.00    +0.013 A 
BRANCH  18  19
ATOM     19  C   UNL     1       3.434   5.289  11.952  0.00  0.00    +0.119 C 
BRANCH  19  20
ATOM     20  N   UNL     1       2.846   4.180  12.762  0.00  0.00    -0.302 NA
ATOM     21  C   UNL     1       1.661   4.652  13.608  0.00  0.00    +0.066 C 
ATOM     22  C   UNL     1       1.044   3.475  14.432  0.00  0.00    -0.064 C 
ATOM     23  N   UNL     1       2.127   2.852  15.315  0.00  0.00    +0.379 N 
ATOM     24  C   UNL     1       1.537   1.782  16.133  0.00  0.00    -0.096 C 
ATOM     25  H   UNL     1       2.494   3.644  16.008  0.00  0.00    -0.082 HD
ATOM     26  C   UNL     1       3.311   2.382  14.482  0.00  0.00    -0.064 C 
ATOM     27  C   UNL     1       3.897   3.553  13.645  0.00  0.00    +0.066 C 
ENDBRANCH  19  20
ENDBRANCH  18  19
ENDBRANCH  14  15
ENDBRANCH  12  13
TORSDOF 6
ENDMDL
MODEL 3
REMARK VINA RESULT:      -6.7      8.085     14.668
REMARK  Name = C:\Users\Docking\Desktop\test protocol\1iep_ligandH.pdb
REMARK  8 active torsions:
REMARK  status: ('A' for Active; 'I' for Inactive)
REMARK    1  A    between atoms: _5  and  _11
REMARK    2  A    between atoms: _19  and  _21
REMARK    3  A    between atoms: _22  and  _66
REMARK    4  A    between atoms: _27  and  _30
REMARK    5  A    between atoms: _32  and  _33
REMARK    6  A    between atoms: _38  and  _43
REMARK    7  A    between atoms: _43  and  _46
REMARK    8  A    between atoms: _53  and  _55
REMARK                            x       y       z     vdW  Elec       q    Type
REMARK                         _______ _______ _______ _____ _____    ______ ____
ROOT
ATOM     10  C   UNL     1       2.554   4.040  19.243  0.00  0.00    +0.038 A 
ATOM     11  C   UNL     1       3.013   3.162  20.258  0.00  0.00    +0.047 A 
ATOM     12  C   UNL     1       2.608   3.337  21.644  0.00  0.00    +0.035 A 
ATOM     32  C   UNL     1       1.731   4.416  21.961  0.00  0.00    +0.024 A 
ATOM     33  C   UNL     1       1.256   5.318  20.941  0.00  0.00    +0.007 A 
ATOM     34  C   UNL     1       1.654   5.152  19.573  0.00  0.00    -0.029 A 
ATOM     35  C   UNL     1       1.119   6.153  18.523  0.00  0.00    +0.045 C 
ENDROOT
BRANCH  10   9
ATOM      4  C   UNL     1       2.113   1.947  14.946  0.00  0.00    +0.077 A 
ATOM      5  C   UNL     1       0.963   1.198  15.363  0.00  0.00    +0.048 A 
ATOM      6  C   UNL     1       0.521   1.375  16.693  0.00  0.00    +0.116 A 
ATOM      7  N   UNL     1       1.187   2.239  17.535  0.00  0.00    -0.223 NA
ATOM      8  C   UNL     1       2.294   2.945  17.102  0.00  0.00    +0.220 A 
ATOM      9  N   UNL     1       2.975   3.825  17.929  0.00  0.00    -0.283 N 
ATOM     36  H   UNL     1       3.792   4.321  17.574  0.00  0.00    +0.155 HD
ATOM     37  N   UNL     1       2.737   2.793  15.836  0.00  0.00    -0.214 NA
BRANCH   4   3
ATOM      1  C   UNL     1       4.508   2.357  11.880  0.00  0.00    +0.020 A 
ATOM      2  C   UNL     1       3.987   2.458  13.224  0.00  0.00    +0.013 A 
ATOM      3  C   UNL     1       2.699   1.872  13.570  0.00  0.00    +0.019 A 
ATOM     38  C   UNL     1       1.957   1.182  12.525  0.00  0.00    +0.120 A 
ATOM     39  N   UNL     1       2.483   1.101  11.240  0.00  0.00    -0.263 NA
ATOM     40  C   UNL     1       3.721   1.664  10.894  0.00  0.00    +0.111 A 
ENDBRANCH   4   3
ENDBRANCH  10   9
BRANCH  12  13
ATOM     13  N   UNL     1       3.048   2.483  22.719  0.00  0.00    -0.281 N 
ATOM     14  C   UNL     1       2.344   1.465  23.341  0.00  0.00    +0.248 C 
ATOM     30  O   UNL     1       1.144   1.274  23.209  0.00  0.00    -0.270 OA
ATOM     31  H   UNL     1       3.994   2.649  23.064  0.00  0.00    +0.155 HD
BRANCH  14  15
ATOM     15  C   UNL     1       3.075   0.532  24.251  0.00  0.00    +0.037 A 
ATOM     16  C   UNL     1       2.681  -0.873  24.377  0.00  0.00    +0.013 A 
ATOM     17  C   UNL     1       3.393  -1.747  25.275  0.00  0.00    +0.005 A 
ATOM     18  C   UNL     1       4.509  -1.217  26.055  0.00  0.00    -0.033 A 
ATOM     28  C   UNL     1       4.883   0.180  25.907  0.00  0.00    +0.005 A 
ATOM     29  C   UNL     1       4.186   1.039  25.028  0.00  0.00    +0.013 A 
BRANCH  18  19
ATOM     19  C   UNL     1       5.312  -2.072  27.053  0.00  0.00    +0.119 C 
BRANCH  19  20
ATOM     20  N   UNL     1       6.581  -2.687  26.562  0.00  0.00    -0.302 NA
ATOM     21  C   UNL     1       6.353  -4.084  25.976  0.00  0.00    +0.066 C 
ATOM     22  C   UNL     1       7.687  -4.703  25.446  0.00  0.00    -0.064 C 
ATOM     23  N   UNL     1       8.711  -4.751  26.582  0.00  0.00    +0.379 N 
ATOM     24  C   UNL     1       9.947  -5.386  26.102  0.00  0.00    -0.096 C 
ATOM     25  H   UNL     1       8.290  -5.396  27.389  0.00  0.00    -0.082 HD
ATOM     26  C   UNL     1       8.941  -3.367  27.172  0.00  0.00    -0.064 C 
ATOM     27  C   UNL     1       7.604  -2.749  27.669  0.00  0.00    +0.066 C 
ENDBRANCH  19  20
ENDBRANCH  18  19
ENDBRANCH  14  15
ENDBRANCH  12  13
TORSDOF 6
ENDMDL
MODEL 4
REMARK VINA RESULT:      -6.6     19.332     24.895
REMARK  Name = C:\Users\Docking\Desktop\test protocol\1iep_ligandH.pdb
REMARK  8 active torsions:
REMARK  status: ('A' for Active; 'I' for Inactive)
REMARK    1  A    between atoms: _5  and  _11
REMARK    2  A    between atoms: _19  and  _21
REMARK    3  A    between atoms: _22  and  _66
REMARK    4  A    between atoms: _27  and  _30
REMARK    5  A    between atoms: _32  and  _33
REMARK    6  A    between atoms: _38  and  _43
REMARK    7  A    between atoms: _43  and  _46
REMARK    8  A    between atoms: _53  and  _55
REMARK                            x       y       z     vdW  Elec       q    Type
REMARK                         _______ _______ _______ _____ _____    ______ ____
ROOT
ATOM     10  C   UNL     1      20.215  -5.013  22.431  0.00  0.00    +0.038 A 
ATOM     11  C   UNL     1      20.681  -4.922  21.095  0.00  0.00    +0.047 A 
ATOM     12  C   UNL     1      21.971  -5.471  20.709  0.00  0.00    +0.035 A 
ATOM     32  C   UNL     1      22.761  -6.108  21.710  0.00  0.00    +0.024 A 
ATOM     33  C   UNL     1      22.304  -6.208  23.074  0.00  0.00    +0.007 A 
ATOM     34  C   UNL     1      21.032  -5.667  23.461  0.00  0.00    -0.029 A 
ATOM     35  C   UNL     1      20.595  -5.797  24.938  0.00  0.00    +0.045 C 
ENDROOT
BRANCH  10   9
ATOM      4  C   UNL     1      15.491  -5.412  23.180  0.00  0.00    +0.077 A 
ATOM      5  C   UNL     1      15.504  -6.818  22.894  0.00  0.00    +0.048 A 
ATOM      6  C   UNL     1      16.746  -7.398  22.551  0.00  0.00    +0.116 A 
ATOM      7  N   UNL     1      17.883  -6.621  22.502  0.00  0.00    -0.223 NA
ATOM      8  C   UNL     1      17.835  -5.268  22.782  0.00  0.00    +0.220 A 
ATOM      9  N   UNL     1      18.967  -4.469  22.746  0.00  0.00    -0.283 N 
ATOM     36  H   UNL     1      18.889  -3.474  22.952  0.00  0.00    +0.155 HD
ATOM     37  N   UNL     1      16.661  -4.690  23.111  0.00  0.00    -0.214 NA
BRANCH   4   3
ATOM      1  C   UNL     1      12.149  -4.349  24.913  0.00  0.00    +0.020 A 
ATOM      2  C   UNL     1      13.326  -5.118  24.583  0.00  0.00    +0.013 A 
ATOM      3  C   UNL     1      14.257  -4.655  23.561  0.00  0.00    +0.019 A 
ATOM     38  C   UNL     1      13.965  -3.398  22.888  0.00  0.00    +0.120 A 
ATOM     39  N   UNL     1      12.823  -2.679  23.227  0.00  0.00    -0.263 NA
ATOM     40  C   UNL     1      11.919  -3.116  24.207  0.00  0.00    +0.111 A 
ENDBRANCH   4   3
ENDBRANCH  10   9
BRANCH  12  13
ATOM     13  N   UNL     1      22.500  -5.401  19.369  0.00  0.00    -0.281 N 
ATOM     14  C   UNL     1      22.559  -6.411  18.423  0.00  0.00    +0.248 C 
ATOM     30  O   UNL     1      22.358  -7.593  18.661  0.00  0.00    -0.270 OA
ATOM     31  H   UNL     1      22.877  -4.497  19.084  0.00  0.00    +0.155 HD
BRANCH  14  15
ATOM     15  C   UNL     1      22.905  -6.060  17.012  0.00  0.00    +0.037 A 
ATOM     16  C   UNL     1      22.489  -4.785  16.423  0.00  0.00    +0.013 A 
ATOM     17  C   UNL     1      22.821  -4.478  15.054  0.00  0.00    +0.005 A 
ATOM     18  C   UNL     1      23.576  -5.449  14.266  0.00  0.00    -0.033 A 
ATOM     28  C   UNL     1      23.980  -6.704  14.877  0.00  0.00    +0.005 A 
ATOM     29  C   UNL     1      23.656  -7.009  16.218  0.00  0.00    +0.013 A 
BRANCH  18  19
ATOM     19  C   UNL     1      23.956  -5.215  12.791  0.00  0.00    +0.119 C 
BRANCH  19  20
ATOM     20  N   UNL     1      23.319  -6.102  11.772  0.00  0.00    -0.302 NA
ATOM     21  C   UNL     1      24.357  -6.884  10.963  0.00  0.00    +0.066 C 
ATOM     22  C   UNL     1      23.673  -7.823   9.916  0.00  0.00    -0.064 C 
ATOM     23  N   UNL     1      22.782  -6.990   8.993  0.00  0.00    +0.379 N 
ATOM     24  C   UNL     1      22.182  -7.862   7.972  0.00  0.00    -0.096 C 
ATOM     25  H   UNL     1      23.434  -6.253   8.469  0.00  0.00    -0.082 HD
ATOM     26  C   UNL     1      21.748  -6.207   9.790  0.00  0.00    -0.064 C 
ATOM     27  C   UNL     1      22.438  -5.299  10.847  0.00  0.00    +0.066 C 
ENDBRANCH  19  20
ENDBRANCH  18  19
ENDBRANCH  14  15
ENDBRANCH  12  13
TORSDOF 6
ENDMDL
MODEL 5
REMARK VINA RESULT:      -6.6     20.299     22.296
REMARK  Name = C:\Users\Docking\Desktop\test protocol\1iep_ligandH.pdb
REMARK  8 active torsions:
REMARK  status: ('A' for Active; 'I' for Inactive)
REMARK    1  A    between atoms: _5  and  _11
REMARK    2  A    between atoms: _19  and  _21
REMARK    3  A    between atoms: _22  and  _66
REMARK    4  A    between atoms: _27  and  _30
REMARK    5  A    between atoms: _32  and  _33
REMARK    6  A    between atoms: _38  and  _43
REMARK    7  A    between atoms: _43  and  _46
REMARK    8  A    between atoms: _53  and  _55
REMARK                            x       y       z     vdW  Elec       q    Type
REMARK                         _______ _______ _______ _____ _____    ______ ____
ROOT
ATOM     10  C   UNL     1      24.578  -7.792  16.504  0.00  0.00    +0.038 A 
ATOM     11  C   UNL     1      23.517  -7.546  17.413  0.00  0.00    +0.047 A 
ATOM     12  C   UNL     1      23.771  -7.354  18.832  0.00  0.00    +0.035 A 
ATOM     32  C   UNL     1      25.119  -7.415  19.292  0.00  0.00    +0.024 A 
ATOM     33  C   UNL     1      26.209  -7.665  18.382  0.00  0.00    +0.007 A 
ATOM     34  C   UNL     1      25.964  -7.859  16.981  0.00  0.00    -0.029 A 
ATOM     35  C   UNL     1      27.171  -8.130  16.053  0.00  0.00    +0.045 C 
ENDROOT
BRANCH  10   9
ATOM      4  C   UNL     1      23.646  -6.085  12.116  0.00  0.00    +0.077 A 
ATOM      5  C   UNL     1      23.741  -4.724  12.561  0.00  0.00    +0.048 A 
ATOM      6  C   UNL     1      24.024  -4.507  13.928  0.00  0.00    +0.116 A 
ATOM      7  N   UNL     1      24.198  -5.578  14.778  0.00  0.00    -0.223 NA
ATOM      8  C   UNL     1      24.098  -6.877  14.317  0.00  0.00    +0.220 A 
ATOM      9  N   UNL     1      24.276  -7.969  15.152  0.00  0.00    -0.283 N 
ATOM     36  H   UNL     1      24.187  -8.913  14.775  0.00  0.00    +0.155 HD
ATOM     37  N   UNL     1      23.826  -7.112  13.016  0.00  0.00    -0.214 NA
BRANCH   4   3
ATOM      1  C   UNL     1      23.932  -7.648   8.542  0.00  0.00    +0.020 A 
ATOM      2  C   UNL     1      24.259  -7.298   9.905  0.00  0.00    +0.013 A 
ATOM      3  C   UNL     1      23.356  -6.477  10.701  0.00  0.00    +0.019 A 
ATOM     38  C   UNL     1      22.118  -6.024  10.084  0.00  0.00    +0.120 A 
ATOM     39  N   UNL     1      21.830  -6.377   8.769  0.00  0.00    -0.263 NA
ATOM     40  C   UNL     1      22.693  -7.164   7.992  0.00  0.00    +0.111 A 
ENDBRANCH   4   3
ENDBRANCH  10   9
BRANCH  12  13
ATOM     13  N   UNL     1      22.734  -7.109  19.803  0.00  0.00    -0.281 N 
ATOM     14  C   UNL     1      22.144  -5.899  20.133  0.00  0.00    +0.248 C 
ATOM     30  O   UNL     1      22.572  -4.807  19.793  0.00  0.00    -0.270 OA
ATOM     31  H   UNL     1      22.392  -7.927  20.309  0.00  0.00    +0.155 HD
BRANCH  14  15
ATOM     15  C   UNL     1      20.909  -5.904  20.975  0.00  0.00    +0.037 A 
ATOM     16  C   UNL     1      20.381  -4.667  21.556  0.00  0.00    +0.013 A 
ATOM     17  C   UNL     1      19.197  -4.702  22.378  0.00  0.00    +0.005 A 
ATOM     18  C   UNL     1      18.533  -5.980  22.623  0.00  0.00    -0.033 A 
ATOM     28  C   UNL     1      19.076  -7.191  22.031  0.00  0.00    +0.005 A 
ATOM     29  C   UNL     1      20.236  -7.161  21.225  0.00  0.00    +0.013 A 
BRANCH  18  19
ATOM     19  C   UNL     1      17.277  -6.114  23.505  0.00  0.00    +0.119 C 
BRANCH  19  20
ATOM     20  N   UNL     1      16.156  -5.162  23.248  0.00  0.00    -0.302 NA
ATOM     21  C   UNL     1      16.047  -4.094  24.340  0.00  0.00    +0.066 C 
ATOM     22  C   UNL     1      14.884  -3.093  24.044  0.00  0.00    -0.064 C 
ATOM     23  N   UNL     1      13.571  -3.866  23.910  0.00  0.00    +0.379 N 
ATOM     24  C   UNL     1      12.466  -2.922  23.688  0.00  0.00    -0.096 C 
ATOM     25  H   UNL     1      13.384  -4.385  24.878  0.00  0.00    -0.082 HD
ATOM     26  C   UNL     1      13.671  -4.932  22.827  0.00  0.00    -0.064 C 
ATOM     27  C   UNL     1      14.849  -5.904  23.116  0.00  0.00    +0.066 C 
ENDBRANCH  19  20
ENDBRANCH  18  19
ENDBRANCH  14  15
ENDBRANCH  12  13
TORSDOF 6
ENDMDL
