MODEL 1
REMARK VINA RESULT:      -7.3      0.000      0.000
REMARK  Name = C:\Users\Docking\Desktop\test protocol\1iep_ligandH.pdb
REMARK  8 active torsions:
REMARK  status: ('A' for Active; 'I' for Inactive)
REMARK    1  A    between atoms: _5  and  _11
REMARK    2  A    between atoms: _19  and  _21
REMARK    3  A    between atoms: _22  and  _66
REMARK    4  A    between atoms: _27  and  _30
REMARK    5  A    between atoms: _32  and  _33
REMARK    6  A    between atoms: _38  and  _43
REMARK    7  A    between atoms: _43  and  _46
REMARK    8  A    between atoms: _53  and  _55
REMARK                            x       y       z     vdW  Elec       q    Type
REMARK                         _______ _______ _______ _____ _____    ______ ____
ROOT
ATOM     10  C   UNL     1     -20.897  20.973  16.295  0.00  0.00    +0.038 A 
ATOM     11  C   UNL     1     -20.848  21.070  14.881  0.00  0.00    +0.047 A 
ATOM     12  C   UNL     1     -20.085  22.119  14.224  0.00  0.00    +0.035 A 
ATOM     32  C   UNL     1     -19.379  23.052  15.038  0.00  0.00    +0.024 A 
ATOM     33  C   UNL     1     -19.419  22.970  16.477  0.00  0.00    +0.007 A 
ATOM     34  C   UNL     1     -20.172  21.938  17.131  0.00  0.00    -0.029 A 
ATOM     35  C   UNL     1     -20.184  21.902  18.677  0.00  0.00    +0.045 C 
ENDROOT
BRANCH  10   9
ATOM      4  C   UNL     1     -25.021  19.151  17.939  0.00  0.00    +0.077 A 
ATOM      5  C   UNL     1     -25.740  20.358  17.647  0.00  0.00    +0.048 A 
ATOM      6  C   UNL     1     -25.009  21.426  17.080  0.00  0.00    +0.116 A 
ATOM      7  N   UNL     1     -23.662  21.287  16.829  0.00  0.00    -0.223 NA
ATOM      8  C   UNL     1     -22.999  20.110  17.125  0.00  0.00    +0.220 A 
ATOM      9  N   UNL     1     -21.645  19.946  16.873  0.00  0.00    -0.283 N 
ATOM     36  H   UNL     1     -21.192  19.064  17.112  0.00  0.00    +0.155 HD
ATOM     37  N   UNL     1     -23.673  19.076  17.668  0.00  0.00    -0.214 NA
BRANCH   4   3
ATOM      1  C   UNL     1     -26.697  15.642  18.364  0.00  0.00    +0.020 A 
ATOM      2  C   UNL     1     -26.092  16.795  17.738  0.00  0.00    +0.013 A 
ATOM      3  C   UNL     1     -25.654  17.933  18.537  0.00  0.00    +0.019 A 
ATOM     38  C   UNL     1     -25.844  17.871  19.978  0.00  0.00    +0.120 A 
ATOM     39  N   UNL     1     -26.431  16.749  20.553  0.00  0.00    -0.263 NA
ATOM     40  C   UNL     1     -26.858  15.649  19.795  0.00  0.00    +0.111 A 
ENDBRANCH   4   3
ENDBRANCH  10   9
BRANCH  12  13
ATOM     13  N   UNL     1     -20.005  22.271  12.792  0.00  0.00    -0.281 N 
ATOM     14  C   UNL     1     -20.939  22.843  11.943  0.00  0.00    +0.248 C 
ATOM     30  O   UNL     1     -22.086  23.120  12.263  0.00  0.00    -0.270 OA
ATOM     31  H   UNL     1     -19.157  21.915  12.351  0.00  0.00    +0.155 HD
BRANCH  14  15
ATOM     15  C   UNL     1     -20.547  23.137  10.531  0.00  0.00    +0.037 A 
ATOM     16  C   UNL     1     -19.334  23.899  10.222  0.00  0.00    +0.013 A 
ATOM     17  C   UNL     1     -18.988  24.183   8.852  0.00  0.00    +0.005 A 
ATOM     18  C   UNL     1     -19.857  23.702   7.780  0.00  0.00    -0.033 A 
ATOM     28  C   UNL     1     -21.051  22.945   8.115  0.00  0.00    +0.005 A 
ATOM     29  C   UNL     1     -21.394  22.665   9.456  0.00  0.00    +0.013 A 
BRANCH  18  19
ATOM     19  C   UNL     1     -19.577  23.977   6.290  0.00  0.00    +0.119 C 
BRANCH  19  20
ATOM     20  N   UNL     1     -18.794  25.204   5.957  0.00  0.00    -0.302 NA
ATOM     21  C   UNL     1     -19.630  26.478   6.112  0.00  0.00    +0.066 C 
ATOM     22  C   UNL     1     -18.789  27.754   5.781  0.00  0.00    -0.064 C 
ATOM     23  N   UNL     1     -18.233  27.641   4.360  0.00  0.00    +0.379 N 
ATOM     24  C   UNL     1     -17.491  28.865   4.025  0.00  0.00    -0.096 C 
ATOM     25  H   UNL     1     -19.100  27.569   3.663  0.00  0.00    -0.082 HD
ATOM     26  C   UNL     1     -17.404  26.376   4.196  0.00  0.00    -0.064 C 
ATOM     27  C   UNL     1     -18.240  25.116   4.556  0.00  0.00    +0.066 C 
ENDBRANCH  19  20
ENDBRANCH  18  19
ENDBRANCH  14  15
ENDBRANCH  12  13
TORSDOF 6
ENDMDL
MODEL 2
REMARK VINA RESULT:      -7.2      2.538     12.870
REMARK  Name = C:\Users\Docking\Desktop\test protocol\1iep_ligandH.pdb
REMARK  8 active torsions:
REMARK  status: ('A' for Active; 'I' for Inactive)
REMARK    1  A    between atoms: _5  and  _11
REMARK    2  A    between atoms: _19  and  _21
REMARK    3  A    between atoms: _22  and  _66
REMARK    4  A    between atoms: _27  and  _30
REMARK    5  A    between atoms: _32  and  _33
REMARK    6  A    between atoms: _38  and  _43
REMARK    7  A    between atoms: _43  and  _46
REMARK    8  A    between atoms: _53  and  _55
REMARK                            x       y       z     vdW  Elec       q    Type
REMARK                         _______ _______ _______ _____ _____    ______ ____
ROOT
ATOM     10  C   UNL     1     -20.331  21.600  14.997  0.00  0.00    +0.038 A 
ATOM     11  C   UNL     1     -21.340  20.683  15.390  0.00  0.00    +0.047 A 
ATOM     12  C   UNL     1     -21.644  20.456  16.794  0.00  0.00    +0.035 A 
ATOM     32  C   UNL     1     -20.903  21.181  17.772  0.00  0.00    +0.024 A 
ATOM     33  C   UNL     1     -19.874  22.116  17.390  0.00  0.00    +0.007 A 
ATOM     34  C   UNL     1     -19.568  22.343  16.007  0.00  0.00    -0.029 A 
ATOM     35  C   UNL     1     -18.450  23.352  15.655  0.00  0.00    +0.045 C 
ENDROOT
BRANCH  10   9
ATOM      4  C   UNL     1     -21.578  23.166  10.634  0.00  0.00    +0.077 A 
ATOM      5  C   UNL     1     -22.848  23.642  11.103  0.00  0.00    +0.048 A 
ATOM      6  C   UNL     1     -23.144  23.458  12.472  0.00  0.00    +0.116 A 
ATOM      7  N   UNL     1     -22.231  22.843  13.302  0.00  0.00    -0.223 NA
ATOM      8  C   UNL     1     -21.017  22.394  12.817  0.00  0.00    +0.220 A 
ATOM      9  N   UNL     1     -20.081  21.780  13.634  0.00  0.00    -0.283 N 
ATOM     36  H   UNL     1     -19.199  21.456  13.237  0.00  0.00    +0.155 HD
ATOM     37  N   UNL     1     -20.711  22.556  11.513  0.00  0.00    -0.214 NA
BRANCH   4   3
ATOM      1  C   UNL     1     -21.411  22.950   6.732  0.00  0.00    +0.020 A 
ATOM      2  C   UNL     1     -21.900  22.805   8.084  0.00  0.00    +0.013 A 
ATOM      3  C   UNL     1     -21.118  23.290   9.215  0.00  0.00    +0.019 A 
ATOM     38  C   UNL     1     -19.836  23.921   8.941  0.00  0.00    +0.120 A 
ATOM     39  N   UNL     1     -19.390  24.045   7.629  0.00  0.00    -0.263 NA
ATOM     40  C   UNL     1     -20.133  23.581   6.533  0.00  0.00    +0.111 A 
ENDBRANCH   4   3
ENDBRANCH  10   9
BRANCH  12  13
ATOM     13  N   UNL     1     -22.651  19.532  17.253  0.00  0.00    -0.281 N 
ATOM     14  C   UNL     1     -23.882  19.824  17.817  0.00  0.00    +0.248 C 
ATOM     30  O   UNL     1     -24.216  20.932  18.211  0.00  0.00    -0.270 OA
ATOM     31  H   UNL     1     -22.429  18.541  17.149  0.00  0.00    +0.155 HD
BRANCH  14  15
ATOM     15  C   UNL     1     -24.881  18.725  17.981  0.00  0.00    +0.037 A 
ATOM     16  C   UNL     1     -26.298  18.934  17.674  0.00  0.00    +0.013 A 
ATOM     17  C   UNL     1     -27.243  17.861  17.857  0.00  0.00    +0.005 A 
ATOM     18  C   UNL     1     -26.774  16.568  18.349  0.00  0.00    -0.033 A 
ATOM     28  C   UNL     1     -25.361  16.387  18.641  0.00  0.00    +0.005 A 
ATOM     29  C   UNL     1     -24.432  17.436  18.464  0.00  0.00    +0.013 A 
BRANCH  18  19
ATOM     19  C   UNL     1     -27.715  15.374  18.594  0.00  0.00    +0.119 C 
BRANCH  19  20
ATOM     20  N   UNL     1     -27.379  14.088  17.914  0.00  0.00    -0.302 NA
ATOM     21  C   UNL     1     -28.439  13.690  16.883  0.00  0.00    +0.066 C 
ATOM     22  C   UNL     1     -28.060  12.354  16.165  0.00  0.00    -0.064 C 
ATOM     23  N   UNL     1     -27.880  11.251  17.209  0.00  0.00    +0.379 N 
ATOM     24  C   UNL     1     -27.581   9.980  16.533  0.00  0.00    -0.096 C 
ATOM     25  H   UNL     1     -28.851  11.129  17.744  0.00  0.00    -0.082 HD
ATOM     26  C   UNL     1     -26.830  11.639  18.240  0.00  0.00    -0.064 C 
ATOM     27  C   UNL     1     -27.201  12.983  18.927  0.00  0.00    +0.066 C 
ENDBRANCH  19  20
ENDBRANCH  18  19
ENDBRANCH  14  15
ENDBRANCH  12  13
TORSDOF 6
ENDMDL
MODEL 3
REMARK VINA RESULT:      -6.9      3.297     13.646
REMARK  Name = C:\Users\Docking\Desktop\test protocol\1iep_ligandH.pdb
REMARK  8 active torsions:
REMARK  status: ('A' for Active; 'I' for Inactive)
REMARK    1  A    between atoms: _5  and  _11
REMARK    2  A    between atoms: _19  and  _21
REMARK    3  A    between atoms: _22  and  _66
REMARK    4  A    between atoms: _27  and  _30
REMARK    5  A    between atoms: _32  and  _33
REMARK    6  A    between atoms: _38  and  _43
REMARK    7  A    between atoms: _43  and  _46
REMARK    8  A    between atoms: _53  and  _55
REMARK                            x       y       z     vdW  Elec       q    Type
REMARK                         _______ _______ _______ _____ _____    ______ ____
ROOT
ATOM     10  C   UNL     1     -18.698  24.064   8.682  0.00  0.00    +0.038 A 
ATOM     11  C   UNL     1     -18.907  23.633  10.017  0.00  0.00    +0.047 A 
ATOM     12  C   UNL     1     -20.176  23.052  10.430  0.00  0.00    +0.035 A 
ATOM     32  C   UNL     1     -21.209  22.924   9.456  0.00  0.00    +0.024 A 
ATOM     33  C   UNL     1     -21.013  23.358   8.095  0.00  0.00    +0.007 A 
ATOM     34  C   UNL     1     -19.765  23.933   7.682  0.00  0.00    -0.029 A 
ATOM     35  C   UNL     1     -19.614  24.387   6.212  0.00  0.00    +0.045 C 
ENDROOT
BRANCH  10   9
ATOM      4  C   UNL     1     -15.364  27.503   8.990  0.00  0.00    +0.077 A 
ATOM      5  C   UNL     1     -16.167  28.283   9.888  0.00  0.00    +0.048 A 
ATOM      6  C   UNL     1     -17.434  27.767  10.239  0.00  0.00    +0.116 A 
ATOM      7  N   UNL     1     -17.857  26.560   9.726  0.00  0.00    -0.223 NA
ATOM      8  C   UNL     1     -17.059  25.834   8.862  0.00  0.00    +0.220 A 
ATOM      9  N   UNL     1     -17.460  24.614   8.340  0.00  0.00    -0.283 N 
ATOM     36  H   UNL     1     -16.845  24.112   7.700  0.00  0.00    +0.155 HD
ATOM     37  N   UNL     1     -15.845  26.305   8.510  0.00  0.00    -0.214 NA
BRANCH   4   3
ATOM      1  C   UNL     1     -12.359  28.603   6.741  0.00  0.00    +0.020 A 
ATOM      2  C   UNL     1     -13.693  28.211   7.135  0.00  0.00    +0.013 A 
ATOM      3  C   UNL     1     -14.000  27.913   8.528  0.00  0.00    +0.019 A 
ATOM     38  C   UNL     1     -12.928  28.022   9.505  0.00  0.00    +0.120 A 
ATOM     39  N   UNL     1     -11.653  28.400   9.096  0.00  0.00    -0.263 NA
ATOM     40  C   UNL     1     -11.344  28.688   7.758  0.00  0.00    +0.111 A 
ENDBRANCH   4   3
ENDBRANCH  10   9
BRANCH  12  13
ATOM     13  N   UNL     1     -20.449  22.604  11.773  0.00  0.00    -0.281 N 
ATOM     14  C   UNL     1     -21.468  23.016  12.617  0.00  0.00    +0.248 C 
ATOM     30  O   UNL     1     -22.175  23.993  12.422  0.00  0.00    -0.270 OA
ATOM     31  H   UNL     1     -19.815  21.898  12.146  0.00  0.00    +0.155 HD
BRANCH  14  15
ATOM     15  C   UNL     1     -21.729  22.237  13.866  0.00  0.00    +0.037 A 
ATOM     16  C   UNL     1     -20.814  21.182  14.309  0.00  0.00    +0.013 A 
ATOM     17  C   UNL     1     -21.098  20.435  15.508  0.00  0.00    +0.005 A 
ATOM     18  C   UNL     1     -22.303  20.742  16.275  0.00  0.00    -0.033 A 
ATOM     28  C   UNL     1     -23.191  21.798  15.816  0.00  0.00    +0.005 A 
ATOM     29  C   UNL     1     -22.916  22.532  14.640  0.00  0.00    +0.013 A 
BRANCH  18  19
ATOM     19  C   UNL     1     -22.697  19.982  17.555  0.00  0.00    +0.119 C 
BRANCH  19  20
ATOM     20  N   UNL     1     -24.100  19.479  17.648  0.00  0.00    -0.302 NA
ATOM     21  C   UNL     1     -24.949  20.318  18.606  0.00  0.00    +0.066 C 
ATOM     22  C   UNL     1     -26.420  19.792  18.674  0.00  0.00    -0.064 C 
ATOM     23  N   UNL     1     -26.413  18.323  19.101  0.00  0.00    +0.379 N 
ATOM     24  C   UNL     1     -27.797  17.841  19.221  0.00  0.00    -0.096 C 
ATOM     25  H   UNL     1     -25.946  18.267  20.111  0.00  0.00    -0.082 HD
ATOM     26  C   UNL     1     -25.569  17.481  18.154  0.00  0.00    -0.064 C 
ATOM     27  C   UNL     1     -24.117  18.031  18.072  0.00  0.00    +0.066 C 
ENDBRANCH  19  20
ENDBRANCH  18  19
ENDBRANCH  14  15
ENDBRANCH  12  13
TORSDOF 6
ENDMDL
MODEL 4
REMARK VINA RESULT:      -6.9      5.308      8.601
REMARK  Name = C:\Users\Docking\Desktop\test protocol\1iep_ligandH.pdb
REMARK  8 active torsions:
REMARK  status: ('A' for Active; 'I' for Inactive)
REMARK    1  A    between atoms: _5  and  _11
REMARK    2  A    between atoms: _19  and  _21
REMARK    3  A    between atoms: _22  and  _66
REMARK    4  A    between atoms: _27  and  _30
REMARK    5  A    between atoms: _32  and  _33
REMARK    6  A    between atoms: _38  and  _43
REMARK    7  A    between atoms: _43  and  _46
REMARK    8  A    between atoms: _53  and  _55
REMARK                            x       y       z     vdW  Elec       q    Type
REMARK                         _______ _______ _______ _____ _____    ______ ____
ROOT
ATOM     10  C   UNL     1     -19.726  23.385   8.585  0.00  0.00    +0.038 A 
ATOM     11  C   UNL     1     -18.524  24.132   8.492  0.00  0.00    +0.047 A 
ATOM     12  C   UNL     1     -18.195  24.881   7.289  0.00  0.00    +0.035 A 
ATOM     32  C   UNL     1     -19.115  24.849   6.200  0.00  0.00    +0.024 A 
ATOM     33  C   UNL     1     -20.340  24.093   6.277  0.00  0.00    +0.007 A 
ATOM     34  C   UNL     1     -20.669  23.350   7.460  0.00  0.00    -0.029 A 
ATOM     35  C   UNL     1     -21.994  22.553   7.485  0.00  0.00    +0.045 C 
ENDROOT
BRANCH  10   9
ATOM      4  C   UNL     1     -21.544  23.093  13.017  0.00  0.00    +0.077 A 
ATOM      5  C   UNL     1     -21.978  24.460  12.993  0.00  0.00    +0.048 A 
ATOM      6  C   UNL     1     -21.708  25.206  11.824  0.00  0.00    +0.116 A 
ATOM      7  N   UNL     1     -21.052  24.618  10.764  0.00  0.00    -0.223 NA
ATOM      8  C   UNL     1     -20.645  23.298  10.821  0.00  0.00    +0.220 A 
ATOM      9  N   UNL     1     -19.992  22.684   9.763  0.00  0.00    -0.283 N 
ATOM     36  H   UNL     1     -19.702  21.710   9.847  0.00  0.00    +0.155 HD
ATOM     37  N   UNL     1     -20.891  22.564  11.926  0.00  0.00    -0.214 NA
BRANCH   4   3
ATOM      1  C   UNL     1     -21.035  20.319  15.727  0.00  0.00    +0.020 A 
ATOM      2  C   UNL     1     -20.778  21.181  14.597  0.00  0.00    +0.013 A 
ATOM      3  C   UNL     1     -21.760  22.174  14.180  0.00  0.00    +0.019 A 
ATOM     38  C   UNL     1     -23.000  22.271  14.934  0.00  0.00    +0.120 A 
ATOM     39  N   UNL     1     -23.221  21.426  16.017  0.00  0.00    -0.263 NA
ATOM     40  C   UNL     1     -22.285  20.465  16.427  0.00  0.00    +0.111 A 
ENDBRANCH   4   3
ENDBRANCH  10   9
BRANCH  12  13
ATOM     13  N   UNL     1     -16.986  25.652   7.134  0.00  0.00    -0.281 N 
ATOM     14  C   UNL     1     -16.493  26.640   7.970  0.00  0.00    +0.248 C 
ATOM     30  O   UNL     1     -17.130  27.163   8.873  0.00  0.00    -0.270 OA
ATOM     31  H   UNL     1     -16.426  25.444   6.307  0.00  0.00    +0.155 HD
BRANCH  14  15
ATOM     15  C   UNL     1     -15.096  27.128   7.765  0.00  0.00    +0.037 A 
ATOM     16  C   UNL     1     -14.282  27.597   8.890  0.00  0.00    +0.013 A 
ATOM     17  C   UNL     1     -12.942  28.078   8.662  0.00  0.00    +0.005 A 
ATOM     18  C   UNL     1     -12.408  28.092   7.302  0.00  0.00    -0.033 A 
ATOM     28  C   UNL     1     -13.235  27.617   6.206  0.00  0.00    +0.005 A 
ATOM     29  C   UNL     1     -14.549  27.145   6.425  0.00  0.00    +0.013 A 
BRANCH  18  19
ATOM     19  C   UNL     1     -10.997  28.609   6.964  0.00  0.00    +0.119 C 
BRANCH  19  20
ATOM     20  N   UNL     1      -9.909  27.594   6.837  0.00  0.00    -0.302 NA
ATOM     21  C   UNL     1      -9.363  27.165   8.202  0.00  0.00    +0.066 C 
ATOM     22  C   UNL     1      -8.241  26.086   8.052  0.00  0.00    -0.064 C 
ATOM     23  N   UNL     1      -7.121  26.638   7.170  0.00  0.00    +0.379 N 
ATOM     24  C   UNL     1      -6.038  25.648   7.074  0.00  0.00    -0.096 C 
ATOM     25  H   UNL     1      -6.708  27.543   7.673  0.00  0.00    -0.082 HD
ATOM     26  C   UNL     1      -7.656  27.069   5.812  0.00  0.00    -0.064 C 
ATOM     27  C   UNL     1      -8.790  28.120   5.973  0.00  0.00    +0.066 C 
ENDBRANCH  19  20
ENDBRANCH  18  19
ENDBRANCH  14  15
ENDBRANCH  12  13
TORSDOF 6
ENDMDL
MODEL 5
REMARK VINA RESULT:      -6.8     17.755     25.098
REMARK  Name = C:\Users\Docking\Desktop\test protocol\1iep_ligandH.pdb
REMARK  8 active torsions:
REMARK  status: ('A' for Active; 'I' for Inactive)
REMARK    1  A    between atoms: _5  and  _11
REMARK    2  A    between atoms: _19  and  _21
REMARK    3  A    between atoms: _22  and  _66
REMARK    4  A    between atoms: _27  and  _30
REMARK    5  A    between atoms: _32  and  _33
REMARK    6  A    between atoms: _38  and  _43
REMARK    7  A    between atoms: _43  and  _46
REMARK    8  A    between atoms: _53  and  _55
REMARK                            x       y       z     vdW  Elec       q    Type
REMARK                         _______ _______ _______ _____ _____    ______ ____
ROOT
ATOM     10  C   UNL     1     -21.854  17.829 -11.566  0.00  0.00    +0.038 A 
ATOM     11  C   UNL     1     -22.211  18.371 -10.305  0.00  0.00    +0.047 A 
ATOM     12  C   UNL     1     -23.425  19.155 -10.139  0.00  0.00    +0.035 A 
ATOM     32  C   UNL     1     -24.254  19.365 -11.279  0.00  0.00    +0.024 A 
ATOM     33  C   UNL     1     -23.906  18.823 -12.569  0.00  0.00    +0.007 A 
ATOM     34  C   UNL     1     -22.708  18.051 -12.739  0.00  0.00    -0.029 A 
ATOM     35  C   UNL     1     -22.381  17.499 -14.146  0.00  0.00    +0.045 C 
ENDROOT
BRANCH  10   9
ATOM      4  C   UNL     1     -17.155  17.441 -12.464  0.00  0.00    +0.077 A 
ATOM      5  C   UNL     1     -17.040  18.835 -12.782  0.00  0.00    +0.048 A 
ATOM      6  C   UNL     1     -18.216  19.616 -12.709  0.00  0.00    +0.116 A 
ATOM      7  N   UNL     1     -19.411  19.036 -12.344  0.00  0.00    -0.223 NA
ATOM      8  C   UNL     1     -19.487  17.688 -12.045  0.00  0.00    +0.220 A 
ATOM      9  N   UNL     1     -20.677  17.084 -11.668  0.00  0.00    -0.283 N 
ATOM     36  H   UNL     1     -20.693  16.086 -11.463  0.00  0.00    +0.155 HD
ATOM     37  N   UNL     1     -18.379  16.920 -12.109  0.00  0.00    -0.214 NA
BRANCH   4   3
ATOM      1  C   UNL     1     -14.385  14.968 -13.692  0.00  0.00    +0.020 A 
ATOM      2  C   UNL     1     -15.502  15.884 -13.720  0.00  0.00    +0.013 A 
ATOM      3  C   UNL     1     -16.002  16.487 -12.491  0.00  0.00    +0.019 A 
ATOM     38  C   UNL     1     -15.344  16.140 -11.241  0.00  0.00    +0.120 A 
ATOM     39  N   UNL     1     -14.271  15.254 -11.244  0.00  0.00    -0.263 NA
ATOM     40  C   UNL     1     -13.782  14.666 -12.420  0.00  0.00    +0.111 A 
ENDBRANCH   4   3
ENDBRANCH  10   9
BRANCH  12  13
ATOM     13  N   UNL     1     -23.835  19.737  -8.885  0.00  0.00    -0.281 N 
ATOM     14  C   UNL     1     -25.059  19.613  -8.248  0.00  0.00    +0.248 C 
ATOM     30  O   UNL     1     -26.065  19.154  -8.768  0.00  0.00    -0.270 OA
ATOM     31  H   UNL     1     -23.138  20.310  -8.409  0.00  0.00    +0.155 HD
BRANCH  14  15
ATOM     15  C   UNL     1     -25.188  20.079  -6.834  0.00  0.00    +0.037 A 
ATOM     16  C   UNL     1     -25.016  19.155  -5.710  0.00  0.00    +0.013 A 
ATOM     17  C   UNL     1     -25.162  19.627  -4.356  0.00  0.00    +0.005 A 
ATOM     18  C   UNL     1     -25.481  21.033  -4.119  0.00  0.00    -0.033 A 
ATOM     28  C   UNL     1     -25.641  21.930  -5.252  0.00  0.00    +0.005 A 
ATOM     29  C   UNL     1     -25.499  21.470  -6.580  0.00  0.00    +0.013 A 
BRANCH  18  19
ATOM     19  C   UNL     1     -25.676  21.620  -2.708  0.00  0.00    +0.119 C 
BRANCH  19  20
ATOM     20  N   UNL     1     -27.079  21.863  -2.257  0.00  0.00    -0.302 NA
ATOM     21  C   UNL     1     -28.036  20.771  -2.743  0.00  0.00    +0.066 C 
ATOM     22  C   UNL     1     -29.495  21.030  -2.243  0.00  0.00    -0.064 C 
ATOM     23  N   UNL     1     -29.958  22.408  -2.720  0.00  0.00    +0.379 N 
ATOM     24  C   UNL     1     -31.350  22.629  -2.301  0.00  0.00    -0.096 C 
ATOM     25  H   UNL     1     -29.937  22.404  -3.834  0.00  0.00    -0.082 HD
ATOM     26  C   UNL     1     -29.010  23.499  -2.243  0.00  0.00    -0.064 C 
ATOM     27  C   UNL     1     -27.558  23.217  -2.720  0.00  0.00    +0.066 C 
ENDBRANCH  19  20
ENDBRANCH  18  19
ENDBRANCH  14  15
ENDBRANCH  12  13
TORSDOF 6
ENDMDL
