MODEL 1
REMARK VINA RESULT:      -9.7      0.000      0.000
REMARK  Name = C:\Users\Docking\Desktop\test protocol\1iep_ligandH.pdb
REMARK  8 active torsions:
REMARK  status: ('A' for Active; 'I' for Inactive)
REMARK    1  A    between atoms: _5  and  _11
REMARK    2  A    between atoms: _19  and  _21
REMARK    3  A    between atoms: _22  and  _66
REMARK    4  A    between atoms: _27  and  _30
REMARK    5  A    between atoms: _32  and  _33
REMARK    6  A    between atoms: _38  and  _43
REMARK    7  A    between atoms: _43  and  _46
REMARK    8  A    between atoms: _53  and  _55
REMARK                            x       y       z     vdW  Elec       q    Type
REMARK                         _______ _______ _______ _____ _____    ______ ____
ROOT
ATOM     10  C   UNL     1      16.026  18.586  13.485  0.00  0.00    +0.038 A 
ATOM     11  C   UNL     1      16.025  19.552  12.446  0.00  0.00    +0.047 A 
ATOM     12  C   UNL     1      15.560  19.219  11.109  0.00  0.00    +0.035 A 
ATOM     32  C   UNL     1      15.100  17.892  10.865  0.00  0.00    +0.024 A 
ATOM     33  C   UNL     1      15.095  16.897  11.908  0.00  0.00    +0.007 A 
ATOM     34  C   UNL     1      15.555  17.219  13.229  0.00  0.00    -0.029 A 
ATOM     35  C   UNL     1      15.533  16.111  14.307  0.00  0.00    +0.045 C 
ENDROOT
BRANCH  10   9
ATOM      4  C   UNL     1      19.402  18.734  16.893  0.00  0.00    +0.077 A 
ATOM      5  C   UNL     1      20.324  17.979  16.095  0.00  0.00    +0.048 A 
ATOM      6  C   UNL     1      19.888  17.565  14.817  0.00  0.00    +0.116 A 
ATOM      7  N   UNL     1      18.622  17.888  14.379  0.00  0.00    -0.223 NA
ATOM      8  C   UNL     1      17.757  18.617  15.174  0.00  0.00    +0.220 A 
ATOM      9  N   UNL     1      16.483  18.961  14.750  0.00  0.00    -0.283 N 
ATOM     36  H   UNL     1      15.872  19.493  15.370  0.00  0.00    +0.155 HD
ATOM     37  N   UNL     1      18.149  19.023  16.399  0.00  0.00    -0.214 NA
BRANCH   4   3
ATOM      1  C   UNL     1      20.954  20.763  19.855  0.00  0.00    +0.020 A 
ATOM      2  C   UNL     1      20.687  20.305  18.511  0.00  0.00    +0.013 A 
ATOM      3  C   UNL     1      19.717  19.246  18.264  0.00  0.00    +0.019 A 
ATOM     38  C   UNL     1      19.028  18.667  19.408  0.00  0.00    +0.120 A 
ATOM     39  N   UNL     1      19.307  19.128  20.691  0.00  0.00    -0.263 NA
ATOM     40  C   UNL     1      20.240  20.145  20.941  0.00  0.00    +0.111 A 
ENDBRANCH   4   3
ENDBRANCH  10   9
BRANCH  12  13
ATOM     13  N   UNL     1      15.543  20.156  10.013  0.00  0.00    -0.281 N 
ATOM     14  C   UNL     1      14.734  21.269   9.856  0.00  0.00    +0.248 C 
ATOM     30  O   UNL     1      13.748  21.508  10.538  0.00  0.00    -0.270 OA
ATOM     31  H   UNL     1      16.209  19.976   9.261  0.00  0.00    +0.155 HD
BRANCH  14  15
ATOM     15  C   UNL     1      15.057  22.251   8.777  0.00  0.00    +0.037 A 
ATOM     16  C   UNL     1      16.443  22.527   8.391  0.00  0.00    +0.013 A 
ATOM     17  C   UNL     1      16.728  23.491   7.358  0.00  0.00    +0.005 A 
ATOM     18  C   UNL     1      15.623  24.186   6.702  0.00  0.00    -0.033 A 
ATOM     28  C   UNL     1      14.257  23.889   7.101  0.00  0.00    +0.005 A 
ATOM     29  C   UNL     1      13.974  22.945   8.113  0.00  0.00    +0.013 A 
BRANCH  18  19
ATOM     19  C   UNL     1      15.834  25.246   5.605  0.00  0.00    +0.119 C 
BRANCH  19  20
ATOM     20  N   UNL     1      14.965  25.159   4.394  0.00  0.00    -0.302 NA
ATOM     21  C   UNL     1      15.775  25.251   3.098  0.00  0.00    +0.066 C 
ATOM     22  C   UNL     1      14.853  25.135   1.840  0.00  0.00    -0.064 C 
ATOM     23  N   UNL     1      13.787  26.231   1.891  0.00  0.00    +0.379 N 
ATOM     24  C   UNL     1      12.954  26.161   0.682  0.00  0.00    -0.096 C 
ATOM     25  H   UNL     1      14.312  27.214   1.885  0.00  0.00    -0.082 HD
ATOM     26  C   UNL     1      12.978  26.148   3.178  0.00  0.00    -0.064 C 
ATOM     27  C   UNL     1      13.907  26.234   4.421  0.00  0.00    +0.066 C 
ENDBRANCH  19  20
ENDBRANCH  18  19
ENDBRANCH  14  15
ENDBRANCH  12  13
TORSDOF 6
ENDMDL
MODEL 2
REMARK VINA RESULT:      -9.5      5.024      7.722
REMARK  Name = C:\Users\Docking\Desktop\test protocol\1iep_ligandH.pdb
REMARK  8 active torsions:
REMARK  status: ('A' for Active; 'I' for Inactive)
REMARK    1  A    between atoms: _5  and  _11
REMARK    2  A    between atoms: _19  and  _21
REMARK    3  A    between atoms: _22  and  _66
REMARK    4  A    between atoms: _27  and  _30
REMARK    5  A    between atoms: _32  and  _33
REMARK    6  A    between atoms: _38  and  _43
REMARK    7  A    between atoms: _43  and  _46
REMARK    8  A    between atoms: _53  and  _55
REMARK                            x       y       z     vdW  Elec       q    Type
REMARK                         _______ _______ _______ _____ _____    ______ ____
ROOT
ATOM     10  C   UNL     1      15.934  19.264  10.162  0.00  0.00    +0.038 A 
ATOM     11  C   UNL     1      15.578  20.635  10.238  0.00  0.00    +0.047 A 
ATOM     12  C   UNL     1      16.467  21.672   9.737  0.00  0.00    +0.035 A 
ATOM     32  C   UNL     1      17.710  21.277   9.162  0.00  0.00    +0.024 A 
ATOM     33  C   UNL     1      18.088  19.889   9.079  0.00  0.00    +0.007 A 
ATOM     34  C   UNL     1      17.217  18.861   9.573  0.00  0.00    -0.029 A 
ATOM     35  C   UNL     1      17.677  17.389   9.463  0.00  0.00    +0.045 C 
ENDROOT
BRANCH  10   9
ATOM      4  C   UNL     1      14.115  16.627  13.736  0.00  0.00    +0.077 A 
ATOM      5  C   UNL     1      15.036  17.176  14.689  0.00  0.00    +0.048 A 
ATOM      6  C   UNL     1      15.966  18.129  14.218  0.00  0.00    +0.116 A 
ATOM      7  N   UNL     1      15.966  18.498  12.890  0.00  0.00    -0.223 NA
ATOM      8  C   UNL     1      15.066  17.948  11.997  0.00  0.00    +0.220 A 
ATOM      9  N   UNL     1      15.043  18.311  10.659  0.00  0.00    -0.283 N 
ATOM     36  H   UNL     1      14.368  17.876  10.030  0.00  0.00    +0.155 HD
ATOM     37  N   UNL     1      14.168  17.035  12.421  0.00  0.00    -0.214 NA
BRANCH   4   3
ATOM      1  C   UNL     1      11.546  14.438  15.713  0.00  0.00    +0.020 A 
ATOM      2  C   UNL     1      12.556  15.432  15.433  0.00  0.00    +0.013 A 
ATOM      3  C   UNL     1      13.070  15.612  14.081  0.00  0.00    +0.019 A 
ATOM     38  C   UNL     1      12.536  14.762  13.027  0.00  0.00    +0.120 A 
ATOM     39  N   UNL     1      11.565  13.812  13.327  0.00  0.00    -0.263 NA
ATOM     40  C   UNL     1      11.064  13.629  14.624  0.00  0.00    +0.111 A 
ENDBRANCH   4   3
ENDBRANCH  10   9
BRANCH  12  13
ATOM     13  N   UNL     1      16.162  23.081   9.794  0.00  0.00    -0.281 N 
ATOM     14  C   UNL     1      15.247  23.786   9.030  0.00  0.00    +0.248 C 
ATOM     30  O   UNL     1      14.700  23.348   8.028  0.00  0.00    -0.270 OA
ATOM     31  H   UNL     1      16.685  23.624  10.481  0.00  0.00    +0.155 HD
BRANCH  14  15
ATOM     15  C   UNL     1      14.899  25.184   9.427  0.00  0.00    +0.037 A 
ATOM     16  C   UNL     1      15.504  26.337   8.756  0.00  0.00    +0.013 A 
ATOM     17  C   UNL     1      15.164  27.675   9.171  0.00  0.00    +0.005 A 
ATOM     18  C   UNL     1      14.212  27.867  10.263  0.00  0.00    -0.033 A 
ATOM     28  C   UNL     1      13.624  26.705  10.908  0.00  0.00    +0.005 A 
ATOM     29  C   UNL     1      13.955  25.392  10.505  0.00  0.00    +0.013 A 
BRANCH  18  19
ATOM     19  C   UNL     1      13.808  29.258  10.785  0.00  0.00    +0.119 C 
BRANCH  19  20
ATOM     20  N   UNL     1      14.497  29.754  12.013  0.00  0.00    -0.302 NA
ATOM     21  C   UNL     1      15.925  29.215  12.129  0.00  0.00    +0.066 C 
ATOM     22  C   UNL     1      16.639  29.762  13.408  0.00  0.00    -0.064 C 
ATOM     23  N   UNL     1      15.818  29.391  14.644  0.00  0.00    +0.379 N 
ATOM     24  C   UNL     1      16.516  29.853  15.853  0.00  0.00    -0.096 C 
ATOM     25  H   UNL     1      15.761  28.279  14.691  0.00  0.00    -0.082 HD
ATOM     26  C   UNL     1      14.395  29.922  14.537  0.00  0.00    -0.064 C 
ATOM     27  C   UNL     1      13.705  29.396  13.247  0.00  0.00    +0.066 C 
ENDBRANCH  19  20
ENDBRANCH  18  19
ENDBRANCH  14  15
ENDBRANCH  12  13
TORSDOF 6
ENDMDL
MODEL 3
REMARK VINA RESULT:      -9.4      1.799      2.577
REMARK  Name = C:\Users\Docking\Desktop\test protocol\1iep_ligandH.pdb
REMARK  8 active torsions:
REMARK  status: ('A' for Active; 'I' for Inactive)
REMARK    1  A    between atoms: _5  and  _11
REMARK    2  A    between atoms: _19  and  _21
REMARK    3  A    between atoms: _22  and  _66
REMARK    4  A    between atoms: _27  and  _30
REMARK    5  A    between atoms: _32  and  _33
REMARK    6  A    between atoms: _38  and  _43
REMARK    7  A    between atoms: _43  and  _46
REMARK    8  A    between atoms: _53  and  _55
REMARK                            x       y       z     vdW  Elec       q    Type
REMARK                         _______ _______ _______ _____ _____    ______ ____
ROOT
ATOM     10  C   UNL     1      16.016  18.627  13.523  0.00  0.00    +0.038 A 
ATOM     11  C   UNL     1      16.088  19.584  12.479  0.00  0.00    +0.047 A 
ATOM     12  C   UNL     1      15.640  19.265  11.133  0.00  0.00    +0.035 A 
ATOM     32  C   UNL     1      15.120  17.961  10.885  0.00  0.00    +0.024 A 
ATOM     33  C   UNL     1      15.040  16.975  11.934  0.00  0.00    +0.007 A 
ATOM     34  C   UNL     1      15.484  17.283  13.264  0.00  0.00    -0.029 A 
ATOM     35  C   UNL     1      15.381  16.185  14.347  0.00  0.00    +0.045 C 
ENDROOT
BRANCH  10   9
ATOM      4  C   UNL     1      19.368  18.758  16.956  0.00  0.00    +0.077 A 
ATOM      5  C   UNL     1      20.303  18.023  16.153  0.00  0.00    +0.048 A 
ATOM      6  C   UNL     1      19.880  17.624  14.866  0.00  0.00    +0.116 A 
ATOM      7  N   UNL     1      18.614  17.941  14.424  0.00  0.00    -0.223 NA
ATOM      8  C   UNL     1      17.736  18.650  15.224  0.00  0.00    +0.220 A 
ATOM      9  N   UNL     1      16.461  18.987  14.797  0.00  0.00    -0.283 N 
ATOM     36  H   UNL     1      15.841  19.504  15.420  0.00  0.00    +0.155 HD
ATOM     37  N   UNL     1      18.116  19.041  16.458  0.00  0.00    -0.214 NA
BRANCH   4   3
ATOM      1  C   UNL     1      20.837  20.795  19.954  0.00  0.00    +0.020 A 
ATOM      2  C   UNL     1      20.581  20.357  18.602  0.00  0.00    +0.013 A 
ATOM      3  C   UNL     1      19.668  19.252  18.337  0.00  0.00    +0.019 A 
ATOM     38  C   UNL     1      19.025  18.608  19.472  0.00  0.00    +0.120 A 
ATOM     39  N   UNL     1      19.291  19.051  20.764  0.00  0.00    -0.263 NA
ATOM     40  C   UNL     1      20.169  20.112  21.031  0.00  0.00    +0.111 A 
ENDBRANCH   4   3
ENDBRANCH  10   9
BRANCH  12  13
ATOM     13  N   UNL     1      15.696  20.194  10.031  0.00  0.00    -0.281 N 
ATOM     14  C   UNL     1      14.841  21.250   9.763  0.00  0.00    +0.248 C 
ATOM     30  O   UNL     1      13.766  21.427  10.317  0.00  0.00    -0.270 OA
ATOM     31  H   UNL     1      16.459  20.056   9.369  0.00  0.00    +0.155 HD
BRANCH  14  15
ATOM     15  C   UNL     1      15.230  22.247   8.719  0.00  0.00    +0.037 A 
ATOM     16  C   UNL     1      16.626  22.410   8.307  0.00  0.00    +0.013 A 
ATOM     17  C   UNL     1      16.976  23.391   7.310  0.00  0.00    +0.005 A 
ATOM     18  C   UNL     1      15.925  24.214   6.716  0.00  0.00    -0.033 A 
ATOM     28  C   UNL     1      14.547  24.027   7.140  0.00  0.00    +0.005 A 
ATOM     29  C   UNL     1      14.201  23.068   8.118  0.00  0.00    +0.013 A 
BRANCH  18  19
ATOM     19  C   UNL     1      16.209  25.299   5.661  0.00  0.00    +0.119 C 
BRANCH  19  20
ATOM     20  N   UNL     1      16.624  26.645   6.158  0.00  0.00    -0.302 NA
ATOM     21  C   UNL     1      15.905  27.777   5.418  0.00  0.00    +0.066 C 
ATOM     22  C   UNL     1      16.334  29.177   5.967  0.00  0.00    -0.064 C 
ATOM     23  N   UNL     1      17.851  29.328   5.843  0.00  0.00    +0.379 N 
ATOM     24  C   UNL     1      18.250  30.665   6.304  0.00  0.00    -0.096 C 
ATOM     25  H   UNL     1      18.111  29.250   4.762  0.00  0.00    -0.082 HD
ATOM     26  C   UNL     1      18.573  28.204   6.573  0.00  0.00    -0.064 C 
ATOM     27  C   UNL     1      18.118  26.817   6.041  0.00  0.00    +0.066 C 
ENDBRANCH  19  20
ENDBRANCH  18  19
ENDBRANCH  14  15
ENDBRANCH  12  13
TORSDOF 6
ENDMDL
MODEL 4
REMARK VINA RESULT:      -9.2      5.323     11.559
REMARK  Name = C:\Users\Docking\Desktop\test protocol\1iep_ligandH.pdb
REMARK  8 active torsions:
REMARK  status: ('A' for Active; 'I' for Inactive)
REMARK    1  A    between atoms: _5  and  _11
REMARK    2  A    between atoms: _19  and  _21
REMARK    3  A    between atoms: _22  and  _66
REMARK    4  A    between atoms: _27  and  _30
REMARK    5  A    between atoms: _32  and  _33
REMARK    6  A    between atoms: _38  and  _43
REMARK    7  A    between atoms: _43  and  _46
REMARK    8  A    between atoms: _53  and  _55
REMARK                            x       y       z     vdW  Elec       q    Type
REMARK                         _______ _______ _______ _____ _____    ______ ____
ROOT
ATOM     10  C   UNL     1      16.682  22.081   9.474  0.00  0.00    +0.038 A 
ATOM     11  C   UNL     1      16.012  21.033  10.155  0.00  0.00    +0.047 A 
ATOM     12  C   UNL     1      16.483  19.660  10.074  0.00  0.00    +0.035 A 
ATOM     32  C   UNL     1      17.643  19.389   9.291  0.00  0.00    +0.024 A 
ATOM     33  C   UNL     1      18.337  20.442   8.591  0.00  0.00    +0.007 A 
ATOM     34  C   UNL     1      17.875  21.799   8.666  0.00  0.00    -0.029 A 
ATOM     35  C   UNL     1      18.653  22.886   7.890  0.00  0.00    +0.045 C 
ENDROOT
BRANCH  10   9
ATOM      4  C   UNL     1      13.079  25.203  10.031  0.00  0.00    +0.077 A 
ATOM      5  C   UNL     1      12.100  24.156  10.073  0.00  0.00    +0.048 A 
ATOM      6  C   UNL     1      12.564  22.828   9.940  0.00  0.00    +0.116 A 
ATOM      7  N   UNL     1      13.909  22.578   9.779  0.00  0.00    -0.223 NA
ATOM      8  C   UNL     1      14.827  23.611   9.741  0.00  0.00    +0.220 A 
ATOM      9  N   UNL     1      16.186  23.382   9.588  0.00  0.00    -0.283 N 
ATOM     36  H   UNL     1      16.830  24.172   9.558  0.00  0.00    +0.155 HD
ATOM     37  N   UNL     1      14.409  24.888   9.864  0.00  0.00    -0.214 NA
BRANCH   4   3
ATOM      1  C   UNL     1      12.988  28.918  11.254  0.00  0.00    +0.020 A 
ATOM      2  C   UNL     1      13.344  27.520  11.172  0.00  0.00    +0.013 A 
ATOM      3  C   UNL     1      12.746  26.657  10.161  0.00  0.00    +0.019 A 
ATOM     38  C   UNL     1      11.783  27.244   9.241  0.00  0.00    +0.120 A 
ATOM     39  N   UNL     1      11.458  28.593   9.345  0.00  0.00    -0.263 NA
ATOM     40  C   UNL     1      12.026  29.433  10.315  0.00  0.00    +0.111 A 
ENDBRANCH   4   3
ENDBRANCH  10   9
BRANCH  12  13
ATOM     13  N   UNL     1      15.839  18.553  10.737  0.00  0.00    -0.281 N 
ATOM     14  C   UNL     1      15.921  18.196  12.073  0.00  0.00    +0.248 C 
ATOM     30  O   UNL     1      16.736  18.652  12.861  0.00  0.00    -0.270 OA
ATOM     31  H   UNL     1      15.251  17.962  10.150  0.00  0.00    +0.155 HD
BRANCH  14  15
ATOM     15  C   UNL     1      14.970  17.175  12.607  0.00  0.00    +0.037 A 
ATOM     16  C   UNL     1      15.263  16.432  13.835  0.00  0.00    +0.013 A 
ATOM     17  C   UNL     1      14.336  15.439  14.319  0.00  0.00    +0.005 A 
ATOM     18  C   UNL     1      13.105  15.186  13.574  0.00  0.00    -0.033 A 
ATOM     28  C   UNL     1      12.837  15.941  12.362  0.00  0.00    +0.005 A 
ATOM     29  C   UNL     1      13.743  16.914  11.884  0.00  0.00    +0.013 A 
BRANCH  18  19
ATOM     19  C   UNL     1      12.069  14.131  14.005  0.00  0.00    +0.119 C 
BRANCH  19  20
ATOM     20  N   UNL     1      10.627  14.474  13.824  0.00  0.00    -0.302 NA
ATOM     21  C   UNL     1       9.780  14.052  15.027  0.00  0.00    +0.066 C 
ATOM     22  C   UNL     1       8.278  14.439  14.830  0.00  0.00    -0.064 C 
ATOM     23  N   UNL     1       7.753  13.795  13.546  0.00  0.00    +0.379 N 
ATOM     24  C   UNL     1       6.326  14.109  13.388  0.00  0.00    -0.096 C 
ATOM     25  H   UNL     1       7.846  12.690  13.659  0.00  0.00    -0.082 HD
ATOM     26  C   UNL     1       8.591  14.208  12.344  0.00  0.00    -0.064 C 
ATOM     27  C   UNL     1      10.087  13.845  12.563  0.00  0.00    +0.066 C 
ENDBRANCH  19  20
ENDBRANCH  18  19
ENDBRANCH  14  15
ENDBRANCH  12  13
TORSDOF 6
ENDMDL
MODEL 5
REMARK VINA RESULT:      -8.8      4.987      7.397
REMARK  Name = C:\Users\Docking\Desktop\test protocol\1iep_ligandH.pdb
REMARK  8 active torsions:
REMARK  status: ('A' for Active; 'I' for Inactive)
REMARK    1  A    between atoms: _5  and  _11
REMARK    2  A    between atoms: _19  and  _21
REMARK    3  A    between atoms: _22  and  _66
REMARK    4  A    between atoms: _27  and  _30
REMARK    5  A    between atoms: _32  and  _33
REMARK    6  A    between atoms: _38  and  _43
REMARK    7  A    between atoms: _43  and  _46
REMARK    8  A    between atoms: _53  and  _55
REMARK                            x       y       z     vdW  Elec       q    Type
REMARK                         _______ _______ _______ _____ _____    ______ ____
ROOT
ATOM     10  C   UNL     1      14.985  22.762   9.942  0.00  0.00    +0.038 A 
ATOM     11  C   UNL     1      15.972  23.581   9.337  0.00  0.00    +0.047 A 
ATOM     12  C   UNL     1      15.638  24.480   8.244  0.00  0.00    +0.035 A 
ATOM     32  C   UNL     1      14.287  24.522   7.792  0.00  0.00    +0.024 A 
ATOM     33  C   UNL     1      13.271  23.695   8.394  0.00  0.00    +0.007 A 
ATOM     34  C   UNL     1      13.595  22.805   9.472  0.00  0.00    -0.029 A 
ATOM     35  C   UNL     1      12.466  21.937  10.075  0.00  0.00    +0.045 C 
ENDROOT
BRANCH  10   9
ATOM      4  C   UNL     1      16.002  18.422  11.721  0.00  0.00    +0.077 A 
ATOM      5  C   UNL     1      15.736  17.780  10.466  0.00  0.00    +0.048 A 
ATOM      6  C   UNL     1      15.332  18.601   9.390  0.00  0.00    +0.116 A 
ATOM      7  N   UNL     1      15.208  19.962   9.566  0.00  0.00    -0.223 NA
ATOM      8  C   UNL     1      15.471  20.550  10.790  0.00  0.00    +0.220 A 
ATOM      9  N   UNL     1      15.361  21.917  10.988  0.00  0.00    -0.283 N 
ATOM     36  H   UNL     1      15.557  22.311  11.908  0.00  0.00    +0.155 HD
ATOM     37  N   UNL     1      15.857  19.787  11.834  0.00  0.00    -0.214 NA
BRANCH   4   3
ATOM      1  C   UNL     1      18.035  16.202  14.219  0.00  0.00    +0.020 A 
ATOM      2  C   UNL     1      17.657  16.889  13.005  0.00  0.00    +0.013 A 
ATOM      3  C   UNL     1      16.440  17.690  12.951  0.00  0.00    +0.019 A 
ATOM     38  C   UNL     1      15.623  17.777  14.152  0.00  0.00    +0.120 A 
ATOM     39  N   UNL     1      16.012  17.103  15.306  0.00  0.00    -0.263 NA
ATOM     40  C   UNL     1      17.179  16.327  15.369  0.00  0.00    +0.111 A 
ENDBRANCH   4   3
ENDBRANCH  10   9
BRANCH  12  13
ATOM     13  N   UNL     1      16.600  25.329   7.586  0.00  0.00    -0.281 N 
ATOM     14  C   UNL     1      16.841  26.675   7.808  0.00  0.00    +0.248 C 
ATOM     30  O   UNL     1      16.114  27.408   8.461  0.00  0.00    -0.270 OA
ATOM     31  H   UNL     1      17.174  24.884   6.869  0.00  0.00    +0.155 HD
BRANCH  14  15
ATOM     15  C   UNL     1      18.057  27.300   7.206  0.00  0.00    +0.037 A 
ATOM     16  C   UNL     1      18.014  28.647   6.629  0.00  0.00    +0.013 A 
ATOM     17  C   UNL     1      19.197  29.220   6.039  0.00  0.00    +0.005 A 
ATOM     18  C   UNL     1      20.436  28.446   6.024  0.00  0.00    -0.033 A 
ATOM     28  C   UNL     1      20.453  27.115   6.608  0.00  0.00    +0.005 A 
ATOM     29  C   UNL     1      19.295  26.549   7.186  0.00  0.00    +0.013 A 
BRANCH  18  19
ATOM     19  C   UNL     1      21.742  28.970   5.397  0.00  0.00    +0.119 C 
BRANCH  19  20
ATOM     20  N   UNL     1      21.697  30.313   4.747  0.00  0.00    -0.302 NA
ATOM     21  C   UNL     1      21.477  30.213   3.235  0.00  0.00    +0.066 C 
ATOM     22  C   UNL     1      21.410  31.629   2.574  0.00  0.00    -0.064 C 
ATOM     23  N   UNL     1      22.698  32.394   2.885  0.00  0.00    +0.379 N 
ATOM     24  C   UNL     1      22.663  33.704   2.217  0.00  0.00    -0.096 C 
ATOM     25  H   UNL     1      23.547  31.816   2.452  0.00  0.00    -0.082 HD
ATOM     26  C   UNL     1      22.926  32.496   4.386  0.00  0.00    -0.064 C 
ATOM     27  C   UNL     1      22.961  31.085   5.037  0.00  0.00    +0.066 C 
ENDBRANCH  19  20
ENDBRANCH  18  19
ENDBRANCH  14  15
ENDBRANCH  12  13
TORSDOF 6
ENDMDL
