MODEL 1
REMARK VINA RESULT:      -9.0      0.000      0.000
REMARK  Name = C:\Users\Docking\Desktop\test protocol\1iep_ligandH.pdb
REMARK  8 active torsions:
REMARK  status: ('A' for Active; 'I' for Inactive)
REMARK    1  A    between atoms: _5  and  _11
REMARK    2  A    between atoms: _19  and  _21
REMARK    3  A    between atoms: _22  and  _66
REMARK    4  A    between atoms: _27  and  _30
REMARK    5  A    between atoms: _32  and  _33
REMARK    6  A    between atoms: _38  and  _43
REMARK    7  A    between atoms: _43  and  _46
REMARK    8  A    between atoms: _53  and  _55
REMARK                            x       y       z     vdW  Elec       q    Type
REMARK                         _______ _______ _______ _____ _____    ______ ____
ROOT
ATOM     10  C   UNL     1     143.478 126.954 143.811  0.00  0.00    +0.038 A 
ATOM     11  C   UNL     1     144.805 126.907 144.310  0.00  0.00    +0.047 A 
ATOM     12  C   UNL     1     145.549 128.127 144.584  0.00  0.00    +0.035 A 
ATOM     32  C   UNL     1     144.910 129.377 144.340  0.00  0.00    +0.024 A 
ATOM     33  C   UNL     1     143.563 129.443 143.832  0.00  0.00    +0.007 A 
ATOM     34  C   UNL     1     142.825 128.244 143.558  0.00  0.00    -0.029 A 
ATOM     35  C   UNL     1     141.385 128.374 143.007  0.00  0.00    +0.045 C 
ENDROOT
BRANCH  10   9
ATOM      4  C   UNL     1     142.349 123.239 140.989  0.00  0.00    +0.077 A 
ATOM      5  C   UNL     1     143.134 123.749 139.903  0.00  0.00    +0.048 A 
ATOM      6  C   UNL     1     143.808 124.974 140.108  0.00  0.00    +0.116 A 
ATOM      7  N   UNL     1     143.697 125.631 141.314  0.00  0.00    -0.223 NA
ATOM      8  C   UNL     1     142.930 125.113 142.341  0.00  0.00    +0.220 A 
ATOM      9  N   UNL     1     142.811 125.752 143.565  0.00  0.00    -0.283 N 
ATOM     36  H   UNL     1     142.229 125.341 144.295  0.00  0.00    +0.155 HD
ATOM     37  N   UNL     1     142.276 123.945 142.169  0.00  0.00    -0.214 NA
BRANCH   4   3
ATOM      1  C   UNL     1     141.180 119.631 140.032  0.00  0.00    +0.020 A 
ATOM      2  C   UNL     1     141.955 120.850 140.054  0.00  0.00    +0.013 A 
ATOM      3  C   UNL     1     141.581 121.955 140.927  0.00  0.00    +0.019 A 
ATOM     38  C   UNL     1     140.408 121.793 141.773  0.00  0.00    +0.120 A 
ATOM     39  N   UNL     1     139.680 120.608 141.729  0.00  0.00    -0.263 NA
ATOM     40  C   UNL     1     140.030 119.539 140.892  0.00  0.00    +0.111 A 
ENDBRANCH   4   3
ENDBRANCH  10   9
BRANCH  12  13
ATOM     13  N   UNL     1     146.902 128.142 145.084  0.00  0.00    -0.281 N 
ATOM     14  C   UNL     1     148.078 128.207 144.356  0.00  0.00    +0.248 C 
ATOM     30  O   UNL     1     148.152 128.046 143.147  0.00  0.00    -0.270 OA
ATOM     31  H   UNL     1     147.004 128.099 146.098  0.00  0.00    +0.155 HD
BRANCH  14  15
ATOM     15  C   UNL     1     149.360 128.475 145.077  0.00  0.00    +0.037 A 
ATOM     16  C   UNL     1     149.508 128.170 146.502  0.00  0.00    +0.013 A 
ATOM     17  C   UNL     1     150.750 128.454 147.177  0.00  0.00    +0.005 A 
ATOM     18  C   UNL     1     151.854 129.046 146.426  0.00  0.00    -0.033 A 
ATOM     28  C   UNL     1     151.682 129.333 145.011  0.00  0.00    +0.005 A 
ATOM     29  C   UNL     1     150.466 129.057 144.347  0.00  0.00    +0.013 A 
BRANCH  18  19
ATOM     19  C   UNL     1     153.207 129.402 147.069  0.00  0.00    +0.119 C 
BRANCH  19  20
ATOM     20  N   UNL     1     153.210 130.480 148.103  0.00  0.00    -0.302 NA
ATOM     21  C   UNL     1     152.963 129.928 149.509  0.00  0.00    +0.066 C 
ATOM     22  C   UNL     1     152.992 131.066 150.581  0.00  0.00    -0.064 C 
ATOM     23  N   UNL     1     151.947 132.126 150.224  0.00  0.00    +0.379 N 
ATOM     24  C   UNL     1     151.932 133.168 151.260  0.00  0.00    -0.096 C 
ATOM     25  H   UNL     1     150.949 131.630 150.227  0.00  0.00    -0.082 HD
ATOM     26  C   UNL     1     152.184 132.678 148.825  0.00  0.00    -0.064 C 
ATOM     27  C   UNL     1     152.183 131.535 147.772  0.00  0.00    +0.066 C 
ENDBRANCH  19  20
ENDBRANCH  18  19
ENDBRANCH  14  15
ENDBRANCH  12  13
TORSDOF 6
ENDMDL
MODEL 2
REMARK VINA RESULT:      -9.0      7.199     14.296
REMARK  Name = C:\Users\Docking\Desktop\test protocol\1iep_ligandH.pdb
REMARK  8 active torsions:
REMARK  status: ('A' for Active; 'I' for Inactive)
REMARK    1  A    between atoms: _5  and  _11
REMARK    2  A    between atoms: _19  and  _21
REMARK    3  A    between atoms: _22  and  _66
REMARK    4  A    between atoms: _27  and  _30
REMARK    5  A    between atoms: _32  and  _33
REMARK    6  A    between atoms: _38  and  _43
REMARK    7  A    between atoms: _43  and  _46
REMARK    8  A    between atoms: _53  and  _55
REMARK                            x       y       z     vdW  Elec       q    Type
REMARK                         _______ _______ _______ _____ _____    ______ ____
ROOT
ATOM     10  C   UNL     1     141.443 126.152 142.132  0.00  0.00    +0.038 A 
ATOM     11  C   UNL     1     140.725 125.007 141.703  0.00  0.00    +0.047 A 
ATOM     12  C   UNL     1     140.254 124.014 142.655  0.00  0.00    +0.035 A 
ATOM     32  C   UNL     1     140.530 124.219 144.038  0.00  0.00    +0.024 A 
ATOM     33  C   UNL     1     141.259 125.377 144.492  0.00  0.00    +0.007 A 
ATOM     34  C   UNL     1     141.728 126.360 143.557  0.00  0.00    -0.029 A 
ATOM     35  C   UNL     1     142.511 127.578 144.100  0.00  0.00    +0.045 C 
ENDROOT
BRANCH  10   9
ATOM      4  C   UNL     1     144.485 127.599 138.713  0.00  0.00    +0.077 A 
ATOM      5  C   UNL     1     145.305 126.432 138.866  0.00  0.00    +0.048 A 
ATOM      6  C   UNL     1     144.913 125.487 139.841  0.00  0.00    +0.116 A 
ATOM      7  N   UNL     1     143.784 125.703 140.600  0.00  0.00    -0.223 NA
ATOM      8  C   UNL     1     143.016 126.841 140.428  0.00  0.00    +0.220 A 
ATOM      9  N   UNL     1     141.872 127.075 141.175  0.00  0.00    -0.283 N 
ATOM     36  H   UNL     1     141.337 127.929 141.023  0.00  0.00    +0.155 HD
ATOM     37  N   UNL     1     143.370 127.759 139.505  0.00  0.00    -0.214 NA
BRANCH   4   3
ATOM      1  C   UNL     1     144.445 131.016 136.810  0.00  0.00    +0.020 A 
ATOM      2  C   UNL     1     144.138 130.000 137.790  0.00  0.00    +0.013 A 
ATOM      3  C   UNL     1     144.767 128.687 137.724  0.00  0.00    +0.019 A 
ATOM     38  C   UNL     1     145.709 128.432 136.645  0.00  0.00    +0.120 A 
ATOM     39  N   UNL     1     145.984 129.429 135.714  0.00  0.00    -0.263 NA
ATOM     40  C   UNL     1     145.384 130.696 135.767  0.00  0.00    +0.111 A 
ENDBRANCH   4   3
ENDBRANCH  10   9
BRANCH  12  13
ATOM     13  N   UNL     1     139.527 122.827 142.277  0.00  0.00    -0.281 N 
ATOM     14  C   UNL     1     140.025 121.674 141.693  0.00  0.00    +0.248 C 
ATOM     30  O   UNL     1     141.142 121.571 141.208  0.00  0.00    -0.270 OA
ATOM     31  H   UNL     1     138.524 122.839 142.463  0.00  0.00    +0.155 HD
BRANCH  14  15
ATOM     15  C   UNL     1     139.149 120.464 141.624  0.00  0.00    +0.037 A 
ATOM     16  C   UNL     1     139.718 119.123 141.462  0.00  0.00    +0.013 A 
ATOM     17  C   UNL     1     138.850 117.975 141.381  0.00  0.00    +0.005 A 
ATOM     18  C   UNL     1     137.404 118.163 141.463  0.00  0.00    -0.033 A 
ATOM     28  C   UNL     1     136.867 119.504 141.629  0.00  0.00    +0.005 A 
ATOM     29  C   UNL     1     137.714 120.632 141.707  0.00  0.00    +0.013 A 
BRANCH  18  19
ATOM     19  C   UNL     1     136.402 116.997 141.365  0.00  0.00    +0.119 C 
BRANCH  19  20
ATOM     20  N   UNL     1     135.386 116.876 142.453  0.00  0.00    -0.302 NA
ATOM     21  C   UNL     1     136.031 116.593 143.812  0.00  0.00    +0.066 C 
ATOM     22  C   UNL     1     134.955 116.491 144.942  0.00  0.00    -0.064 C 
ATOM     23  N   UNL     1     133.945 115.399 144.585  0.00  0.00    +0.379 N 
ATOM     24  C   UNL     1     132.966 115.261 145.672  0.00  0.00    -0.096 C 
ATOM     25  H   UNL     1     134.502 114.437 144.506  0.00  0.00    -0.082 HD
ATOM     26  C   UNL     1     133.301 115.671 143.232  0.00  0.00    -0.064 C 
ATOM     27  C   UNL     1     134.381 115.800 142.122  0.00  0.00    +0.066 C 
ENDBRANCH  19  20
ENDBRANCH  18  19
ENDBRANCH  14  15
ENDBRANCH  12  13
TORSDOF 6
ENDMDL
MODEL 3
REMARK VINA RESULT:      -8.9      7.390     14.434
REMARK  Name = C:\Users\Docking\Desktop\test protocol\1iep_ligandH.pdb
REMARK  8 active torsions:
REMARK  status: ('A' for Active; 'I' for Inactive)
REMARK    1  A    between atoms: _5  and  _11
REMARK    2  A    between atoms: _19  and  _21
REMARK    3  A    between atoms: _22  and  _66
REMARK    4  A    between atoms: _27  and  _30
REMARK    5  A    between atoms: _32  and  _33
REMARK    6  A    between atoms: _38  and  _43
REMARK    7  A    between atoms: _43  and  _46
REMARK    8  A    between atoms: _53  and  _55
REMARK                            x       y       z     vdW  Elec       q    Type
REMARK                         _______ _______ _______ _____ _____    ______ ____
ROOT
ATOM     10  C   UNL     1     141.278 125.985 142.203  0.00  0.00    +0.038 A 
ATOM     11  C   UNL     1     140.654 124.795 141.749  0.00  0.00    +0.047 A 
ATOM     12  C   UNL     1     140.181 123.788 142.685  0.00  0.00    +0.035 A 
ATOM     32  C   UNL     1     140.359 124.026 144.080  0.00  0.00    +0.024 A 
ATOM     33  C   UNL     1     140.993 125.229 144.559  0.00  0.00    +0.007 A 
ATOM     34  C   UNL     1     141.463 126.225 143.639  0.00  0.00    -0.029 A 
ATOM     35  C   UNL     1     142.141 127.492 144.210  0.00  0.00    +0.045 C 
ENDROOT
BRANCH  10   9
ATOM      4  C   UNL     1     144.239 127.399 138.700  0.00  0.00    +0.077 A 
ATOM      5  C   UNL     1     145.002 126.187 138.775  0.00  0.00    +0.048 A 
ATOM      6  C   UNL     1     144.604 125.228 139.733  0.00  0.00    +0.116 A 
ATOM      7  N   UNL     1     143.522 125.473 140.550  0.00  0.00    -0.223 NA
ATOM      8  C   UNL     1     142.809 126.654 140.453  0.00  0.00    +0.220 A 
ATOM      9  N   UNL     1     141.712 126.919 141.260  0.00  0.00    -0.283 N 
ATOM     36  H   UNL     1     141.217 127.805 141.162  0.00  0.00    +0.155 HD
ATOM     37  N   UNL     1     143.170 127.586 139.548  0.00  0.00    -0.214 NA
BRANCH   4   3
ATOM      1  C   UNL     1     144.207 130.847 136.853  0.00  0.00    +0.020 A 
ATOM      2  C   UNL     1     143.887 129.811 137.808  0.00  0.00    +0.013 A 
ATOM      3  C   UNL     1     144.534 128.507 137.737  0.00  0.00    +0.019 A 
ATOM     38  C   UNL     1     145.509 128.282 136.681  0.00  0.00    +0.120 A 
ATOM     39  N   UNL     1     145.797 129.298 135.775  0.00  0.00    -0.263 NA
ATOM     40  C   UNL     1     145.179 130.556 135.832  0.00  0.00    +0.111 A 
ENDBRANCH   4   3
ENDBRANCH  10   9
BRANCH  12  13
ATOM     13  N   UNL     1     139.547 122.557 142.282  0.00  0.00    -0.281 N 
ATOM     14  C   UNL     1     140.129 121.461 141.667  0.00  0.00    +0.248 C 
ATOM     30  O   UNL     1     141.248 121.458 141.175  0.00  0.00    -0.270 OA
ATOM     31  H   UNL     1     138.548 122.486 142.473  0.00  0.00    +0.155 HD
BRANCH  14  15
ATOM     15  C   UNL     1     139.351 120.188 141.573  0.00  0.00    +0.037 A 
ATOM     16  C   UNL     1     137.886 120.188 141.617  0.00  0.00    +0.013 A 
ATOM     17  C   UNL     1     137.161 118.945 141.541  0.00  0.00    +0.005 A 
ATOM     18  C   UNL     1     137.900 117.691 141.419  0.00  0.00    -0.033 A 
ATOM     28  C   UNL     1     139.352 117.720 141.372  0.00  0.00    +0.005 A 
ATOM     29  C   UNL     1     140.067 118.937 141.447  0.00  0.00    +0.013 A 
BRANCH  18  19
ATOM     19  C   UNL     1     137.209 116.316 141.353  0.00  0.00    +0.119 C 
BRANCH  19  20
ATOM     20  N   UNL     1     137.997 115.181 140.786  0.00  0.00    -0.302 NA
ATOM     21  C   UNL     1     137.791 115.037 139.275  0.00  0.00    +0.066 C 
ATOM     22  C   UNL     1     138.640 113.860 138.695  0.00  0.00    -0.064 C 
ATOM     23  N   UNL     1     138.270 112.563 139.418  0.00  0.00    +0.379 N 
ATOM     24  C   UNL     1     139.025 111.444 138.835  0.00  0.00    -0.096 C 
ATOM     25  H   UNL     1     137.187 112.373 139.236  0.00  0.00    -0.082 HD
ATOM     26  C   UNL     1     138.469 112.698 140.921  0.00  0.00    -0.064 C 
ATOM     27  C   UNL     1     137.644 113.890 141.482  0.00  0.00    +0.066 C 
ENDBRANCH  19  20
ENDBRANCH  18  19
ENDBRANCH  14  15
ENDBRANCH  12  13
TORSDOF 6
ENDMDL
MODEL 4
REMARK VINA RESULT:      -8.7      4.933     13.342
REMARK  Name = C:\Users\Docking\Desktop\test protocol\1iep_ligandH.pdb
REMARK  8 active torsions:
REMARK  status: ('A' for Active; 'I' for Inactive)
REMARK    1  A    between atoms: _5  and  _11
REMARK    2  A    between atoms: _19  and  _21
REMARK    3  A    between atoms: _22  and  _66
REMARK    4  A    between atoms: _27  and  _30
REMARK    5  A    between atoms: _32  and  _33
REMARK    6  A    between atoms: _38  and  _43
REMARK    7  A    between atoms: _43  and  _46
REMARK    8  A    between atoms: _53  and  _55
REMARK                            x       y       z     vdW  Elec       q    Type
REMARK                         _______ _______ _______ _____ _____    ______ ____
ROOT
ATOM     10  C   UNL     1     143.236 128.230 141.666  0.00  0.00    +0.038 A 
ATOM     11  C   UNL     1     142.894 126.923 141.234  0.00  0.00    +0.047 A 
ATOM     12  C   UNL     1     141.839 126.166 141.889  0.00  0.00    +0.035 A 
ATOM     32  C   UNL     1     141.151 126.771 142.981  0.00  0.00    +0.024 A 
ATOM     33  C   UNL     1     141.486 128.098 143.434  0.00  0.00    +0.007 A 
ATOM     34  C   UNL     1     142.528 128.849 142.793  0.00  0.00    -0.029 A 
ATOM     35  C   UNL     1     142.849 130.265 143.325  0.00  0.00    +0.045 C 
ENDROOT
BRANCH  10   9
ATOM      4  C   UNL     1     147.844 129.450 141.103  0.00  0.00    +0.077 A 
ATOM      5  C   UNL     1     148.248 128.685 142.247  0.00  0.00    +0.048 A 
ATOM      6  C   UNL     1     147.238 127.998 142.958  0.00  0.00    +0.116 A 
ATOM      7  N   UNL     1     145.925 128.077 142.545  0.00  0.00    -0.223 NA
ATOM      8  C   UNL     1     145.570 128.825 141.438  0.00  0.00    +0.220 A 
ATOM      9  N   UNL     1     144.257 128.912 141.001  0.00  0.00    -0.283 N 
ATOM     36  H   UNL     1     144.034 129.481 140.184  0.00  0.00    +0.155 HD
ATOM     37  N   UNL     1     146.515 129.491 140.743  0.00  0.00    -0.214 NA
BRANCH   4   3
ATOM      1  C   UNL     1     150.836 131.672 139.918  0.00  0.00    +0.020 A 
ATOM      2  C   UNL     1     149.949 130.936 140.787  0.00  0.00    +0.013 A 
ATOM      3  C   UNL     1     148.795 130.228 140.247  0.00  0.00    +0.019 A 
ATOM     38  C   UNL     1     148.566 130.285 138.811  0.00  0.00    +0.120 A 
ATOM     39  N   UNL     1     149.437 131.004 137.999  0.00  0.00    -0.263 NA
ATOM     40  C   UNL     1     150.550 131.690 138.507  0.00  0.00    +0.111 A 
ENDBRANCH   4   3
ENDBRANCH  10   9
BRANCH  12  13
ATOM     13  N   UNL     1     141.454 124.832 141.500  0.00  0.00    -0.281 N 
ATOM     14  C   UNL     1     142.279 123.759 141.206  0.00  0.00    +0.248 C 
ATOM     30  O   UNL     1     143.485 123.842 141.027  0.00  0.00    -0.270 OA
ATOM     31  H   UNL     1     140.451 124.658 141.431  0.00  0.00    +0.155 HD
BRANCH  14  15
ATOM     15  C   UNL     1     141.675 122.397 141.080  0.00  0.00    +0.037 A 
ATOM     16  C   UNL     1     140.549 121.985 141.921  0.00  0.00    +0.013 A 
ATOM     17  C   UNL     1     139.996 120.660 141.791  0.00  0.00    +0.005 A 
ATOM     18  C   UNL     1     140.569 119.738 140.813  0.00  0.00    -0.033 A 
ATOM     28  C   UNL     1     141.683 120.175 139.988  0.00  0.00    +0.005 A 
ATOM     29  C   UNL     1     142.228 121.472 140.114  0.00  0.00    +0.013 A 
BRANCH  18  19
ATOM     19  C   UNL     1     140.056 118.298 140.621  0.00  0.00    +0.119 C 
BRANCH  19  20
ATOM     20  N   UNL     1     138.892 117.870 141.453  0.00  0.00    -0.302 NA
ATOM     21  C   UNL     1     139.052 116.438 141.970  0.00  0.00    +0.066 C 
ATOM     22  C   UNL     1     137.836 116.014 142.857  0.00  0.00    -0.064 C 
ATOM     23  N   UNL     1     136.545 116.157 142.049  0.00  0.00    +0.379 N 
ATOM     24  C   UNL     1     135.406 115.704 142.860  0.00  0.00    -0.096 C 
ATOM     25  H   UNL     1     136.622 115.480 141.166  0.00  0.00    -0.082 HD
ATOM     26  C   UNL     1     136.380 117.577 141.528  0.00  0.00    -0.064 C 
ATOM     27  C   UNL     1     137.607 117.999 140.672  0.00  0.00    +0.066 C 
ENDBRANCH  19  20
ENDBRANCH  18  19
ENDBRANCH  14  15
ENDBRANCH  12  13
TORSDOF 6
ENDMDL
MODEL 5
REMARK VINA RESULT:      -8.7     25.723     27.913
REMARK  Name = C:\Users\Docking\Desktop\test protocol\1iep_ligandH.pdb
REMARK  8 active torsions:
REMARK  status: ('A' for Active; 'I' for Inactive)
REMARK    1  A    between atoms: _5  and  _11
REMARK    2  A    between atoms: _19  and  _21
REMARK    3  A    between atoms: _22  and  _66
REMARK    4  A    between atoms: _27  and  _30
REMARK    5  A    between atoms: _32  and  _33
REMARK    6  A    between atoms: _38  and  _43
REMARK    7  A    between atoms: _43  and  _46
REMARK    8  A    between atoms: _53  and  _55
REMARK                            x       y       z     vdW  Elec       q    Type
REMARK                         _______ _______ _______ _____ _____    ______ ____
ROOT
ATOM     10  C   UNL     1     119.058 133.776 136.534  0.00  0.00    +0.038 A 
ATOM     11  C   UNL     1     119.444 133.549 137.879  0.00  0.00    +0.047 A 
ATOM     12  C   UNL     1     119.303 134.587 138.888  0.00  0.00    +0.035 A 
ATOM     32  C   UNL     1     118.762 135.845 138.492  0.00  0.00    +0.024 A 
ATOM     33  C   UNL     1     118.365 136.093 137.128  0.00  0.00    +0.007 A 
ATOM     34  C   UNL     1     118.504 135.073 136.128  0.00  0.00    -0.029 A 
ATOM     35  C   UNL     1     118.068 135.397 134.680  0.00  0.00    +0.045 C 
ENDROOT
BRANCH  10   9
ATOM      4  C   UNL     1     117.830 129.517 134.693  0.00  0.00    +0.077 A 
ATOM      5  C   UNL     1     116.806 129.319 135.678  0.00  0.00    +0.048 A 
ATOM      6  C   UNL     1     116.633 130.334 136.645  0.00  0.00    +0.116 A 
ATOM      7  N   UNL     1     117.429 131.459 136.619  0.00  0.00    -0.223 NA
ATOM      8  C   UNL     1     118.408 131.617 135.656  0.00  0.00    +0.220 A 
ATOM      9  N   UNL     1     119.215 132.743 135.606  0.00  0.00    -0.283 N 
ATOM     36  H   UNL     1     119.931 132.819 134.884  0.00  0.00    +0.155 HD
ATOM     37  N   UNL     1     118.595 130.661 134.722  0.00  0.00    -0.214 NA
BRANCH   4   3
ATOM      1  C   UNL     1     117.475 126.708 131.994  0.00  0.00    +0.020 A 
ATOM      2  C   UNL     1     117.131 127.636 133.046  0.00  0.00    +0.013 A 
ATOM      3  C   UNL     1     118.133 128.536 133.603  0.00  0.00    +0.019 A 
ATOM     38  C   UNL     1     119.485 128.471 133.068  0.00  0.00    +0.120 A 
ATOM     39  N   UNL     1     119.787 127.565 132.056  0.00  0.00    -0.263 NA
ATOM     40  C   UNL     1     118.832 126.693 131.513  0.00  0.00    +0.111 A 
ENDBRANCH   4   3
ENDBRANCH  10   9
BRANCH  12  13
ATOM     13  N   UNL     1     119.686 134.417 140.268  0.00  0.00    -0.281 N 
ATOM     14  C   UNL     1     120.895 133.960 140.766  0.00  0.00    +0.248 C 
ATOM     30  O   UNL     1     121.761 133.422 140.092  0.00  0.00    -0.270 OA
ATOM     31  H   UNL     1     118.980 134.664 140.961  0.00  0.00    +0.155 HD
BRANCH  14  15
ATOM     15  C   UNL     1     121.176 134.108 142.226  0.00  0.00    +0.037 A 
ATOM     16  C   UNL     1     122.386 133.541 142.829  0.00  0.00    +0.013 A 
ATOM     17  C   UNL     1     122.625 133.683 144.243  0.00  0.00    +0.005 A 
ATOM     18  C   UNL     1     121.652 134.399 145.065  0.00  0.00    -0.033 A 
ATOM     28  C   UNL     1     120.463 134.956 144.441  0.00  0.00    +0.005 A 
ATOM     29  C   UNL     1     120.225 134.817 143.055  0.00  0.00    +0.013 A 
BRANCH  18  19
ATOM     19  C   UNL     1     121.815 134.581 146.586  0.00  0.00    +0.119 C 
BRANCH  19  20
ATOM     20  N   UNL     1     121.961 135.977 147.095  0.00  0.00    -0.302 NA
ATOM     21  C   UNL     1     123.113 136.720 146.413  0.00  0.00    +0.066 C 
ATOM     22  C   UNL     1     123.238 138.186 146.942  0.00  0.00    -0.064 C 
ATOM     23  N   UNL     1     123.431 138.163 148.460  0.00  0.00    +0.379 N 
ATOM     24  C   UNL     1     123.606 139.537 148.952  0.00  0.00    -0.096 C 
ATOM     25  H   UNL     1     124.372 137.604 148.672  0.00  0.00    -0.082 HD
ATOM     26  C   UNL     1     122.291 137.424 149.145  0.00  0.00    -0.064 C 
ATOM     27  C   UNL     1     122.157 135.978 148.592  0.00  0.00    +0.066 C 
ENDBRANCH  19  20
ENDBRANCH  18  19
ENDBRANCH  14  15
ENDBRANCH  12  13
TORSDOF 6
ENDMDL
