MODEL 1
REMARK VINA RESULT:      -8.8      0.000      0.000
REMARK  Name = C:\Users\Docking\Desktop\test protocol\1iep_ligandH.pdb
REMARK  8 active torsions:
REMARK  status: ('A' for Active; 'I' for Inactive)
REMARK    1  A    between atoms: _5  and  _11
REMARK    2  A    between atoms: _19  and  _21
REMARK    3  A    between atoms: _22  and  _66
REMARK    4  A    between atoms: _27  and  _30
REMARK    5  A    between atoms: _32  and  _33
REMARK    6  A    between atoms: _38  and  _43
REMARK    7  A    between atoms: _43  and  _46
REMARK    8  A    between atoms: _53  and  _55
REMARK                            x       y       z     vdW  Elec       q    Type
REMARK                         _______ _______ _______ _____ _____    ______ ____
ROOT
ATOM     10  C   UNL     1       0.440 -53.842  60.729  0.00  0.00    +0.038 A 
ATOM     11  C   UNL     1       0.806 -55.112  60.215  0.00  0.00    +0.047 A 
ATOM     12  C   UNL     1       1.758 -55.961  60.914  0.00  0.00    +0.035 A 
ATOM     32  C   UNL     1       2.316 -55.487  62.136  0.00  0.00    +0.024 A 
ATOM     33  C   UNL     1       1.956 -54.198  62.673  0.00  0.00    +0.007 A 
ATOM     34  C   UNL     1       1.020 -53.354  61.987  0.00  0.00    -0.029 A 
ATOM     35  C   UNL     1       0.676 -51.979  62.605  0.00  0.00    +0.045 C 
ENDROOT
BRANCH  10   9
ATOM      4  C   UNL     1      -0.652 -50.603  57.360  0.00  0.00    +0.077 A 
ATOM      5  C   UNL     1       0.726 -50.417  57.007  0.00  0.00    +0.048 A 
ATOM      6  C   UNL     1       1.685 -51.169  57.722  0.00  0.00    +0.116 A 
ATOM      7  N   UNL     1       1.285 -52.039  58.713  0.00  0.00    -0.223 NA
ATOM      8  C   UNL     1      -0.052 -52.193  59.029  0.00  0.00    +0.220 A 
ATOM      9  N   UNL     1      -0.478 -53.068  60.017  0.00  0.00    -0.283 N 
ATOM     36  H   UNL     1      -1.473 -53.147  60.225  0.00  0.00    +0.155 HD
ATOM     37  N   UNL     1      -0.988 -51.485  58.362  0.00  0.00    -0.214 NA
BRANCH   4   3
ATOM      1  C   UNL     1      -2.789 -47.872  55.549  0.00  0.00    +0.020 A 
ATOM      2  C   UNL     1      -1.666 -48.522  56.185  0.00  0.00    +0.013 A 
ATOM      3  C   UNL     1      -1.783 -49.883  56.693  0.00  0.00    +0.019 A 
ATOM     38  C   UNL     1      -3.060 -50.564  56.541  0.00  0.00    +0.120 A 
ATOM     39  N   UNL     1      -4.124 -49.912  55.926  0.00  0.00    -0.263 NA
ATOM     40  C   UNL     1      -4.024 -48.602  55.434  0.00  0.00    +0.111 A 
ENDBRANCH   4   3
ENDBRANCH  10   9
BRANCH  12  13
ATOM     13  N   UNL     1       2.173 -57.257  60.436  0.00  0.00    -0.281 N 
ATOM     14  C   UNL     1       1.930 -58.494  61.009  0.00  0.00    +0.248 C 
ATOM     30  O   UNL     1       1.498 -58.659  62.140  0.00  0.00    -0.270 OA
ATOM     31  H   UNL     1       2.712 -57.262  59.569  0.00  0.00    +0.155 HD
BRANCH  14  15
ATOM     15  C   UNL     1       2.223 -59.727  60.216  0.00  0.00    +0.037 A 
ATOM     16  C   UNL     1       3.599 -60.168  59.978  0.00  0.00    +0.013 A 
ATOM     17  C   UNL     1       3.854 -61.352  59.195  0.00  0.00    +0.005 A 
ATOM     18  C   UNL     1       2.728 -62.104  58.647  0.00  0.00    -0.033 A 
ATOM     28  C   UNL     1       1.372 -61.647  58.903  0.00  0.00    +0.005 A 
ATOM     29  C   UNL     1       1.119 -60.486  59.669  0.00  0.00    +0.013 A 
BRANCH  18  19
ATOM     19  C   UNL     1       2.907 -63.366  57.783  0.00  0.00    +0.119 C 
BRANCH  19  20
ATOM     20  N   UNL     1       2.936 -64.681  58.491  0.00  0.00    -0.302 NA
ATOM     21  C   UNL     1       1.567 -65.054  59.066  0.00  0.00    +0.066 C 
ATOM     22  C   UNL     1       1.611 -66.442  59.784  0.00  0.00    -0.064 C 
ATOM     23  N   UNL     1       2.671 -66.411  60.886  0.00  0.00    +0.379 N 
ATOM     24  C   UNL     1       2.674 -67.695  61.601  0.00  0.00    -0.096 C 
ATOM     25  H   UNL     1       2.378 -65.619  61.614  0.00  0.00    -0.082 HD
ATOM     26  C   UNL     1       4.035 -66.038  60.323  0.00  0.00    -0.064 C 
ATOM     27  C   UNL     1       3.974 -64.670  59.587  0.00  0.00    +0.066 C 
ENDBRANCH  19  20
ENDBRANCH  18  19
ENDBRANCH  14  15
ENDBRANCH  12  13
TORSDOF 6
ENDMDL
MODEL 2
REMARK VINA RESULT:      -8.5     34.972     38.230
REMARK  Name = C:\Users\Docking\Desktop\test protocol\1iep_ligandH.pdb
REMARK  8 active torsions:
REMARK  status: ('A' for Active; 'I' for Inactive)
REMARK    1  A    between atoms: _5  and  _11
REMARK    2  A    between atoms: _19  and  _21
REMARK    3  A    between atoms: _22  and  _66
REMARK    4  A    between atoms: _27  and  _30
REMARK    5  A    between atoms: _32  and  _33
REMARK    6  A    between atoms: _38  and  _43
REMARK    7  A    between atoms: _43  and  _46
REMARK    8  A    between atoms: _53  and  _55
REMARK                            x       y       z     vdW  Elec       q    Type
REMARK                         _______ _______ _______ _____ _____    ______ ____
ROOT
ATOM     10  C   UNL     1       9.490 -19.121  67.481  0.00  0.00    +0.038 A 
ATOM     11  C   UNL     1       9.971 -19.977  68.503  0.00  0.00    +0.047 A 
ATOM     12  C   UNL     1      11.098 -19.592  69.338  0.00  0.00    +0.035 A 
ATOM     32  C   UNL     1      11.710 -18.325  69.106  0.00  0.00    +0.024 A 
ATOM     33  C   UNL     1      11.233 -17.443  68.070  0.00  0.00    +0.007 A 
ATOM     34  C   UNL     1      10.124 -17.819  67.241  0.00  0.00    -0.029 A 
ATOM     35  C   UNL     1       9.660 -16.836  66.141  0.00  0.00    +0.045 C 
ENDROOT
BRANCH  10   9
ATOM      4  C   UNL     1       4.777 -19.495  66.653  0.00  0.00    +0.077 A 
ATOM      5  C   UNL     1       4.448 -18.820  67.876  0.00  0.00    +0.048 A 
ATOM      6  C   UNL     1       5.521 -18.398  68.692  0.00  0.00    +0.116 A 
ATOM      7  N   UNL     1       6.822 -18.640  68.306  0.00  0.00    -0.223 NA
ATOM      8  C   UNL     1       7.104 -19.295  67.121  0.00  0.00    +0.220 A 
ATOM      9  N   UNL     1       8.404 -19.541  66.709  0.00  0.00    -0.283 N 
ATOM     36  H   UNL     1       8.570 -20.035  65.832  0.00  0.00    +0.155 HD
ATOM     37  N   UNL     1       6.097 -19.709  66.324  0.00  0.00    -0.214 NA
BRANCH   4   3
ATOM      1  C   UNL     1       3.005 -21.505  63.803  0.00  0.00    +0.020 A 
ATOM      2  C   UNL     1       4.029 -21.056  64.718  0.00  0.00    +0.013 A 
ATOM      3  C   UNL     1       3.753 -19.998  65.683  0.00  0.00    +0.019 A 
ATOM     38  C   UNL     1       2.422 -19.412  65.695  0.00  0.00    +0.120 A 
ATOM     39  N   UNL     1       1.456 -19.864  64.801  0.00  0.00    -0.263 NA
ATOM     40  C   UNL     1       1.710 -20.880  63.868  0.00  0.00    +0.111 A 
ENDBRANCH   4   3
ENDBRANCH  10   9
BRANCH  12  13
ATOM     13  N   UNL     1      11.637 -20.423  70.387  0.00  0.00    -0.281 N 
ATOM     14  C   UNL     1      11.281 -20.442  71.725  0.00  0.00    +0.248 C 
ATOM     30  O   UNL     1      10.591 -19.593  72.269  0.00  0.00    -0.270 OA
ATOM     31  H   UNL     1      12.369 -21.076  70.108  0.00  0.00    +0.155 HD
BRANCH  14  15
ATOM     15  C   UNL     1      11.775 -21.558  72.588  0.00  0.00    +0.037 A 
ATOM     16  C   UNL     1      10.853 -22.358  73.398  0.00  0.00    +0.013 A 
ATOM     17  C   UNL     1      11.357 -23.418  74.234  0.00  0.00    +0.005 A 
ATOM     18  C   UNL     1      12.793 -23.686  74.263  0.00  0.00    -0.033 A 
ATOM     28  C   UNL     1      13.685 -22.880  73.445  0.00  0.00    +0.005 A 
ATOM     29  C   UNL     1      13.194 -21.840  72.625  0.00  0.00    +0.013 A 
BRANCH  18  19
ATOM     19  C   UNL     1      13.422 -24.783  75.142  0.00  0.00    +0.119 C 
BRANCH  19  20
ATOM     20  N   UNL     1      14.096 -25.917  74.442  0.00  0.00    -0.302 NA
ATOM     21  C   UNL     1      15.503 -25.545  73.967  0.00  0.00    +0.066 C 
ATOM     22  C   UNL     1      16.202 -26.750  73.256  0.00  0.00    -0.064 C 
ATOM     23  N   UNL     1      15.340 -27.216  72.082  0.00  0.00    +0.379 N 
ATOM     24  C   UNL     1      16.022 -28.311  71.377  0.00  0.00    -0.096 C 
ATOM     25  H   UNL     1      15.247 -26.362  71.371  0.00  0.00    -0.082 HD
ATOM     26  C   UNL     1      13.938 -27.586  72.545  0.00  0.00    -0.064 C 
ATOM     27  C   UNL     1      13.263 -26.391  73.276  0.00  0.00    +0.066 C 
ENDBRANCH  19  20
ENDBRANCH  18  19
ENDBRANCH  14  15
ENDBRANCH  12  13
TORSDOF 6
ENDMDL
MODEL 3
REMARK VINA RESULT:      -8.4     35.304     38.826
REMARK  Name = C:\Users\Docking\Desktop\test protocol\1iep_ligandH.pdb
REMARK  8 active torsions:
REMARK  status: ('A' for Active; 'I' for Inactive)
REMARK    1  A    between atoms: _5  and  _11
REMARK    2  A    between atoms: _19  and  _21
REMARK    3  A    between atoms: _22  and  _66
REMARK    4  A    between atoms: _27  and  _30
REMARK    5  A    between atoms: _32  and  _33
REMARK    6  A    between atoms: _38  and  _43
REMARK    7  A    between atoms: _43  and  _46
REMARK    8  A    between atoms: _53  and  _55
REMARK                            x       y       z     vdW  Elec       q    Type
REMARK                         _______ _______ _______ _____ _____    ______ ____
ROOT
ATOM     10  C   UNL     1       7.236 -17.317  68.653  0.00  0.00    +0.038 A 
ATOM     11  C   UNL     1       7.756 -18.351  69.472  0.00  0.00    +0.047 A 
ATOM     12  C   UNL     1       9.115 -18.292  69.988  0.00  0.00    +0.035 A 
ATOM     32  C   UNL     1       9.917 -17.162  69.651  0.00  0.00    +0.024 A 
ATOM     33  C   UNL     1       9.405 -16.102  68.818  0.00  0.00    +0.007 A 
ATOM     34  C   UNL     1       8.066 -16.156  68.305  0.00  0.00    -0.029 A 
ATOM     35  C   UNL     1       7.572 -14.995  67.412  0.00  0.00    +0.045 C 
ENDROOT
BRANCH  10   9
ATOM      4  C   UNL     1       3.959 -19.048  65.603  0.00  0.00    +0.077 A 
ATOM      5  C   UNL     1       4.948 -19.776  64.862  0.00  0.00    +0.048 A 
ATOM      6  C   UNL     1       6.289 -19.674  65.294  0.00  0.00    +0.116 A 
ATOM      7  N   UNL     1       6.607 -18.897  66.387  0.00  0.00    -0.223 NA
ATOM      8  C   UNL     1       5.629 -18.206  67.078  0.00  0.00    +0.220 A 
ATOM      9  N   UNL     1       5.925 -17.425  68.185  0.00  0.00    -0.283 N 
ATOM     36  H   UNL     1       5.176 -16.925  68.664  0.00  0.00    +0.155 HD
ATOM     37  N   UNL     1       4.341 -18.286  66.685  0.00  0.00    -0.214 NA
BRANCH   4   3
ATOM      1  C   UNL     1       0.352 -20.237  64.670  0.00  0.00    +0.020 A 
ATOM      2  C   UNL     1       1.761 -20.281  64.984  0.00  0.00    +0.013 A 
ATOM      3  C   UNL     1       2.499 -19.058  65.272  0.00  0.00    +0.019 A 
ATOM     38  C   UNL     1       1.776 -17.796  65.235  0.00  0.00    +0.120 A 
ATOM     39  N   UNL     1       0.419 -17.784  64.928  0.00  0.00    -0.263 NA
ATOM     40  C   UNL     1      -0.302 -18.955  64.647  0.00  0.00    +0.111 A 
ENDBRANCH   4   3
ENDBRANCH  10   9
BRANCH  12  13
ATOM     13  N   UNL     1       9.700 -19.316  70.817  0.00  0.00    -0.281 N 
ATOM     14  C   UNL     1      10.700 -20.214  70.484  0.00  0.00    +0.248 C 
ATOM     30  O   UNL     1      11.098 -20.414  69.346  0.00  0.00    -0.270 OA
ATOM     31  H   UNL     1       9.332 -19.387  71.766  0.00  0.00    +0.155 HD
BRANCH  14  15
ATOM     15  C   UNL     1      11.342 -21.016  71.569  0.00  0.00    +0.037 A 
ATOM     16  C   UNL     1      10.538 -21.699  72.586  0.00  0.00    +0.013 A 
ATOM     17  C   UNL     1      11.183 -22.452  73.632  0.00  0.00    +0.005 A 
ATOM     18  C   UNL     1      12.642 -22.527  73.666  0.00  0.00    -0.033 A 
ATOM     28  C   UNL     1      13.415 -21.845  72.641  0.00  0.00    +0.005 A 
ATOM     29  C   UNL     1      12.786 -21.105  71.615  0.00  0.00    +0.013 A 
BRANCH  18  19
ATOM     19  C   UNL     1      13.415 -23.291  74.757  0.00  0.00    +0.119 C 
BRANCH  19  20
ATOM     20  N   UNL     1      13.895 -24.664  74.421  0.00  0.00    -0.302 NA
ATOM     21  C   UNL     1      15.300 -24.649  73.813  0.00  0.00    +0.066 C 
ATOM     22  C   UNL     1      15.796 -26.096  73.489  0.00  0.00    -0.064 C 
ATOM     23  N   UNL     1      14.804 -26.771  72.541  0.00  0.00    +0.379 N 
ATOM     24  C   UNL     1      15.296 -28.111  72.188  0.00  0.00    -0.096 C 
ATOM     25  H   UNL     1      14.765 -26.167  71.605  0.00  0.00    -0.082 HD
ATOM     26  C   UNL     1      13.403 -26.789  73.136  0.00  0.00    -0.064 C 
ATOM     27  C   UNL     1      12.932 -25.348  73.483  0.00  0.00    +0.066 C 
ENDBRANCH  19  20
ENDBRANCH  18  19
ENDBRANCH  14  15
ENDBRANCH  12  13
TORSDOF 6
ENDMDL
MODEL 4
REMARK VINA RESULT:      -8.4     43.533     49.654
REMARK  Name = C:\Users\Docking\Desktop\test protocol\1iep_ligandH.pdb
REMARK  8 active torsions:
REMARK  status: ('A' for Active; 'I' for Inactive)
REMARK    1  A    between atoms: _5  and  _11
REMARK    2  A    between atoms: _19  and  _21
REMARK    3  A    between atoms: _22  and  _66
REMARK    4  A    between atoms: _27  and  _30
REMARK    5  A    between atoms: _32  and  _33
REMARK    6  A    between atoms: _38  and  _43
REMARK    7  A    between atoms: _43  and  _46
REMARK    8  A    between atoms: _53  and  _55
REMARK                            x       y       z     vdW  Elec       q    Type
REMARK                         _______ _______ _______ _____ _____    ______ ____
ROOT
ATOM     10  C   UNL     1     -24.488 -17.784  71.399  0.00  0.00    +0.038 A 
ATOM     11  C   UNL     1     -23.626 -16.937  70.657  0.00  0.00    +0.047 A 
ATOM     12  C   UNL     1     -24.117 -15.713  70.044  0.00  0.00    +0.035 A 
ATOM     32  C   UNL     1     -25.494 -15.381  70.207  0.00  0.00    +0.024 A 
ATOM     33  C   UNL     1     -26.385 -16.231  70.957  0.00  0.00    +0.007 A 
ATOM     34  C   UNL     1     -25.906 -17.441  71.562  0.00  0.00    -0.029 A 
ATOM     35  C   UNL     1     -26.908 -18.318  72.349  0.00  0.00    +0.045 C 
ENDROOT
BRANCH  10   9
ATOM      4  C   UNL     1     -22.020 -20.086  74.811  0.00  0.00    +0.077 A 
ATOM      5  C   UNL     1     -21.729 -18.866  75.507  0.00  0.00    +0.048 A 
ATOM      6  C   UNL     1     -22.228 -17.667  74.950  0.00  0.00    +0.116 A 
ATOM      7  N   UNL     1     -22.961 -17.698  73.783  0.00  0.00    -0.223 NA
ATOM      8  C   UNL     1     -23.221 -18.892  73.136  0.00  0.00    +0.220 A 
ATOM      9  N   UNL     1     -23.963 -18.947  71.966  0.00  0.00    -0.283 N 
ATOM     36  H   UNL     1     -24.127 -19.847  71.516  0.00  0.00    +0.155 HD
ATOM     37  N   UNL     1     -22.755 -20.050  73.647  0.00  0.00    -0.214 NA
BRANCH   4   3
ATOM      1  C   UNL     1     -20.082 -22.944  76.649  0.00  0.00    +0.020 A 
ATOM      2  C   UNL     1     -20.481 -21.619  76.233  0.00  0.00    +0.013 A 
ATOM      3  C   UNL     1     -21.565 -21.435  75.276  0.00  0.00    +0.019 A 
ATOM     38  C   UNL     1     -22.230 -22.620  74.756  0.00  0.00    +0.120 A 
ATOM     39  N   UNL     1     -21.822 -23.883  75.175  0.00  0.00    -0.263 NA
ATOM     40  C   UNL     1     -20.779 -24.073  76.094  0.00  0.00    +0.111 A 
ENDBRANCH   4   3
ENDBRANCH  10   9
BRANCH  12  13
ATOM     13  N   UNL     1     -23.290 -14.818  69.273  0.00  0.00    -0.281 N 
ATOM     14  C   UNL     1     -22.264 -14.005  69.725  0.00  0.00    +0.248 C 
ATOM     30  O   UNL     1     -22.041 -13.763  70.902  0.00  0.00    -0.270 OA
ATOM     31  H   UNL     1     -23.485 -14.780  68.272  0.00  0.00    +0.155 HD
BRANCH  14  15
ATOM     15  C   UNL     1     -21.364 -13.355  68.725  0.00  0.00    +0.037 A 
ATOM     16  C   UNL     1     -20.131 -12.680  69.138  0.00  0.00    +0.013 A 
ATOM     17  C   UNL     1     -19.289 -12.046  68.155  0.00  0.00    +0.005 A 
ATOM     18  C   UNL     1     -19.677 -12.085  66.747  0.00  0.00    -0.033 A 
ATOM     28  C   UNL     1     -20.903 -12.766  66.364  0.00  0.00    +0.005 A 
ATOM     29  C   UNL     1     -21.731 -13.388  67.325  0.00  0.00    +0.013 A 
BRANCH  18  19
ATOM     19  C   UNL     1     -18.851 -11.418  65.632  0.00  0.00    +0.119 C 
BRANCH  19  20
ATOM     20  N   UNL     1     -19.604 -10.722  64.546  0.00  0.00    -0.302 NA
ATOM     21  C   UNL     1     -19.354 -11.358  63.176  0.00  0.00    +0.066 C 
ATOM     22  C   UNL     1     -20.167 -10.632  62.054  0.00  0.00    -0.064 C 
ATOM     23  N   UNL     1     -19.795  -9.149  62.038  0.00  0.00    +0.379 N 
ATOM     24  C   UNL     1     -20.514  -8.475  60.948  0.00  0.00    -0.096 C 
ATOM     25  H   UNL     1     -18.704  -9.076  61.820  0.00  0.00    -0.082 HD
ATOM     26  C   UNL     1     -20.038  -8.509  63.398  0.00  0.00    -0.064 C 
ATOM     27  C   UNL     1     -19.248  -9.256  64.509  0.00  0.00    +0.066 C 
ENDBRANCH  19  20
ENDBRANCH  18  19
ENDBRANCH  14  15
ENDBRANCH  12  13
TORSDOF 6
ENDMDL
MODEL 5
REMARK VINA RESULT:      -8.2     17.518     22.871
REMARK  Name = C:\Users\Docking\Desktop\test protocol\1iep_ligandH.pdb
REMARK  8 active torsions:
REMARK  status: ('A' for Active; 'I' for Inactive)
REMARK    1  A    between atoms: _5  and  _11
REMARK    2  A    between atoms: _19  and  _21
REMARK    3  A    between atoms: _22  and  _66
REMARK    4  A    between atoms: _27  and  _30
REMARK    5  A    between atoms: _32  and  _33
REMARK    6  A    between atoms: _38  and  _43
REMARK    7  A    between atoms: _43  and  _46
REMARK    8  A    between atoms: _53  and  _55
REMARK                            x       y       z     vdW  Elec       q    Type
REMARK                         _______ _______ _______ _____ _____    ______ ____
ROOT
ATOM     10  C   UNL     1     -15.292 -44.704  64.784  0.00  0.00    +0.038 A 
ATOM     11  C   UNL     1     -14.710 -44.814  66.072  0.00  0.00    +0.047 A 
ATOM     12  C   UNL     1     -15.107 -43.927  67.155  0.00  0.00    +0.035 A 
ATOM     32  C   UNL     1     -16.103 -42.942  66.891  0.00  0.00    +0.024 A 
ATOM     33  C   UNL     1     -16.704 -42.816  65.587  0.00  0.00    +0.007 A 
ATOM     34  C   UNL     1     -16.315 -43.686  64.514  0.00  0.00    -0.029 A 
ATOM     35  C   UNL     1     -16.988 -43.501  63.135  0.00  0.00    +0.045 C 
ENDROOT
BRANCH  10   9
ATOM      4  C   UNL     1     -15.590 -48.859  62.399  0.00  0.00    +0.077 A 
ATOM      5  C   UNL     1     -16.651 -49.333  63.239  0.00  0.00    +0.048 A 
ATOM      6  C   UNL     1     -17.087 -48.480  64.278  0.00  0.00    +0.116 A 
ATOM      7  N   UNL     1     -16.498 -47.247  64.454  0.00  0.00    -0.223 NA
ATOM      8  C   UNL     1     -15.475 -46.821  63.627  0.00  0.00    +0.220 A 
ATOM      9  N   UNL     1     -14.873 -45.581  63.781  0.00  0.00    -0.283 N 
ATOM     36  H   UNL     1     -14.117 -45.306  63.154  0.00  0.00    +0.155 HD
ATOM     37  N   UNL     1     -15.040 -47.617  62.628  0.00  0.00    -0.214 NA
BRANCH   4   3
ATOM      1  C   UNL     1     -13.717 -49.835  59.106  0.00  0.00    +0.020 A 
ATOM      2  C   UNL     1     -14.243 -49.033  60.187  0.00  0.00    +0.013 A 
ATOM      3  C   UNL     1     -15.022 -49.643  61.257  0.00  0.00    +0.019 A 
ATOM     38  C   UNL     1     -15.252 -51.079  61.204  0.00  0.00    +0.120 A 
ATOM     39  N   UNL     1     -14.735 -51.826  60.150  0.00  0.00    -0.263 NA
ATOM     40  C   UNL     1     -13.985 -51.249  59.114  0.00  0.00    +0.111 A 
ENDBRANCH   4   3
ENDBRANCH  10   9
BRANCH  12  13
ATOM     13  N   UNL     1     -14.545 -43.986  68.482  0.00  0.00    -0.281 N 
ATOM     14  C   UNL     1     -15.056 -44.633  69.595  0.00  0.00    +0.248 C 
ATOM     30  O   UNL     1     -16.189 -45.085  69.673  0.00  0.00    -0.270 OA
ATOM     31  H   UNL     1     -13.664 -43.490  68.617  0.00  0.00    +0.155 HD
BRANCH  14  15
ATOM     15  C   UNL     1     -14.187 -44.789  70.802  0.00  0.00    +0.037 A 
ATOM     16  C   UNL     1     -14.761 -44.844  72.149  0.00  0.00    +0.013 A 
ATOM     17  C   UNL     1     -13.899 -44.978  73.297  0.00  0.00    +0.005 A 
ATOM     18  C   UNL     1     -12.453 -45.059  73.101  0.00  0.00    -0.033 A 
ATOM     28  C   UNL     1     -11.912 -45.008  71.753  0.00  0.00    +0.005 A 
ATOM     29  C   UNL     1     -12.753 -44.876  70.626  0.00  0.00    +0.013 A 
BRANCH  18  19
ATOM     19  C   UNL     1     -11.457 -45.182  74.269  0.00  0.00    +0.119 C 
BRANCH  19  20
ATOM     20  N   UNL     1     -11.261 -43.977  75.130  0.00  0.00    -0.302 NA
ATOM     21  C   UNL     1     -10.311 -42.961  74.490  0.00  0.00    +0.066 C 
ATOM     22  C   UNL     1     -10.135 -41.698  75.393  0.00  0.00    -0.064 C 
ATOM     23  N   UNL     1      -9.623 -42.125  76.770  0.00  0.00    +0.379 N 
ATOM     24  C   UNL     1      -9.402 -40.934  77.603  0.00  0.00    -0.096 C 
ATOM     25  H   UNL     1      -8.637 -42.624  76.623  0.00  0.00    -0.082 HD
ATOM     26  C   UNL     1     -10.560 -43.138  77.413  0.00  0.00    -0.064 C 
ATOM     27  C   UNL     1     -10.751 -44.376  76.493  0.00  0.00    +0.066 C 
ENDBRANCH  19  20
ENDBRANCH  18  19
ENDBRANCH  14  15
ENDBRANCH  12  13
TORSDOF 6
ENDMDL
