MODEL 1
REMARK VINA RESULT:      -7.9      0.000      0.000
REMARK  Name = C:\Users\Docking\Desktop\test protocol\1iep_ligandH.pdb
REMARK  8 active torsions:
REMARK  status: ('A' for Active; 'I' for Inactive)
REMARK    1  A    between atoms: _5  and  _11
REMARK    2  A    between atoms: _19  and  _21
REMARK    3  A    between atoms: _22  and  _66
REMARK    4  A    between atoms: _27  and  _30
REMARK    5  A    between atoms: _32  and  _33
REMARK    6  A    between atoms: _38  and  _43
REMARK    7  A    between atoms: _43  and  _46
REMARK    8  A    between atoms: _53  and  _55
REMARK                            x       y       z     vdW  Elec       q    Type
REMARK                         _______ _______ _______ _____ _____    ______ ____
ROOT
ATOM     10  C   UNL     1      13.863  10.974  39.240  0.00  0.00    +0.038 A 
ATOM     11  C   UNL     1      13.544  11.880  38.197  0.00  0.00    +0.047 A 
ATOM     12  C   UNL     1      14.190  13.181  38.107  0.00  0.00    +0.035 A 
ATOM     32  C   UNL     1      15.158  13.525  39.095  0.00  0.00    +0.024 A 
ATOM     33  C   UNL     1      15.493  12.616  40.163  0.00  0.00    +0.007 A 
ATOM     34  C   UNL     1      14.857  11.333  40.259  0.00  0.00    -0.029 A 
ATOM     35  C   UNL     1      15.251  10.401  41.429  0.00  0.00    +0.045 C 
ENDROOT
BRANCH  10   9
ATOM      4  C   UNL     1       9.966   8.262  39.949  0.00  0.00    +0.077 A 
ATOM      5  C   UNL     1       9.165   9.400  40.298  0.00  0.00    +0.048 A 
ATOM      6  C   UNL     1       9.796  10.665  40.290  0.00  0.00    +0.116 A 
ATOM      7  N   UNL     1      11.129  10.771  39.956  0.00  0.00    -0.223 NA
ATOM      8  C   UNL     1      11.873   9.654  39.626  0.00  0.00    +0.220 A 
ATOM      9  N   UNL     1      13.212   9.739  39.279  0.00  0.00    -0.283 N 
ATOM     36  H   UNL     1      13.728   8.890  39.049  0.00  0.00    +0.155 HD
ATOM     37  N   UNL     1      11.294   8.435  39.627  0.00  0.00    -0.214 NA
BRANCH   4   3
ATOM      1  C   UNL     1       8.127   4.995  38.834  0.00  0.00    +0.020 A 
ATOM      2  C   UNL     1       8.606   6.358  38.826  0.00  0.00    +0.013 A 
ATOM      3  C   UNL     1       9.443   6.860  39.908  0.00  0.00    +0.019 A 
ATOM     38  C   UNL     1       9.779   5.951  40.993  0.00  0.00    +0.120 A 
ATOM     39  N   UNL     1       9.302   4.644  40.975  0.00  0.00    -0.263 NA
ATOM     40  C   UNL     1       8.495   4.150  39.939  0.00  0.00    +0.111 A 
ENDBRANCH   4   3
ENDBRANCH  10   9
BRANCH  12  13
ATOM     13  N   UNL     1      13.902  14.146  37.075  0.00  0.00    -0.281 N 
ATOM     14  C   UNL     1      13.050  15.236  37.142  0.00  0.00    +0.248 C 
ATOM     30  O   UNL     1      12.239  15.425  38.037  0.00  0.00    -0.270 OA
ATOM     31  H   UNL     1      14.384  14.008  36.186  0.00  0.00    +0.155 HD
BRANCH  14  15
ATOM     15  C   UNL     1      13.095  16.256  36.051  0.00  0.00    +0.037 A 
ATOM     16  C   UNL     1      11.884  16.953  35.611  0.00  0.00    +0.013 A 
ATOM     17  C   UNL     1      11.952  17.920  34.545  0.00  0.00    +0.005 A 
ATOM     18  C   UNL     1      13.239  18.198  33.912  0.00  0.00    -0.033 A 
ATOM     28  C   UNL     1      14.426  17.496  34.371  0.00  0.00    +0.005 A 
ATOM     29  C   UNL     1      14.363  16.547  35.416  0.00  0.00    +0.013 A 
BRANCH  18  19
ATOM     19  C   UNL     1      13.402  19.199  32.752  0.00  0.00    +0.119 C 
BRANCH  19  20
ATOM     20  N   UNL     1      12.749  18.854  31.455  0.00  0.00    -0.302 NA
ATOM     21  C   UNL     1      13.407  17.646  30.783  0.00  0.00    +0.066 C 
ATOM     22  C   UNL     1      12.697  17.286  29.437  0.00  0.00    -0.064 C 
ATOM     23  N   UNL     1      12.721  18.502  28.509  0.00  0.00    +0.379 N 
ATOM     24  C   UNL     1      12.106  18.149  27.222  0.00  0.00    -0.096 C 
ATOM     25  H   UNL     1      13.789  18.757  28.315  0.00  0.00    -0.082 HD
ATOM     26  C   UNL     1      12.071  19.708  29.171  0.00  0.00    -0.064 C 
ATOM     27  C   UNL     1      12.766  20.040  30.521  0.00  0.00    +0.066 C 
ENDBRANCH  19  20
ENDBRANCH  18  19
ENDBRANCH  14  15
ENDBRANCH  12  13
TORSDOF 6
ENDMDL
MODEL 2
REMARK VINA RESULT:      -7.4      2.101     12.868
REMARK  Name = C:\Users\Docking\Desktop\test protocol\1iep_ligandH.pdb
REMARK  8 active torsions:
REMARK  status: ('A' for Active; 'I' for Inactive)
REMARK    1  A    between atoms: _5  and  _11
REMARK    2  A    between atoms: _19  and  _21
REMARK    3  A    between atoms: _22  and  _66
REMARK    4  A    between atoms: _27  and  _30
REMARK    5  A    between atoms: _32  and  _33
REMARK    6  A    between atoms: _38  and  _43
REMARK    7  A    between atoms: _43  and  _46
REMARK    8  A    between atoms: _53  and  _55
REMARK                            x       y       z     vdW  Elec       q    Type
REMARK                         _______ _______ _______ _____ _____    ______ ____
ROOT
ATOM     10  C   UNL     1      12.320  17.160  36.282  0.00  0.00    +0.038 A 
ATOM     11  C   UNL     1      12.022  15.793  36.511  0.00  0.00    +0.047 A 
ATOM     12  C   UNL     1      12.593  15.077  37.641  0.00  0.00    +0.035 A 
ATOM     32  C   UNL     1      13.463  15.785  38.520  0.00  0.00    +0.024 A 
ATOM     33  C   UNL     1      13.779  17.175  38.301  0.00  0.00    +0.007 A 
ATOM     34  C   UNL     1      13.220  17.886  37.187  0.00  0.00    -0.029 A 
ATOM     35  C   UNL     1      13.598  19.373  36.998  0.00  0.00    +0.045 C 
ENDROOT
BRANCH  10   9
ATOM      4  C   UNL     1      12.439  18.686  31.733  0.00  0.00    +0.077 A 
ATOM      5  C   UNL     1      13.773  18.194  31.541  0.00  0.00    +0.048 A 
ATOM      6  C   UNL     1      14.396  17.561  32.639  0.00  0.00    +0.116 A 
ATOM      7  N   UNL     1      13.725  17.434  33.837  0.00  0.00    -0.223 NA
ATOM      8  C   UNL     1      12.440  17.922  33.989  0.00  0.00    +0.220 A 
ATOM      9  N   UNL     1      11.744  17.798  35.182  0.00  0.00    -0.283 N 
ATOM     36  H   UNL     1      10.800  18.178  35.256  0.00  0.00    +0.155 HD
ATOM     37  N   UNL     1      11.824  18.532  32.955  0.00  0.00    -0.214 NA
BRANCH   4   3
ATOM      1  C   UNL     1       9.792  20.899  29.890  0.00  0.00    +0.020 A 
ATOM      2  C   UNL     1      10.524  20.257  30.958  0.00  0.00    +0.013 A 
ATOM      3  C   UNL     1      11.648  19.376  30.666  0.00  0.00    +0.019 A 
ATOM     38  C   UNL     1      12.009  19.165  29.272  0.00  0.00    +0.120 A 
ATOM     39  N   UNL     1      11.285  19.795  28.265  0.00  0.00    -0.263 NA
ATOM     40  C   UNL     1      10.201  20.644  28.534  0.00  0.00    +0.111 A 
ENDBRANCH   4   3
ENDBRANCH  10   9
BRANCH  12  13
ATOM     13  N   UNL     1      12.332  13.686  37.920  0.00  0.00    -0.281 N 
ATOM     14  C   UNL     1      11.762  13.138  39.057  0.00  0.00    +0.248 C 
ATOM     30  O   UNL     1      11.584  13.745  40.102  0.00  0.00    -0.270 OA
ATOM     31  H   UNL     1      12.600  13.026  37.190  0.00  0.00    +0.155 HD
BRANCH  14  15
ATOM     15  C   UNL     1      11.342  11.704  39.034  0.00  0.00    +0.037 A 
ATOM     16  C   UNL     1      12.262  10.649  38.600  0.00  0.00    +0.013 A 
ATOM     17  C   UNL     1      11.826   9.276  38.571  0.00  0.00    +0.005 A 
ATOM     18  C   UNL     1      10.462   8.949  38.981  0.00  0.00    -0.033 A 
ATOM     28  C   UNL     1       9.572  10.014  39.412  0.00  0.00    +0.005 A 
ATOM     29  C   UNL     1       9.995  11.361  39.440  0.00  0.00    +0.013 A 
BRANCH  18  19
ATOM     19  C   UNL     1       9.905   7.513  38.962  0.00  0.00    +0.119 C 
BRANCH  19  20
ATOM     20  N   UNL     1       9.544   6.902  40.276  0.00  0.00    -0.302 NA
ATOM     21  C   UNL     1      10.772   6.683  41.164  0.00  0.00    +0.066 C 
ATOM     22  C   UNL     1      10.373   6.064  42.544  0.00  0.00    -0.064 C 
ATOM     23  N   UNL     1       9.629   4.748  42.313  0.00  0.00    +0.379 N 
ATOM     24  C   UNL     1       9.304   4.135  43.609  0.00  0.00    -0.096 C 
ATOM     25  H   UNL     1      10.321   4.058  41.777  0.00  0.00    -0.082 HD
ATOM     26  C   UNL     1       8.408   4.956  41.429  0.00  0.00    -0.064 C 
ATOM     27  C   UNL     1       8.811   5.599  40.072  0.00  0.00    +0.066 C 
ENDBRANCH  19  20
ENDBRANCH  18  19
ENDBRANCH  14  15
ENDBRANCH  12  13
TORSDOF 6
ENDMDL
MODEL 3
REMARK VINA RESULT:      -7.4     11.404     17.585
REMARK  Name = C:\Users\Docking\Desktop\test protocol\1iep_ligandH.pdb
REMARK  8 active torsions:
REMARK  status: ('A' for Active; 'I' for Inactive)
REMARK    1  A    between atoms: _5  and  _11
REMARK    2  A    between atoms: _19  and  _21
REMARK    3  A    between atoms: _22  and  _66
REMARK    4  A    between atoms: _27  and  _30
REMARK    5  A    between atoms: _32  and  _33
REMARK    6  A    between atoms: _38  and  _43
REMARK    7  A    between atoms: _43  and  _46
REMARK    8  A    between atoms: _53  and  _55
REMARK                            x       y       z     vdW  Elec       q    Type
REMARK                         _______ _______ _______ _____ _____    ______ ____
ROOT
ATOM     10  C   UNL     1       4.501   0.071  39.555  0.00  0.00    +0.038 A 
ATOM     11  C   UNL     1       3.884   0.153  38.281  0.00  0.00    +0.047 A 
ATOM     12  C   UNL     1       2.757  -0.699  37.934  0.00  0.00    +0.035 A 
ATOM     32  C   UNL     1       2.282  -1.621  38.912  0.00  0.00    +0.024 A 
ATOM     33  C   UNL     1       2.897  -1.718  40.212  0.00  0.00    +0.007 A 
ATOM     34  C   UNL     1       4.012  -0.883  40.558  0.00  0.00    -0.029 A 
ATOM     35  C   UNL     1       4.637  -1.034  41.964  0.00  0.00    +0.045 C 
ENDROOT
BRANCH  10   9
ATOM      4  C   UNL     1       6.363   4.111  41.358  0.00  0.00    +0.077 A 
ATOM      5  C   UNL     1       5.073   4.598  41.754  0.00  0.00    +0.048 A 
ATOM      6  C   UNL     1       3.955   3.783  41.468  0.00  0.00    +0.116 A 
ATOM      7  N   UNL     1       4.127   2.571  40.835  0.00  0.00    -0.223 NA
ATOM      8  C   UNL     1       5.384   2.131  40.465  0.00  0.00    +0.220 A 
ATOM      9  N   UNL     1       5.581   0.912  39.834  0.00  0.00    -0.283 N 
ATOM     36  H   UNL     1       6.524   0.627  39.571  0.00  0.00    +0.155 HD
ATOM     37  N   UNL     1       6.468   2.892  40.725  0.00  0.00    -0.214 NA
BRANCH   4   3
ATOM      1  C   UNL     1      10.079   5.313  41.138  0.00  0.00    +0.020 A 
ATOM      2  C   UNL     1       8.873   4.563  40.873  0.00  0.00    +0.013 A 
ATOM      3  C   UNL     1       7.640   4.856  41.593  0.00  0.00    +0.019 A 
ATOM     38  C   UNL     1       7.661   5.924  42.581  0.00  0.00    +0.120 A 
ATOM     39  N   UNL     1       8.837   6.629  42.816  0.00  0.00    -0.263 NA
ATOM     40  C   UNL     1      10.030   6.354  42.130  0.00  0.00    +0.111 A 
ENDBRANCH   4   3
ENDBRANCH  10   9
BRANCH  12  13
ATOM     13  N   UNL     1       2.095  -0.666  36.654  0.00  0.00    -0.281 N 
ATOM     14  C   UNL     1       1.001   0.096  36.280  0.00  0.00    +0.248 C 
ATOM     30  O   UNL     1       0.288   0.711  37.059  0.00  0.00    -0.270 OA
ATOM     31  H   UNL     1       2.481  -1.279  35.935  0.00  0.00    +0.155 HD
BRANCH  14  15
ATOM     15  C   UNL     1       0.636   0.175  34.832  0.00  0.00    +0.037 A 
ATOM     16  C   UNL     1       0.396   1.463  34.178  0.00  0.00    +0.013 A 
ATOM     17  C   UNL     1       0.029   1.510  32.785  0.00  0.00    +0.005 A 
ATOM     18  C   UNL     1      -0.099   0.262  32.036  0.00  0.00    -0.033 A 
ATOM     28  C   UNL     1       0.150  -1.002  32.709  0.00  0.00    +0.005 A 
ATOM     29  C   UNL     1       0.509  -1.052  34.074  0.00  0.00    +0.013 A 
BRANCH  18  19
ATOM     19  C   UNL     1      -0.507   0.216  30.552  0.00  0.00    +0.119 C 
BRANCH  19  20
ATOM     20  N   UNL     1      -0.707  -1.132  29.939  0.00  0.00    -0.302 NA
ATOM     21  C   UNL     1       0.523  -1.594  29.154  0.00  0.00    +0.066 C 
ATOM     22  C   UNL     1       0.305  -3.015  28.539  0.00  0.00    -0.064 C 
ATOM     23  N   UNL     1      -0.934  -2.994  27.642  0.00  0.00    +0.379 N 
ATOM     24  C   UNL     1      -1.108  -4.313  27.016  0.00  0.00    -0.096 C 
ATOM     25  H   UNL     1      -0.749  -2.255  26.828  0.00  0.00    -0.082 HD
ATOM     26  C   UNL     1      -2.161  -2.533  28.414  0.00  0.00    -0.064 C 
ATOM     27  C   UNL     1      -1.923  -1.133  29.046  0.00  0.00    +0.066 C 
ENDBRANCH  19  20
ENDBRANCH  18  19
ENDBRANCH  14  15
ENDBRANCH  12  13
TORSDOF 6
ENDMDL
MODEL 4
REMARK VINA RESULT:      -7.2      1.794      2.335
REMARK  Name = C:\Users\Docking\Desktop\test protocol\1iep_ligandH.pdb
REMARK  8 active torsions:
REMARK  status: ('A' for Active; 'I' for Inactive)
REMARK    1  A    between atoms: _5  and  _11
REMARK    2  A    between atoms: _19  and  _21
REMARK    3  A    between atoms: _22  and  _66
REMARK    4  A    between atoms: _27  and  _30
REMARK    5  A    between atoms: _32  and  _33
REMARK    6  A    between atoms: _38  and  _43
REMARK    7  A    between atoms: _43  and  _46
REMARK    8  A    between atoms: _53  and  _55
REMARK                            x       y       z     vdW  Elec       q    Type
REMARK                         _______ _______ _______ _____ _____    ______ ____
ROOT
ATOM     10  C   UNL     1      13.784  10.794  39.447  0.00  0.00    +0.038 A 
ATOM     11  C   UNL     1      13.469  11.772  38.469  0.00  0.00    +0.047 A 
ATOM     12  C   UNL     1      14.139  13.063  38.453  0.00  0.00    +0.035 A 
ATOM     32  C   UNL     1      15.128  13.323  39.446  0.00  0.00    +0.024 A 
ATOM     33  C   UNL     1      15.460  12.341  40.448  0.00  0.00    +0.007 A 
ATOM     34  C   UNL     1      14.800  11.067  40.470  0.00  0.00    -0.029 A 
ATOM     35  C   UNL     1      15.191  10.054  41.572  0.00  0.00    +0.045 C 
ENDROOT
BRANCH  10   9
ATOM      4  C   UNL     1       9.908   8.077  40.244  0.00  0.00    +0.077 A 
ATOM      5  C   UNL     1       9.175   9.181  40.794  0.00  0.00    +0.048 A 
ATOM      6  C   UNL     1       9.833  10.429  40.860  0.00  0.00    +0.116 A 
ATOM      7  N   UNL     1      11.129  10.553  40.407  0.00  0.00    -0.223 NA
ATOM      8  C   UNL     1      11.808   9.468  39.884  0.00  0.00    +0.220 A 
ATOM      9  N   UNL     1      13.109   9.572  39.416  0.00  0.00    -0.283 N 
ATOM     36  H   UNL     1      13.578   8.746  39.044  0.00  0.00    +0.155 HD
ATOM     37  N   UNL     1      11.202   8.265  39.811  0.00  0.00    -0.214 NA
BRANCH   4   3
ATOM      1  C   UNL     1       8.030   4.932  38.873  0.00  0.00    +0.020 A 
ATOM      2  C   UNL     1       8.547   6.278  38.960  0.00  0.00    +0.013 A 
ATOM      3  C   UNL     1       9.348   6.696  40.104  0.00  0.00    +0.019 A 
ATOM     38  C   UNL     1       9.609   5.720  41.151  0.00  0.00    +0.120 A 
ATOM     39  N   UNL     1       9.097   4.431  41.041  0.00  0.00    -0.263 NA
ATOM     40  C   UNL     1       8.324   4.018  39.945  0.00  0.00    +0.111 A 
ENDBRANCH   4   3
ENDBRANCH  10   9
BRANCH  12  13
ATOM     13  N   UNL     1      13.856  14.098  37.490  0.00  0.00    -0.281 N 
ATOM     14  C   UNL     1      12.630  14.673  37.194  0.00  0.00    +0.248 C 
ATOM     30  O   UNL     1      11.553  14.232  37.563  0.00  0.00    -0.270 OA
ATOM     31  H   UNL     1      14.655  14.449  36.963  0.00  0.00    +0.155 HD
BRANCH  14  15
ATOM     15  C   UNL     1      12.597  15.908  36.353  0.00  0.00    +0.037 A 
ATOM     16  C   UNL     1      11.561  16.927  36.540  0.00  0.00    +0.013 A 
ATOM     17  C   UNL     1      11.541  18.101  35.705  0.00  0.00    +0.005 A 
ATOM     18  C   UNL     1      12.564  18.264  34.675  0.00  0.00    -0.033 A 
ATOM     28  C   UNL     1      13.584  17.241  34.514  0.00  0.00    +0.005 A 
ATOM     29  C   UNL     1      13.605  16.088  35.330  0.00  0.00    +0.013 A 
BRANCH  18  19
ATOM     19  C   UNL     1      12.608  19.475  33.724  0.00  0.00    +0.119 C 
BRANCH  19  20
ATOM     20  N   UNL     1      11.303  20.090  33.339  0.00  0.00    -0.302 NA
ATOM     21  C   UNL     1      11.196  20.313  31.828  0.00  0.00    +0.066 C 
ATOM     22  C   UNL     1       9.815  20.937  31.442  0.00  0.00    -0.064 C 
ATOM     23  N   UNL     1       9.623  22.253  32.198  0.00  0.00    +0.379 N 
ATOM     24  C   UNL     1       8.352  22.871  31.793  0.00  0.00    -0.096 C 
ATOM     25  H   UNL     1      10.446  22.940  31.894  0.00  0.00    -0.082 HD
ATOM     26  C   UNL     1       9.731  22.041  33.701  0.00  0.00    -0.064 C 
ATOM     27  C   UNL     1      11.095  21.393  34.072  0.00  0.00    +0.066 C 
ENDBRANCH  19  20
ENDBRANCH  18  19
ENDBRANCH  14  15
ENDBRANCH  12  13
TORSDOF 6
ENDMDL
MODEL 5
REMARK VINA RESULT:      -7.1     16.464     20.686
REMARK  Name = C:\Users\Docking\Desktop\test protocol\1iep_ligandH.pdb
REMARK  8 active torsions:
REMARK  status: ('A' for Active; 'I' for Inactive)
REMARK    1  A    between atoms: _5  and  _11
REMARK    2  A    between atoms: _19  and  _21
REMARK    3  A    between atoms: _22  and  _66
REMARK    4  A    between atoms: _27  and  _30
REMARK    5  A    between atoms: _32  and  _33
REMARK    6  A    between atoms: _38  and  _43
REMARK    7  A    between atoms: _43  and  _46
REMARK    8  A    between atoms: _53  and  _55
REMARK                            x       y       z     vdW  Elec       q    Type
REMARK                         _______ _______ _______ _____ _____    ______ ____
ROOT
ATOM     10  C   UNL     1       0.284   1.340  34.787  0.00  0.00    +0.038 A 
ATOM     11  C   UNL     1       1.158   0.850  35.790  0.00  0.00    +0.047 A 
ATOM     12  C   UNL     1       1.059   1.310  37.167  0.00  0.00    +0.035 A 
ATOM     32  C   UNL     1       0.054   2.269  37.487  0.00  0.00    +0.024 A 
ATOM     33  C   UNL     1      -0.843   2.779  36.480  0.00  0.00    +0.007 A 
ATOM     34  C   UNL     1      -0.748   2.330  35.120  0.00  0.00    -0.029 A 
ATOM     35  C   UNL     1      -1.731   2.916  34.080  0.00  0.00    +0.045 C 
ENDROOT
BRANCH  10   9
ATOM      4  C   UNL     1      -0.799  -1.735  31.264  0.00  0.00    +0.077 A 
ATOM      5  C   UNL     1      -1.701  -2.470  32.103  0.00  0.00    +0.048 A 
ATOM      6  C   UNL     1      -1.853  -2.029  33.437  0.00  0.00    +0.116 A 
ATOM      7  N   UNL     1      -1.150  -0.932  33.887  0.00  0.00    -0.223 NA
ATOM      8  C   UNL     1      -0.287  -0.247  33.053  0.00  0.00    +0.220 A 
ATOM      9  N   UNL     1       0.424   0.864  33.482  0.00  0.00    -0.283 N 
ATOM     36  H   UNL     1       1.057   1.338  32.838  0.00  0.00    +0.155 HD
ATOM     37  N   UNL     1      -0.123  -0.649  31.775  0.00  0.00    -0.214 NA
BRANCH   4   3
ATOM      1  C   UNL     1       0.983  -2.292  27.827  0.00  0.00    +0.020 A 
ATOM      2  C   UNL     1       0.781  -1.949  29.216  0.00  0.00    +0.013 A 
ATOM      3  C   UNL     1      -0.535  -2.076  29.831  0.00  0.00    +0.019 A 
ATOM     38  C   UNL     1      -1.633  -2.557  29.007  0.00  0.00    +0.120 A 
ATOM     39  N   UNL     1      -1.409  -2.879  27.671  0.00  0.00    -0.263 NA
ATOM     40  C   UNL     1      -0.148  -2.759  27.069  0.00  0.00    +0.111 A 
ENDBRANCH   4   3
ENDBRANCH  10   9
BRANCH  12  13
ATOM     13  N   UNL     1       1.924   0.854  38.226  0.00  0.00    -0.281 N 
ATOM     14  C   UNL     1       2.420  -0.423  38.430  0.00  0.00    +0.248 C 
ATOM     30  O   UNL     1       2.020  -1.421  37.849  0.00  0.00    -0.270 OA
ATOM     31  H   UNL     1       2.205   1.558  38.908  0.00  0.00    +0.155 HD
BRANCH  14  15
ATOM     15  C   UNL     1       3.508  -0.623  39.435  0.00  0.00    +0.037 A 
ATOM     16  C   UNL     1       4.795   0.064  39.309  0.00  0.00    +0.013 A 
ATOM     17  C   UNL     1       5.834  -0.160  40.283  0.00  0.00    +0.005 A 
ATOM     18  C   UNL     1       5.587  -1.076  41.394  0.00  0.00    -0.033 A 
ATOM     28  C   UNL     1       4.299  -1.740  41.499  0.00  0.00    +0.005 A 
ATOM     29  C   UNL     1       3.279  -1.524  40.545  0.00  0.00    +0.013 A 
BRANCH  18  19
ATOM     19  C   UNL     1       6.645  -1.391  42.468  0.00  0.00    +0.119 C 
BRANCH  19  20
ATOM     20  N   UNL     1       6.558  -2.719  43.145  0.00  0.00    -0.302 NA
ATOM     21  C   UNL     1       7.376  -2.760  44.439  0.00  0.00    +0.066 C 
ATOM     22  C   UNL     1       7.256  -4.149  45.145  0.00  0.00    -0.064 C 
ATOM     23  N   UNL     1       7.709  -5.248  44.183  0.00  0.00    +0.379 N 
ATOM     24  C   UNL     1       7.652  -6.550  44.864  0.00  0.00    -0.096 C 
ATOM     25  H   UNL     1       8.775  -5.049  43.922  0.00  0.00    -0.082 HD
ATOM     26  C   UNL     1       6.903  -5.214  42.893  0.00  0.00    -0.064 C 
ATOM     27  C   UNL     1       7.006  -3.819  42.214  0.00  0.00    +0.066 C 
ENDBRANCH  19  20
ENDBRANCH  18  19
ENDBRANCH  14  15
ENDBRANCH  12  13
TORSDOF 6
ENDMDL
