MODEL 1
REMARK VINA RESULT:      -7.8      0.000      0.000
REMARK  Name = C:\Users\Docking\Desktop\test protocol\1iep_ligandH.pdb
REMARK  8 active torsions:
REMARK  status: ('A' for Active; 'I' for Inactive)
REMARK    1  A    between atoms: _5  and  _11
REMARK    2  A    between atoms: _19  and  _21
REMARK    3  A    between atoms: _22  and  _66
REMARK    4  A    between atoms: _27  and  _30
REMARK    5  A    between atoms: _32  and  _33
REMARK    6  A    between atoms: _38  and  _43
REMARK    7  A    between atoms: _43  and  _46
REMARK    8  A    between atoms: _53  and  _55
REMARK                            x       y       z     vdW  Elec       q    Type
REMARK                         _______ _______ _______ _____ _____    ______ ____
ROOT
ATOM     10  C   UNL     1       9.171   0.919  48.725  0.00  0.00    +0.038 A 
ATOM     11  C   UNL     1      10.122   1.789  49.317  0.00  0.00    +0.047 A 
ATOM     12  C   UNL     1      10.777   1.447  50.570  0.00  0.00    +0.035 A 
ATOM     32  C   UNL     1      10.441   0.210  51.193  0.00  0.00    +0.024 A 
ATOM     33  C   UNL     1       9.475  -0.686  50.605  0.00  0.00    +0.007 A 
ATOM     34  C   UNL     1       8.825  -0.353  49.370  0.00  0.00    -0.029 A 
ATOM     35  C   UNL     1       7.793  -1.348  48.790  0.00  0.00    +0.045 C 
ENDROOT
BRANCH  10   9
ATOM      4  C   UNL     1       6.145   3.630  46.169  0.00  0.00    +0.077 A 
ATOM      5  C   UNL     1       5.697   4.334  47.336  0.00  0.00    +0.048 A 
ATOM      6  C   UNL     1       6.265   3.964  48.576  0.00  0.00    +0.116 A 
ATOM      7  N   UNL     1       7.210   2.962  48.632  0.00  0.00    -0.223 NA
ATOM      8  C   UNL     1       7.619   2.302  47.488  0.00  0.00    +0.220 A 
ATOM      9  N   UNL     1       8.574   1.297  47.521  0.00  0.00    -0.283 N 
ATOM     36  H   UNL     1       8.843   0.829  46.656  0.00  0.00    +0.155 HD
ATOM     37  N   UNL     1       7.090   2.636  46.292  0.00  0.00    -0.214 NA
BRANCH   4   3
ATOM      1  C   UNL     1       4.065   5.026  43.165  0.00  0.00    +0.020 A 
ATOM      2  C   UNL     1       4.512   4.790  44.519  0.00  0.00    +0.013 A 
ATOM      3  C   UNL     1       5.641   3.909  44.787  0.00  0.00    +0.019 A 
ATOM     38  C   UNL     1       6.303   3.278  43.655  0.00  0.00    +0.120 A 
ATOM     39  N   UNL     1       5.850   3.523  42.363  0.00  0.00    -0.263 NA
ATOM     40  C   UNL     1       4.763   4.368  42.092  0.00  0.00    +0.111 A 
ENDBRANCH   4   3
ENDBRANCH  10   9
BRANCH  12  13
ATOM     13  N   UNL     1      11.744   2.294  51.223  0.00  0.00    -0.281 N 
ATOM     14  C   UNL     1      11.729   2.755  52.529  0.00  0.00    +0.248 C 
ATOM     30  O   UNL     1      10.765   2.683  53.276  0.00  0.00    -0.270 OA
ATOM     31  H   UNL     1      12.537   2.590  50.652  0.00  0.00    +0.155 HD
BRANCH  14  15
ATOM     15  C   UNL     1      12.958   3.404  53.080  0.00  0.00    +0.037 A 
ATOM     16  C   UNL     1      13.322   3.265  54.493  0.00  0.00    +0.013 A 
ATOM     17  C   UNL     1      14.503   3.915  55.002  0.00  0.00    +0.005 A 
ATOM     18  C   UNL     1      15.331   4.709  54.097  0.00  0.00    -0.033 A 
ATOM     28  C   UNL     1      14.949   4.825  52.700  0.00  0.00    +0.005 A 
ATOM     29  C   UNL     1      13.791   4.191  52.197  0.00  0.00    +0.013 A 
BRANCH  18  19
ATOM     19  C   UNL     1      16.597   5.454  54.559  0.00  0.00    +0.119 C 
BRANCH  19  20
ATOM     20  N   UNL     1      16.411   6.803  55.171  0.00  0.00    -0.302 NA
ATOM     21  C   UNL     1      16.483   7.922  54.128  0.00  0.00    +0.066 C 
ATOM     22  C   UNL     1      16.264   9.325  54.783  0.00  0.00    -0.064 C 
ATOM     23  N   UNL     1      17.307   9.541  55.881  0.00  0.00    +0.379 N 
ATOM     24  C   UNL     1      17.140  10.882  56.459  0.00  0.00    -0.096 C 
ATOM     25  H   UNL     1      18.313   9.501  55.404  0.00  0.00    -0.082 HD
ATOM     26  C   UNL     1      17.244   8.431  56.921  0.00  0.00    -0.064 C 
ATOM     27  C   UNL     1      17.434   7.039  56.256  0.00  0.00    +0.066 C 
ENDBRANCH  19  20
ENDBRANCH  18  19
ENDBRANCH  14  15
ENDBRANCH  12  13
TORSDOF 6
ENDMDL
MODEL 2
REMARK VINA RESULT:      -7.7      6.394     14.414
REMARK  Name = C:\Users\Docking\Desktop\test protocol\1iep_ligandH.pdb
REMARK  8 active torsions:
REMARK  status: ('A' for Active; 'I' for Inactive)
REMARK    1  A    between atoms: _5  and  _11
REMARK    2  A    between atoms: _19  and  _21
REMARK    3  A    between atoms: _22  and  _66
REMARK    4  A    between atoms: _27  and  _30
REMARK    5  A    between atoms: _32  and  _33
REMARK    6  A    between atoms: _38  and  _43
REMARK    7  A    between atoms: _43  and  _46
REMARK    8  A    between atoms: _53  and  _55
REMARK                            x       y       z     vdW  Elec       q    Type
REMARK                         _______ _______ _______ _____ _____    ______ ____
ROOT
ATOM     10  C   UNL     1      16.722  10.937  55.493  0.00  0.00    +0.038 A 
ATOM     11  C   UNL     1      16.038   9.764  55.084  0.00  0.00    +0.047 A 
ATOM     12  C   UNL     1      16.655   8.812  54.173  0.00  0.00    +0.035 A 
ATOM     32  C   UNL     1      17.972   9.085  53.700  0.00  0.00    +0.024 A 
ATOM     33  C   UNL     1      18.681  10.274  54.105  0.00  0.00    +0.007 A 
ATOM     34  C   UNL     1      18.076  11.218  55.001  0.00  0.00    -0.029 A 
ATOM     35  C   UNL     1      18.881  12.478  55.396  0.00  0.00    +0.045 C 
ENDROOT
BRANCH  10   9
ATOM      4  C   UNL     1      15.588  12.434  59.910  0.00  0.00    +0.077 A 
ATOM      5  C   UNL     1      16.309  11.356  60.524  0.00  0.00    +0.048 A 
ATOM      6  C   UNL     1      16.952  10.434  59.668  0.00  0.00    +0.116 A 
ATOM      7  N   UNL     1      16.873  10.589  58.301  0.00  0.00    -0.223 NA
ATOM      8  C   UNL     1      16.168  11.638  57.741  0.00  0.00    +0.220 A 
ATOM      9  N   UNL     1      16.082  11.817  56.369  0.00  0.00    -0.283 N 
ATOM     36  H   UNL     1      15.546  12.600  55.995  0.00  0.00    +0.155 HD
ATOM     37  N   UNL     1      15.544  12.531  58.537  0.00  0.00    -0.214 NA
BRANCH   4   3
ATOM      1  C   UNL     1      13.274  14.243  62.493  0.00  0.00    +0.020 A 
ATOM      2  C   UNL     1      13.953  13.185  61.781  0.00  0.00    +0.013 A 
ATOM      3  C   UNL     1      14.859  13.490  60.681  0.00  0.00    +0.019 A 
ATOM     38  C   UNL     1      15.058  14.887  60.324  0.00  0.00    +0.120 A 
ATOM     39  N   UNL     1      14.389  15.884  61.027  0.00  0.00    -0.263 NA
ATOM     40  C   UNL     1      13.514  15.602  62.087  0.00  0.00    +0.111 A 
ENDBRANCH   4   3
ENDBRANCH  10   9
BRANCH  12  13
ATOM     13  N   UNL     1      16.007   7.608  53.717  0.00  0.00    -0.281 N 
ATOM     14  C   UNL     1      16.139   6.325  54.223  0.00  0.00    +0.248 C 
ATOM     30  O   UNL     1      17.005   5.980  55.014  0.00  0.00    -0.270 OA
ATOM     31  H   UNL     1      15.373   7.714  52.925  0.00  0.00    +0.155 HD
BRANCH  14  15
ATOM     15  C   UNL     1      15.181   5.269  53.774  0.00  0.00    +0.037 A 
ATOM     16  C   UNL     1      14.601   5.291  52.429  0.00  0.00    +0.013 A 
ATOM     17  C   UNL     1      13.666   4.270  52.028  0.00  0.00    +0.005 A 
ATOM     18  C   UNL     1      13.306   3.217  52.974  0.00  0.00    -0.033 A 
ATOM     28  C   UNL     1      13.901   3.216  54.300  0.00  0.00    +0.005 A 
ATOM     29  C   UNL     1      14.817   4.216  54.697  0.00  0.00    +0.013 A 
BRANCH  18  19
ATOM     19  C   UNL     1      12.301   2.099  52.638  0.00  0.00    +0.119 C 
BRANCH  19  20
ATOM     20  N   UNL     1      12.801   0.693  52.687  0.00  0.00    -0.302 NA
ATOM     21  C   UNL     1      13.321   0.220  51.326  0.00  0.00    +0.066 C 
ATOM     22  C   UNL     1      13.860  -1.245  51.401  0.00  0.00    -0.064 C 
ATOM     23  N   UNL     1      12.751  -2.169  51.907  0.00  0.00    +0.379 N 
ATOM     24  C   UNL     1      13.238  -3.556  51.923  0.00  0.00    -0.096 C 
ATOM     25  H   UNL     1      11.908  -2.114  51.180  0.00  0.00    -0.082 HD
ATOM     26  C   UNL     1      12.227  -1.705  53.259  0.00  0.00    -0.064 C 
ATOM     27  C   UNL     1      11.720  -0.237  53.181  0.00  0.00    +0.066 C 
ENDBRANCH  19  20
ENDBRANCH  18  19
ENDBRANCH  14  15
ENDBRANCH  12  13
TORSDOF 6
ENDMDL
MODEL 3
REMARK VINA RESULT:      -7.7      2.261     12.809
REMARK  Name = C:\Users\Docking\Desktop\test protocol\1iep_ligandH.pdb
REMARK  8 active torsions:
REMARK  status: ('A' for Active; 'I' for Inactive)
REMARK    1  A    between atoms: _5  and  _11
REMARK    2  A    between atoms: _19  and  _21
REMARK    3  A    between atoms: _22  and  _66
REMARK    4  A    between atoms: _27  and  _30
REMARK    5  A    between atoms: _32  and  _33
REMARK    6  A    between atoms: _38  and  _43
REMARK    7  A    between atoms: _43  and  _46
REMARK    8  A    between atoms: _53  and  _55
REMARK                            x       y       z     vdW  Elec       q    Type
REMARK                         _______ _______ _______ _____ _____    ______ ____
ROOT
ATOM     10  C   UNL     1      10.784   0.862  50.472  0.00  0.00    +0.038 A 
ATOM     11  C   UNL     1      10.149   1.472  49.360  0.00  0.00    +0.047 A 
ATOM     12  C   UNL     1       9.030   0.829  48.687  0.00  0.00    +0.035 A 
ATOM     32  C   UNL     1       8.583  -0.433  49.175  0.00  0.00    +0.024 A 
ATOM     33  C   UNL     1       9.219  -1.067  50.304  0.00  0.00    +0.007 A 
ATOM     34  C   UNL     1      10.324  -0.439  50.970  0.00  0.00    -0.029 A 
ATOM     35  C   UNL     1      10.971  -1.168  52.171  0.00  0.00    +0.045 C 
ENDROOT
BRANCH  10   9
ATOM      4  C   UNL     1      12.651   3.563  53.973  0.00  0.00    +0.077 A 
ATOM      5  C   UNL     1      11.384   3.688  54.633  0.00  0.00    +0.048 A 
ATOM      6  C   UNL     1      10.275   3.049  54.035  0.00  0.00    +0.116 A 
ATOM      7  N   UNL     1      10.433   2.339  52.865  0.00  0.00    -0.223 NA
ATOM      8  C   UNL     1      11.670   2.239  52.253  0.00  0.00    +0.220 A 
ATOM      9  N   UNL     1      11.854   1.524  51.080  0.00  0.00    -0.283 N 
ATOM     36  H   UNL     1      12.780   1.480  50.656  0.00  0.00    +0.155 HD
ATOM     37  N   UNL     1      12.744   2.842  52.804  0.00  0.00    -0.214 NA
BRANCH   4   3
ATOM      1  C   UNL     1      16.184   5.232  54.149  0.00  0.00    +0.020 A 
ATOM      2  C   UNL     1      14.982   4.644  53.605  0.00  0.00    +0.013 A 
ATOM      3  C   UNL     1      13.917   4.178  54.484  0.00  0.00    +0.019 A 
ATOM     38  C   UNL     1      14.101   4.324  55.920  0.00  0.00    +0.120 A 
ATOM     39  N   UNL     1      15.270   4.892  56.415  0.00  0.00    -0.263 NA
ATOM     40  C   UNL     1      16.303   5.343  55.579  0.00  0.00    +0.111 A 
ENDBRANCH   4   3
ENDBRANCH  10   9
BRANCH  12  13
ATOM     13  N   UNL     1       8.351   1.396  47.549  0.00  0.00    -0.281 N 
ATOM     14  C   UNL     1       7.163   2.109  47.534  0.00  0.00    +0.248 C 
ATOM     30  O   UNL     1       6.390   2.184  48.478  0.00  0.00    -0.270 OA
ATOM     31  H   UNL     1       8.800   1.255  46.644  0.00  0.00    +0.155 HD
BRANCH  14  15
ATOM     15  C   UNL     1       6.770   2.830  46.286  0.00  0.00    +0.037 A 
ATOM     16  C   UNL     1       6.358   2.101  45.083  0.00  0.00    +0.013 A 
ATOM     17  C   UNL     1       6.000   2.821  43.887  0.00  0.00    +0.005 A 
ATOM     18  C   UNL     1       6.051   4.281  43.889  0.00  0.00    -0.033 A 
ATOM     28  C   UNL     1       6.458   4.980  45.096  0.00  0.00    +0.005 A 
ATOM     29  C   UNL     1       6.810   4.277  46.270  0.00  0.00    +0.013 A 
BRANCH  18  19
ATOM     19  C   UNL     1       5.706   5.131  42.651  0.00  0.00    +0.119 C 
BRANCH  19  20
ATOM     20  N   UNL     1       5.362   4.401  41.394  0.00  0.00    -0.302 NA
ATOM     21  C   UNL     1       6.571   4.255  40.466  0.00  0.00    +0.066 C 
ATOM     22  C   UNL     1       6.199   3.469  39.167  0.00  0.00    -0.064 C 
ATOM     23  N   UNL     1       5.051   4.185  38.452  0.00  0.00    +0.379 N 
ATOM     24  C   UNL     1       4.737   3.481  37.200  0.00  0.00    -0.096 C 
ATOM     25  H   UNL     1       5.404   5.208  38.186  0.00  0.00    -0.082 HD
ATOM     26  C   UNL     1       3.846   4.337  39.370  0.00  0.00    -0.064 C 
ATOM     27  C   UNL     1       4.234   5.093  40.671  0.00  0.00    +0.066 C 
ENDBRANCH  19  20
ENDBRANCH  18  19
ENDBRANCH  14  15
ENDBRANCH  12  13
TORSDOF 6
ENDMDL
MODEL 4
REMARK VINA RESULT:      -7.4     20.152     22.879
REMARK  Name = C:\Users\Docking\Desktop\test protocol\1iep_ligandH.pdb
REMARK  8 active torsions:
REMARK  status: ('A' for Active; 'I' for Inactive)
REMARK    1  A    between atoms: _5  and  _11
REMARK    2  A    between atoms: _19  and  _21
REMARK    3  A    between atoms: _22  and  _66
REMARK    4  A    between atoms: _27  and  _30
REMARK    5  A    between atoms: _32  and  _33
REMARK    6  A    between atoms: _38  and  _43
REMARK    7  A    between atoms: _43  and  _46
REMARK    8  A    between atoms: _53  and  _55
REMARK                            x       y       z     vdW  Elec       q    Type
REMARK                         _______ _______ _______ _____ _____    ______ ____
ROOT
ATOM     10  C   UNL     1       4.706  16.562  35.184  0.00  0.00    +0.038 A 
ATOM     11  C   UNL     1       6.025  16.373  34.697  0.00  0.00    +0.047 A 
ATOM     12  C   UNL     1       6.885  17.506  34.394  0.00  0.00    +0.035 A 
ATOM     32  C   UNL     1       6.370  18.819  34.600  0.00  0.00    +0.024 A 
ATOM     33  C   UNL     1       5.032  19.030  35.093  0.00  0.00    +0.007 A 
ATOM     34  C   UNL     1       4.178  17.916  35.391  0.00  0.00    -0.029 A 
ATOM     35  C   UNL     1       2.750  18.202  35.911  0.00  0.00    +0.045 C 
ENDROOT
BRANCH  10   9
ATOM      4  C   UNL     1       1.958  12.877  33.803  0.00  0.00    +0.077 A 
ATOM      5  C   UNL     1       2.069  13.237  32.418  0.00  0.00    +0.048 A 
ATOM      6  C   UNL     1       2.836  14.381  32.104  0.00  0.00    +0.116 A 
ATOM      7  N   UNL     1       3.443  15.104  33.108  0.00  0.00    -0.223 NA
ATOM      8  C   UNL     1       3.315  14.731  34.433  0.00  0.00    +0.220 A 
ATOM      9  N   UNL     1       3.923  15.439  35.458  0.00  0.00    -0.283 N 
ATOM     36  H   UNL     1       3.798  15.135  36.424  0.00  0.00    +0.155 HD
ATOM     37  N   UNL     1       2.586  13.643  34.759  0.00  0.00    -0.214 NA
BRANCH   4   3
ATOM      1  C   UNL     1       0.097   9.440  33.964  0.00  0.00    +0.020 A 
ATOM      2  C   UNL     1       0.846  10.560  33.441  0.00  0.00    +0.013 A 
ATOM      3  C   UNL     1       1.185  11.693  34.293  0.00  0.00    +0.019 A 
ATOM     38  C   UNL     1       0.748  11.661  35.681  0.00  0.00    +0.120 A 
ATOM     39  N   UNL     1       0.027  10.570  36.156  0.00  0.00    -0.263 NA
ATOM     40  C   UNL     1      -0.306   9.475  35.345  0.00  0.00    +0.111 A 
ENDBRANCH   4   3
ENDBRANCH  10   9
BRANCH  12  13
ATOM     13  N   UNL     1       8.230  17.375  33.890  0.00  0.00    -0.281 N 
ATOM     14  C   UNL     1       8.639  16.821  32.688  0.00  0.00    +0.248 C 
ATOM     30  O   UNL     1       7.922  16.157  31.954  0.00  0.00    -0.270 OA
ATOM     31  H   UNL     1       8.970  17.735  34.493  0.00  0.00    +0.155 HD
BRANCH  14  15
ATOM     15  C   UNL     1      10.052  17.022  32.244  0.00  0.00    +0.037 A 
ATOM     16  C   UNL     1      11.171  16.425  32.979  0.00  0.00    +0.013 A 
ATOM     17  C   UNL     1      12.525  16.649  32.539  0.00  0.00    +0.005 A 
ATOM     18  C   UNL     1      12.768  17.472  31.357  0.00  0.00    -0.033 A 
ATOM     28  C   UNL     1      11.639  18.047  30.644  0.00  0.00    +0.005 A 
ATOM     29  C   UNL     1      10.310  17.831  31.073  0.00  0.00    +0.013 A 
BRANCH  18  19
ATOM     19  C   UNL     1      14.181  17.780  30.828  0.00  0.00    +0.119 C 
BRANCH  19  20
ATOM     20  N   UNL     1      14.637  17.033  29.618  0.00  0.00    -0.302 NA
ATOM     21  C   UNL     1      16.108  16.618  29.720  0.00  0.00    +0.066 C 
ATOM     22  C   UNL     1      16.562  15.818  28.456  0.00  0.00    -0.064 C 
ATOM     23  N   UNL     1      16.323  16.666  27.205  0.00  0.00    +0.379 N 
ATOM     24  C   UNL     1      16.803  15.939  26.021  0.00  0.00    -0.096 C 
ATOM     25  H   UNL     1      16.934  17.593  27.304  0.00  0.00    -0.082 HD
ATOM     26  C   UNL     1      14.864  17.085  27.098  0.00  0.00    -0.064 C 
ATOM     27  C   UNL     1      14.415  17.854  28.372  0.00  0.00    +0.066 C 
ENDBRANCH  19  20
ENDBRANCH  18  19
ENDBRANCH  14  15
ENDBRANCH  12  13
TORSDOF 6
ENDMDL
MODEL 5
REMARK VINA RESULT:      -7.2     19.178     22.947
REMARK  Name = C:\Users\Docking\Desktop\test protocol\1iep_ligandH.pdb
REMARK  8 active torsions:
REMARK  status: ('A' for Active; 'I' for Inactive)
REMARK    1  A    between atoms: _5  and  _11
REMARK    2  A    between atoms: _19  and  _21
REMARK    3  A    between atoms: _22  and  _66
REMARK    4  A    between atoms: _27  and  _30
REMARK    5  A    between atoms: _32  and  _33
REMARK    6  A    between atoms: _38  and  _43
REMARK    7  A    between atoms: _43  and  _46
REMARK    8  A    between atoms: _53  and  _55
REMARK                            x       y       z     vdW  Elec       q    Type
REMARK                         _______ _______ _______ _____ _____    ______ ____
ROOT
ATOM     10  C   UNL     1      16.596 -11.586  32.631  0.00  0.00    +0.038 A 
ATOM     11  C   UNL     1      16.145 -11.042  33.860  0.00  0.00    +0.047 A 
ATOM     12  C   UNL     1      14.761 -10.631  34.038  0.00  0.00    +0.035 A 
ATOM     32  C   UNL     1      13.863 -10.791  32.943  0.00  0.00    +0.024 A 
ATOM     33  C   UNL     1      14.305 -11.342  31.686  0.00  0.00    +0.007 A 
ATOM     34  C   UNL     1      15.669 -11.747  31.504  0.00  0.00    -0.029 A 
ATOM     35  C   UNL     1      16.090 -12.325  30.133  0.00  0.00    +0.045 C 
ENDROOT
BRANCH  10   9
ATOM      4  C   UNL     1      21.217 -10.595  31.791  0.00  0.00    +0.077 A 
ATOM      5  C   UNL     1      20.935  -9.212  31.535  0.00  0.00    +0.048 A 
ATOM      6  C   UNL     1      19.587  -8.798  31.622  0.00  0.00    +0.116 A 
ATOM      7  N   UNL     1      18.603  -9.707  31.943  0.00  0.00    -0.223 NA
ATOM      8  C   UNL     1      18.909 -11.034  32.183  0.00  0.00    +0.220 A 
ATOM      9  N   UNL     1      17.936 -11.964  32.515  0.00  0.00    -0.283 N 
ATOM     36  H   UNL     1      18.201 -12.936  32.678  0.00  0.00    +0.155 HD
ATOM     37  N   UNL     1      20.188 -11.455  32.105  0.00  0.00    -0.214 NA
BRANCH   4   3
ATOM      1  C   UNL     1      24.868 -11.464  30.689  0.00  0.00    +0.020 A 
ATOM      2  C   UNL     1      23.552 -10.868  30.691  0.00  0.00    +0.013 A 
ATOM      3  C   UNL     1      22.592 -11.184  31.741  0.00  0.00    +0.019 A 
ATOM     38  C   UNL     1      22.999 -12.115  32.783  0.00  0.00    +0.120 A 
ATOM     39  N   UNL     1      24.273 -12.675  32.754  0.00  0.00    -0.263 NA
ATOM     40  C   UNL     1      25.204 -12.379  31.748  0.00  0.00    +0.111 A 
ENDBRANCH   4   3
ENDBRANCH  10   9
BRANCH  12  13
ATOM     13  N   UNL     1      14.247 -10.064  35.260  0.00  0.00    -0.281 N 
ATOM     14  C   UNL     1      13.509 -10.696  36.247  0.00  0.00    +0.248 C 
ATOM     30  O   UNL     1      12.993 -11.797  36.127  0.00  0.00    -0.270 OA
ATOM     31  H   UNL     1      14.452  -9.077  35.416  0.00  0.00    +0.155 HD
BRANCH  14  15
ATOM     15  C   UNL     1      13.301  -9.997  37.552  0.00  0.00    +0.037 A 
ATOM     16  C   UNL     1      13.642  -8.582  37.719  0.00  0.00    +0.013 A 
ATOM     17  C   UNL     1      13.448  -7.937  38.994  0.00  0.00    +0.005 A 
ATOM     18  C   UNL     1      12.907  -8.707  40.111  0.00  0.00    -0.033 A 
ATOM     28  C   UNL     1      12.572 -10.108  39.916  0.00  0.00    +0.005 A 
ATOM     29  C   UNL     1      12.762 -10.744  38.669  0.00  0.00    +0.013 A 
BRANCH  18  19
ATOM     19  C   UNL     1      12.686  -8.106  41.512  0.00  0.00    +0.119 C 
BRANCH  19  20
ATOM     20  N   UNL     1      12.279  -9.043  42.602  0.00  0.00    -0.302 NA
ATOM     21  C   UNL     1      10.937  -8.649  43.226  0.00  0.00    +0.066 C 
ATOM     22  C   UNL     1      10.515  -9.652  44.348  0.00  0.00    -0.064 C 
ATOM     23  N   UNL     1      11.611  -9.712  45.413  0.00  0.00    +0.379 N 
ATOM     24  C   UNL     1      11.192 -10.610  46.499  0.00  0.00    -0.096 C 
ATOM     25  H   UNL     1      11.720  -8.689  45.843  0.00  0.00    -0.082 HD
ATOM     26  C   UNL     1      12.949 -10.100  44.801  0.00  0.00    -0.064 C 
ATOM     27  C   UNL     1      13.345  -9.114  43.667  0.00  0.00    +0.066 C 
ENDBRANCH  19  20
ENDBRANCH  18  19
ENDBRANCH  14  15
ENDBRANCH  12  13
TORSDOF 6
ENDMDL
