MODEL 1
REMARK VINA RESULT:      -8.6      0.000      0.000
REMARK  Name = C:\Users\Docking\Desktop\test protocol\1iep_ligandH.pdb
REMARK  8 active torsions:
REMARK  status: ('A' for Active; 'I' for Inactive)
REMARK    1  A    between atoms: _5  and  _11
REMARK    2  A    between atoms: _19  and  _21
REMARK    3  A    between atoms: _22  and  _66
REMARK    4  A    between atoms: _27  and  _30
REMARK    5  A    between atoms: _32  and  _33
REMARK    6  A    between atoms: _38  and  _43
REMARK    7  A    between atoms: _43  and  _46
REMARK    8  A    between atoms: _53  and  _55
REMARK                            x       y       z     vdW  Elec       q    Type
REMARK                         _______ _______ _______ _____ _____    ______ ____
ROOT
ATOM     10  C   UNL     1      25.151  19.065  -5.061  0.00  0.00    +0.038 A 
ATOM     11  C   UNL     1      25.542  19.657  -3.833  0.00  0.00    +0.047 A 
ATOM     12  C   UNL     1      26.904  19.534  -3.339  0.00  0.00    +0.035 A 
ATOM     32  C   UNL     1      27.844  18.802  -4.122  0.00  0.00    +0.024 A 
ATOM     33  C   UNL     1      27.463  18.193  -5.372  0.00  0.00    +0.007 A 
ATOM     34  C   UNL     1      26.120  18.309  -5.864  0.00  0.00    -0.029 A 
ATOM     35  C   UNL     1      25.766  17.631  -7.208  0.00  0.00    +0.045 C 
ENDROOT
BRANCH  10   9
ATOM      4  C   UNL     1      20.477  18.001  -4.816  0.00  0.00    +0.077 A 
ATOM      5  C   UNL     1      20.688  17.047  -3.766  0.00  0.00    +0.048 A 
ATOM      6  C   UNL     1      22.016  16.854  -3.323  0.00  0.00    +0.116 A 
ATOM      7  N   UNL     1      23.047  17.568  -3.894  0.00  0.00    -0.223 NA
ATOM      8  C   UNL     1      22.809  18.480  -4.906  0.00  0.00    +0.220 A 
ATOM      9  N   UNL     1      23.829  19.215  -5.489  0.00  0.00    -0.283 N 
ATOM     36  H   UNL     1      23.613  19.872  -6.238  0.00  0.00    +0.155 HD
ATOM     37  N   UNL     1      21.550  18.681  -5.348  0.00  0.00    -0.214 NA
BRANCH   4   3
ATOM      1  C   UNL     1      16.612  18.395  -5.274  0.00  0.00    +0.020 A 
ATOM      2  C   UNL     1      17.886  18.069  -4.675  0.00  0.00    +0.013 A 
ATOM      3  C   UNL     1      19.131  18.319  -5.390  0.00  0.00    +0.019 A 
ATOM     38  C   UNL     1      19.051  18.904  -6.720  0.00  0.00    +0.120 A 
ATOM     39  N   UNL     1      17.810  19.205  -7.272  0.00  0.00    -0.263 NA
ATOM     40  C   UNL     1      16.606  18.968  -6.594  0.00  0.00    +0.111 A 
ENDBRANCH   4   3
ENDBRANCH  10   9
BRANCH  12  13
ATOM     13  N   UNL     1      27.357  20.106  -2.095  0.00  0.00    -0.281 N 
ATOM     14  C   UNL     1      27.682  19.445  -0.922  0.00  0.00    +0.248 C 
ATOM     30  O   UNL     1      27.427  18.272  -0.696  0.00  0.00    -0.270 OA
ATOM     31  H   UNL     1      27.449  21.122  -2.078  0.00  0.00    +0.155 HD
BRANCH  14  15
ATOM     15  C   UNL     1      28.378  20.201   0.164  0.00  0.00    +0.037 A 
ATOM     16  C   UNL     1      28.472  21.663   0.132  0.00  0.00    +0.013 A 
ATOM     17  C   UNL     1      29.164  22.366   1.183  0.00  0.00    +0.005 A 
ATOM     18  C   UNL     1      29.767  21.607   2.276  0.00  0.00    -0.033 A 
ATOM     28  C   UNL     1      29.654  20.158   2.285  0.00  0.00    +0.005 A 
ATOM     29  C   UNL     1      28.978  19.465   1.256  0.00  0.00    +0.013 A 
BRANCH  18  19
ATOM     19  C   UNL     1      30.542  22.273   3.428  0.00  0.00    +0.119 C 
BRANCH  19  20
ATOM     20  N   UNL     1      31.985  21.918   3.576  0.00  0.00    -0.302 NA
ATOM     21  C   UNL     1      32.209  20.868   4.668  0.00  0.00    +0.066 C 
ATOM     22  C   UNL     1      33.722  20.492   4.794  0.00  0.00    -0.064 C 
ATOM     23  N   UNL     1      34.536  21.754   5.081  0.00  0.00    +0.379 N 
ATOM     24  C   UNL     1      35.951  21.396   5.258  0.00  0.00    -0.096 C 
ATOM     25  H   UNL     1      34.172  22.179   6.045  0.00  0.00    -0.082 HD
ATOM     26  C   UNL     1      34.317  22.805   4.002  0.00  0.00    -0.064 C 
ATOM     27  C   UNL     1      32.808  23.150   3.864  0.00  0.00    +0.066 C 
ENDBRANCH  19  20
ENDBRANCH  18  19
ENDBRANCH  14  15
ENDBRANCH  12  13
TORSDOF 6
ENDMDL
MODEL 2
REMARK VINA RESULT:      -8.5      8.633     11.032
REMARK  Name = C:\Users\Docking\Desktop\test protocol\1iep_ligandH.pdb
REMARK  8 active torsions:
REMARK  status: ('A' for Active; 'I' for Inactive)
REMARK    1  A    between atoms: _5  and  _11
REMARK    2  A    between atoms: _19  and  _21
REMARK    3  A    between atoms: _22  and  _66
REMARK    4  A    between atoms: _27  and  _30
REMARK    5  A    between atoms: _32  and  _33
REMARK    6  A    between atoms: _38  and  _43
REMARK    7  A    between atoms: _43  and  _46
REMARK    8  A    between atoms: _53  and  _55
REMARK                            x       y       z     vdW  Elec       q    Type
REMARK                         _______ _______ _______ _____ _____    ______ ____
ROOT
ATOM     10  C   UNL     1      26.307  18.994 -11.107  0.00  0.00    +0.038 A 
ATOM     11  C   UNL     1      26.956  20.251 -11.209  0.00  0.00    +0.047 A 
ATOM     12  C   UNL     1      28.346  20.349 -11.627  0.00  0.00    +0.035 A 
ATOM     32  C   UNL     1      29.044  19.146 -11.936  0.00  0.00    +0.024 A 
ATOM     33  C   UNL     1      28.401  17.859 -11.837  0.00  0.00    +0.007 A 
ATOM     34  C   UNL     1      27.031  17.756 -11.423  0.00  0.00    -0.029 A 
ATOM     35  C   UNL     1      26.394  16.350 -11.328  0.00  0.00    +0.045 C 
ENDROOT
BRANCH  10   9
ATOM      4  C   UNL     1      22.914  18.986  -7.712  0.00  0.00    +0.077 A 
ATOM      5  C   UNL     1      23.886  19.029  -6.658  0.00  0.00    +0.048 A 
ATOM      6  C   UNL     1      25.248  19.045  -7.031  0.00  0.00    +0.116 A 
ATOM      7  N   UNL     1      25.601  19.020  -8.363  0.00  0.00    -0.223 NA
ATOM      8  C   UNL     1      24.639  18.976  -9.355  0.00  0.00    +0.220 A 
ATOM      9  N   UNL     1      24.971  18.958 -10.701  0.00  0.00    -0.283 N 
ATOM     36  H   UNL     1      24.232  18.919 -11.402  0.00  0.00    +0.155 HD
ATOM     37  N   UNL     1      23.331  18.959  -9.024  0.00  0.00    -0.214 NA
BRANCH   4   3
ATOM      1  C   UNL     1      19.398  18.443  -6.085  0.00  0.00    +0.020 A 
ATOM      2  C   UNL     1      20.832  18.437  -6.262  0.00  0.00    +0.013 A 
ATOM      3  C   UNL     1      21.435  18.968  -7.478  0.00  0.00    +0.019 A 
ATOM     38  C   UNL     1      20.552  19.503  -8.503  0.00  0.00    +0.120 A 
ATOM     39  N   UNL     1      19.175  19.495  -8.306  0.00  0.00    -0.263 NA
ATOM     40  C   UNL     1      18.583  18.985  -7.140  0.00  0.00    +0.111 A 
ENDBRANCH   4   3
ENDBRANCH  10   9
BRANCH  12  13
ATOM     13  N   UNL     1      29.059  21.597 -11.741  0.00  0.00    -0.281 N 
ATOM     14  C   UNL     1      29.947  22.155 -10.837  0.00  0.00    +0.248 C 
ATOM     30  O   UNL     1      30.101  21.766  -9.688  0.00  0.00    -0.270 OA
ATOM     31  H   UNL     1      28.889  22.133 -12.592  0.00  0.00    +0.155 HD
BRANCH  14  15
ATOM     15  C   UNL     1      30.774  23.324 -11.265  0.00  0.00    +0.037 A 
ATOM     16  C   UNL     1      31.094  24.411 -10.335  0.00  0.00    +0.013 A 
ATOM     17  C   UNL     1      31.879  25.535 -10.779  0.00  0.00    +0.005 A 
ATOM     18  C   UNL     1      32.352  25.578 -12.161  0.00  0.00    -0.033 A 
ATOM     28  C   UNL     1      32.024  24.484 -13.061  0.00  0.00    +0.005 A 
ATOM     29  C   UNL     1      31.254  23.381 -12.630  0.00  0.00    +0.013 A 
BRANCH  18  19
ATOM     19  C   UNL     1      33.177  26.748 -12.727  0.00  0.00    +0.119 C 
BRANCH  19  20
ATOM     20  N   UNL     1      34.573  26.908 -12.222  0.00  0.00    -0.302 NA
ATOM     21  C   UNL     1      35.319  28.035 -12.940  0.00  0.00    +0.066 C 
ATOM     22  C   UNL     1      36.771  28.203 -12.383  0.00  0.00    -0.064 C 
ATOM     23  N   UNL     1      37.524  26.879 -12.524  0.00  0.00    +0.379 N 
ATOM     24  C   UNL     1      38.907  27.050 -12.055  0.00  0.00    -0.096 C 
ATOM     25  H   UNL     1      37.564  26.627 -13.609  0.00  0.00    -0.082 HD
ATOM     26  C   UNL     1      36.788  25.752 -11.815  0.00  0.00    -0.064 C 
ATOM     27  C   UNL     1      35.337  25.613 -12.355  0.00  0.00    +0.066 C 
ENDBRANCH  19  20
ENDBRANCH  18  19
ENDBRANCH  14  15
ENDBRANCH  12  13
TORSDOF 6
ENDMDL
MODEL 3
REMARK VINA RESULT:      -8.4      8.810     11.604
REMARK  Name = C:\Users\Docking\Desktop\test protocol\1iep_ligandH.pdb
REMARK  8 active torsions:
REMARK  status: ('A' for Active; 'I' for Inactive)
REMARK    1  A    between atoms: _5  and  _11
REMARK    2  A    between atoms: _19  and  _21
REMARK    3  A    between atoms: _22  and  _66
REMARK    4  A    between atoms: _27  and  _30
REMARK    5  A    between atoms: _32  and  _33
REMARK    6  A    between atoms: _38  and  _43
REMARK    7  A    between atoms: _43  and  _46
REMARK    8  A    between atoms: _53  and  _55
REMARK                            x       y       z     vdW  Elec       q    Type
REMARK                         _______ _______ _______ _____ _____    ______ ____
ROOT
ATOM     10  C   UNL     1      26.130  19.016 -11.151  0.00  0.00    +0.038 A 
ATOM     11  C   UNL     1      26.824  20.253 -11.166  0.00  0.00    +0.047 A 
ATOM     12  C   UNL     1      28.215  20.330 -11.585  0.00  0.00    +0.035 A 
ATOM     32  C   UNL     1      28.867  19.128 -11.987  0.00  0.00    +0.024 A 
ATOM     33  C   UNL     1      28.177  17.863 -11.977  0.00  0.00    +0.007 A 
ATOM     34  C   UNL     1      26.806  17.780 -11.561  0.00  0.00    -0.029 A 
ATOM     35  C   UNL     1      26.118  16.395 -11.565  0.00  0.00    +0.045 C 
ENDROOT
BRANCH  10   9
ATOM      4  C   UNL     1      22.754  18.988  -7.740  0.00  0.00    +0.077 A 
ATOM      5  C   UNL     1      23.731  18.979  -6.690  0.00  0.00    +0.048 A 
ATOM      6  C   UNL     1      25.092  18.974  -7.070  0.00  0.00    +0.116 A 
ATOM      7  N   UNL     1      25.438  18.979  -8.404  0.00  0.00    -0.223 NA
ATOM      8  C   UNL     1      24.471  18.987  -9.391  0.00  0.00    +0.220 A 
ATOM      9  N   UNL     1      24.796  19.000 -10.739  0.00  0.00    -0.283 N 
ATOM     36  H   UNL     1      24.053  18.998 -11.437  0.00  0.00    +0.155 HD
ATOM     37  N   UNL     1      23.164  18.990  -9.054  0.00  0.00    -0.214 NA
BRANCH   4   3
ATOM      1  C   UNL     1      19.240  18.549  -6.078  0.00  0.00    +0.020 A 
ATOM      2  C   UNL     1      20.673  18.518  -6.261  0.00  0.00    +0.013 A 
ATOM      3  C   UNL     1      21.276  18.998  -7.498  0.00  0.00    +0.019 A 
ATOM     38  C   UNL     1      20.395  19.508  -8.537  0.00  0.00    +0.120 A 
ATOM     39  N   UNL     1      19.019  19.524  -8.333  0.00  0.00    -0.263 NA
ATOM     40  C   UNL     1      18.427  19.063  -7.148  0.00  0.00    +0.111 A 
ENDBRANCH   4   3
ENDBRANCH  10   9
BRANCH  12  13
ATOM     13  N   UNL     1      28.974  21.556 -11.613  0.00  0.00    -0.281 N 
ATOM     14  C   UNL     1      29.776  22.084 -10.615  0.00  0.00    +0.248 C 
ATOM     30  O   UNL     1      29.794  21.686  -9.460  0.00  0.00    -0.270 OA
ATOM     31  H   UNL     1      28.911  22.101 -12.473  0.00  0.00    +0.155 HD
BRANCH  14  15
ATOM     15  C   UNL     1      30.679  23.229 -10.944  0.00  0.00    +0.037 A 
ATOM     16  C   UNL     1      31.545  23.199 -12.125  0.00  0.00    +0.013 A 
ATOM     17  C   UNL     1      32.418  24.310 -12.410  0.00  0.00    +0.005 A 
ATOM     18  C   UNL     1      32.429  25.461 -11.512  0.00  0.00    -0.033 A 
ATOM     28  C   UNL     1      31.555  25.467 -10.350  0.00  0.00    +0.005 A 
ATOM     29  C   UNL     1      30.698  24.380 -10.067  0.00  0.00    +0.013 A 
BRANCH  18  19
ATOM     19  C   UNL     1      33.344  26.681 -11.726  0.00  0.00    +0.119 C 
BRANCH  19  20
ATOM     20  N   UNL     1      33.853  26.919 -13.110  0.00  0.00    -0.302 NA
ATOM     21  C   UNL     1      35.266  27.510 -13.108  0.00  0.00    +0.066 C 
ATOM     22  C   UNL     1      35.792  27.731 -14.564  0.00  0.00    -0.064 C 
ATOM     23  N   UNL     1      34.824  28.644 -15.320  0.00  0.00    +0.379 N 
ATOM     24  C   UNL     1      35.346  28.901 -16.670  0.00  0.00    -0.096 C 
ATOM     25  H   UNL     1      34.788  29.618 -14.780  0.00  0.00    -0.082 HD
ATOM     26  C   UNL     1      33.416  28.065 -15.324  0.00  0.00    -0.064 C 
ATOM     27  C   UNL     1      32.915  27.821 -13.873  0.00  0.00    +0.066 C 
ENDBRANCH  19  20
ENDBRANCH  18  19
ENDBRANCH  14  15
ENDBRANCH  12  13
TORSDOF 6
ENDMDL
MODEL 4
REMARK VINA RESULT:      -8.2     18.664     22.150
REMARK  Name = C:\Users\Docking\Desktop\test protocol\1iep_ligandH.pdb
REMARK  8 active torsions:
REMARK  status: ('A' for Active; 'I' for Inactive)
REMARK    1  A    between atoms: _5  and  _11
REMARK    2  A    between atoms: _19  and  _21
REMARK    3  A    between atoms: _22  and  _66
REMARK    4  A    between atoms: _27  and  _30
REMARK    5  A    between atoms: _32  and  _33
REMARK    6  A    between atoms: _38  and  _43
REMARK    7  A    between atoms: _43  and  _46
REMARK    8  A    between atoms: _53  and  _55
REMARK                            x       y       z     vdW  Elec       q    Type
REMARK                         _______ _______ _______ _____ _____    ______ ____
ROOT
ATOM     10  C   UNL     1      37.909  38.842  -8.530  0.00  0.00    +0.038 A 
ATOM     11  C   UNL     1      38.089  38.073  -7.352  0.00  0.00    +0.047 A 
ATOM     12  C   UNL     1      38.694  36.751  -7.400  0.00  0.00    +0.035 A 
ATOM     32  C   UNL     1      39.107  36.243  -8.667  0.00  0.00    +0.024 A 
ATOM     33  C   UNL     1      38.930  37.010  -9.875  0.00  0.00    +0.007 A 
ATOM     34  C   UNL     1      38.332  38.314  -9.833  0.00  0.00    -0.029 A 
ATOM     35  C   UNL     1      38.162  39.089 -11.160  0.00  0.00    +0.045 C 
ENDROOT
BRANCH  10   9
ATOM      4  C   UNL     1      34.130  41.706  -7.786  0.00  0.00    +0.077 A 
ATOM      5  C   UNL     1      33.243  40.591  -7.618  0.00  0.00    +0.048 A 
ATOM      6  C   UNL     1      33.798  39.297  -7.738  0.00  0.00    +0.116 A 
ATOM      7  N   UNL     1      35.141  39.141  -8.006  0.00  0.00    -0.223 NA
ATOM      8  C   UNL     1      35.968  40.238  -8.163  0.00  0.00    +0.220 A 
ATOM      9  N   UNL     1      37.323  40.105  -8.425  0.00  0.00    -0.283 N 
ATOM     36  H   UNL     1      37.898  40.939  -8.542  0.00  0.00    +0.155 HD
ATOM     37  N   UNL     1      35.462  41.484  -8.055  0.00  0.00    -0.214 NA
BRANCH   4   3
ATOM      1  C   UNL     1      32.592  45.056  -6.478  0.00  0.00    +0.020 A 
ATOM      2  C   UNL     1      32.990  43.668  -6.526  0.00  0.00    +0.013 A 
ATOM      3  C   UNL     1      33.695  43.135  -7.685  0.00  0.00    +0.019 A 
ATOM     38  C   UNL     1      33.985  44.040  -8.786  0.00  0.00    +0.120 A 
ATOM     39  N   UNL     1      33.589  45.371  -8.713  0.00  0.00    -0.263 NA
ATOM     40  C   UNL     1      32.908  45.895  -7.604  0.00  0.00    +0.111 A 
ENDBRANCH   4   3
ENDBRANCH  10   9
BRANCH  12  13
ATOM     13  N   UNL     1      38.895  35.922  -6.238  0.00  0.00    -0.281 N 
ATOM     14  C   UNL     1      39.571  36.240  -5.071  0.00  0.00    +0.248 C 
ATOM     30  O   UNL     1      40.292  37.217  -4.935  0.00  0.00    -0.270 OA
ATOM     31  H   UNL     1      38.490  34.986  -6.281  0.00  0.00    +0.155 HD
BRANCH  14  15
ATOM     15  C   UNL     1      39.437  35.334  -3.890  0.00  0.00    +0.037 A 
ATOM     16  C   UNL     1      38.358  35.510  -2.915  0.00  0.00    +0.013 A 
ATOM     17  C   UNL     1      38.262  34.633  -1.776  0.00  0.00    +0.005 A 
ATOM     18  C   UNL     1      39.249  33.570  -1.605  0.00  0.00    -0.033 A 
ATOM     28  C   UNL     1      40.307  33.414  -2.590  0.00  0.00    +0.005 A 
ATOM     29  C   UNL     1      40.405  34.273  -3.708  0.00  0.00    +0.013 A 
BRANCH  18  19
ATOM     19  C   UNL     1      39.237  32.601  -0.408  0.00  0.00    +0.119 C 
BRANCH  19  20
ATOM     20  N   UNL     1      39.191  31.139  -0.712  0.00  0.00    -0.302 NA
ATOM     21  C   UNL     1      37.867  30.729  -1.363  0.00  0.00    +0.066 C 
ATOM     22  C   UNL     1      37.844  29.202  -1.694  0.00  0.00    -0.064 C 
ATOM     23  N   UNL     1      38.089  28.401  -0.414  0.00  0.00    +0.379 N 
ATOM     24  C   UNL     1      38.010  26.964  -0.712  0.00  0.00    -0.096 C 
ATOM     25  H   UNL     1      37.267  28.644   0.299  0.00  0.00    -0.082 HD
ATOM     26  C   UNL     1      39.402  28.804   0.241  0.00  0.00    -0.064 C 
ATOM     27  C   UNL     1      39.426  30.330   0.540  0.00  0.00    +0.066 C 
ENDBRANCH  19  20
ENDBRANCH  18  19
ENDBRANCH  14  15
ENDBRANCH  12  13
TORSDOF 6
ENDMDL
MODEL 5
REMARK VINA RESULT:      -8.2      8.280     11.600
REMARK  Name = C:\Users\Docking\Desktop\test protocol\1iep_ligandH.pdb
REMARK  8 active torsions:
REMARK  status: ('A' for Active; 'I' for Inactive)
REMARK    1  A    between atoms: _5  and  _11
REMARK    2  A    between atoms: _19  and  _21
REMARK    3  A    between atoms: _22  and  _66
REMARK    4  A    between atoms: _27  and  _30
REMARK    5  A    between atoms: _32  and  _33
REMARK    6  A    between atoms: _38  and  _43
REMARK    7  A    between atoms: _43  and  _46
REMARK    8  A    between atoms: _53  and  _55
REMARK                            x       y       z     vdW  Elec       q    Type
REMARK                         _______ _______ _______ _____ _____    ______ ____
ROOT
ATOM     10  C   UNL     1      26.819  18.119  -8.232  0.00  0.00    +0.038 A 
ATOM     11  C   UNL     1      27.189  19.418  -8.665  0.00  0.00    +0.047 A 
ATOM     12  C   UNL     1      27.998  19.610  -9.859  0.00  0.00    +0.035 A 
ATOM     32  C   UNL     1      28.411  18.458 -10.589  0.00  0.00    +0.024 A 
ATOM     33  C   UNL     1      28.044  17.130 -10.162  0.00  0.00    +0.007 A 
ATOM     34  C   UNL     1      27.248  16.934  -8.984  0.00  0.00    -0.029 A 
ATOM     35  C   UNL     1      26.890  15.488  -8.570  0.00  0.00    +0.045 C 
ENDROOT
BRANCH  10   9
ATOM      4  C   UNL     1      22.647  18.457  -5.883  0.00  0.00    +0.077 A 
ATOM      5  C   UNL     1      21.966  18.953  -7.044  0.00  0.00    +0.048 A 
ATOM      6  C   UNL     1      22.726  19.114  -8.223  0.00  0.00    +0.116 A 
ATOM      7  N   UNL     1      24.068  18.798  -8.230  0.00  0.00    -0.223 NA
ATOM      8  C   UNL     1      24.694  18.323  -7.093  0.00  0.00    +0.220 A 
ATOM      9  N   UNL     1      26.041  17.992  -7.079  0.00  0.00    -0.283 N 
ATOM     36  H   UNL     1      26.467  17.652  -6.218  0.00  0.00    +0.155 HD
ATOM     37  N   UNL     1      23.990  18.162  -5.953  0.00  0.00    -0.214 NA
BRANCH   4   3
ATOM      1  C   UNL     1      20.873  19.045  -2.446  0.00  0.00    +0.020 A 
ATOM      2  C   UNL     1      21.513  19.318  -3.713  0.00  0.00    +0.013 A 
ATOM      3  C   UNL     1      21.979  18.230  -4.563  0.00  0.00    +0.019 A 
ATOM     38  C   UNL     1      21.779  16.865  -4.099  0.00  0.00    +0.120 A 
ATOM     39  N   UNL     1      21.161  16.632  -2.874  0.00  0.00    -0.263 NA
ATOM     40  C   UNL     1      20.711  17.672  -2.047  0.00  0.00    +0.111 A 
ENDBRANCH   4   3
ENDBRANCH  10   9
BRANCH  12  13
ATOM     13  N   UNL     1      28.412  20.904 -10.343  0.00  0.00    -0.281 N 
ATOM     14  C   UNL     1      29.690  21.438 -10.359  0.00  0.00    +0.248 C 
ATOM     30  O   UNL     1      30.645  20.965  -9.761  0.00  0.00    -0.270 OA
ATOM     31  H   UNL     1      27.673  21.498 -10.718  0.00  0.00    +0.155 HD
BRANCH  14  15
ATOM     15  C   UNL     1      29.941  22.687 -11.142  0.00  0.00    +0.037 A 
ATOM     16  C   UNL     1      30.596  23.847 -10.532  0.00  0.00    +0.013 A 
ATOM     17  C   UNL     1      30.811  25.045 -11.305  0.00  0.00    +0.005 A 
ATOM     18  C   UNL     1      30.370  25.088 -12.697  0.00  0.00    -0.033 A 
ATOM     28  C   UNL     1      29.728  23.920 -13.278  0.00  0.00    +0.005 A 
ATOM     29  C   UNL     1      29.515  22.745 -12.524  0.00  0.00    +0.013 A 
BRANCH  18  19
ATOM     19  C   UNL     1      30.539  26.331 -13.590  0.00  0.00    +0.119 C 
BRANCH  19  20
ATOM     20  N   UNL     1      31.893  26.577 -14.170  0.00  0.00    -0.302 NA
ATOM     21  C   UNL     1      32.771  27.423 -13.243  0.00  0.00    +0.066 C 
ATOM     22  C   UNL     1      34.191  27.651 -13.856  0.00  0.00    -0.064 C 
ATOM     23  N   UNL     1      34.051  28.318 -15.225  0.00  0.00    +0.379 N 
ATOM     24  C   UNL     1      35.386  28.588 -15.779  0.00  0.00    -0.096 C 
ATOM     25  H   UNL     1      33.543  29.299 -15.073  0.00  0.00    -0.082 HD
ATOM     26  C   UNL     1      33.177  27.486 -16.153  0.00  0.00    -0.064 C 
ATOM     27  C   UNL     1      31.778  27.239 -15.521  0.00  0.00    +0.066 C 
ENDBRANCH  19  20
ENDBRANCH  18  19
ENDBRANCH  14  15
ENDBRANCH  12  13
TORSDOF 6
ENDMDL
