MODEL 1
REMARK VINA RESULT:      -9.6      0.000      0.000
REMARK  Name = C:\Users\Docking\Desktop\test protocol\1iep_ligandH.pdb
REMARK  8 active torsions:
REMARK  status: ('A' for Active; 'I' for Inactive)
REMARK    1  A    between atoms: _5  and  _11
REMARK    2  A    between atoms: _19  and  _21
REMARK    3  A    between atoms: _22  and  _66
REMARK    4  A    between atoms: _27  and  _30
REMARK    5  A    between atoms: _32  and  _33
REMARK    6  A    between atoms: _38  and  _43
REMARK    7  A    between atoms: _43  and  _46
REMARK    8  A    between atoms: _53  and  _55
REMARK                            x       y       z     vdW  Elec       q    Type
REMARK                         _______ _______ _______ _____ _____    ______ ____
ROOT
ATOM     10  C   UNL     1      42.917  -0.317  22.560  0.00  0.00    +0.038 A 
ATOM     11  C   UNL     1      44.099   0.358  22.958  0.00  0.00    +0.047 A 
ATOM     12  C   UNL     1      44.288   0.799  24.331  0.00  0.00    +0.035 A 
ATOM     32  C   UNL     1      43.252   0.534  25.274  0.00  0.00    +0.024 A 
ATOM     33  C   UNL     1      42.044  -0.150  24.887  0.00  0.00    +0.007 A 
ATOM     34  C   UNL     1      41.851  -0.585  23.533  0.00  0.00    -0.029 A 
ATOM     35  C   UNL     1      40.532  -1.308  23.173  0.00  0.00    +0.045 C 
ENDROOT
BRANCH  10   9
ATOM      4  C   UNL     1      42.867   0.600  17.849  0.00  0.00    +0.077 A 
ATOM      5  C   UNL     1      43.089   2.001  18.059  0.00  0.00    +0.048 A 
ATOM      6  C   UNL     1      43.204   2.447  19.395  0.00  0.00    +0.116 A 
ATOM      7  N   UNL     1      43.102   1.549  20.435  0.00  0.00    -0.223 NA
ATOM      8  C   UNL     1      42.886   0.204  20.198  0.00  0.00    +0.220 A 
ATOM      9  N   UNL     1      42.788  -0.718  21.228  0.00  0.00    -0.283 N 
ATOM     36  H   UNL     1      42.621  -1.701  21.012  0.00  0.00    +0.155 HD
ATOM     37  N   UNL     1      42.771  -0.246  18.931  0.00  0.00    -0.214 NA
BRANCH   4   3
ATOM      1  C   UNL     1      42.099   0.049  14.053  0.00  0.00    +0.020 A 
ATOM      2  C   UNL     1      42.213   0.698  15.339  0.00  0.00    +0.013 A 
ATOM      3  C   UNL     1      42.728  -0.024  16.495  0.00  0.00    +0.019 A 
ATOM     38  C   UNL     1      43.124  -1.413  16.315  0.00  0.00    +0.120 A 
ATOM     39  N   UNL     1      43.001  -2.012  15.065  0.00  0.00    -0.263 NA
ATOM     40  C   UNL     1      42.505  -1.328  13.946  0.00  0.00    +0.111 A 
ENDBRANCH   4   3
ENDBRANCH  10   9
BRANCH  12  13
ATOM     13  N   UNL     1      45.463   1.496  24.791  0.00  0.00    -0.281 N 
ATOM     14  C   UNL     1      46.627   0.953  25.309  0.00  0.00    +0.248 C 
ATOM     30  O   UNL     1      46.752  -0.213  25.654  0.00  0.00    -0.270 OA
ATOM     31  H   UNL     1      45.433   2.514  24.728  0.00  0.00    +0.155 HD
BRANCH  14  15
ATOM     15  C   UNL     1      47.822   1.835  25.480  0.00  0.00    +0.037 A 
ATOM     16  C   UNL     1      47.907   2.792  26.586  0.00  0.00    +0.013 A 
ATOM     17  C   UNL     1      49.063   3.643  26.719  0.00  0.00    +0.005 A 
ATOM     18  C   UNL     1      50.145   3.538  25.742  0.00  0.00    -0.033 A 
ATOM     28  C   UNL     1      50.037   2.576  24.658  0.00  0.00    +0.005 A 
ATOM     29  C   UNL     1      48.905   1.741  24.525  0.00  0.00    +0.013 A 
BRANCH  18  19
ATOM     19  C   UNL     1      51.406   4.421  25.794  0.00  0.00    +0.119 C 
BRANCH  19  20
ATOM     20  N   UNL     1      51.680   5.147  27.070  0.00  0.00    -0.302 NA
ATOM     21  C   UNL     1      52.407   6.474  26.830  0.00  0.00    +0.066 C 
ATOM     22  C   UNL     1      52.666   7.231  28.173  0.00  0.00    -0.064 C 
ATOM     23  N   UNL     1      53.472   6.334  29.114  0.00  0.00    +0.379 N 
ATOM     24  C   UNL     1      53.768   7.065  30.355  0.00  0.00    -0.096 C 
ATOM     25  H   UNL     1      54.443   6.108  28.616  0.00  0.00    -0.082 HD
ATOM     26  C   UNL     1      52.758   5.012  29.355  0.00  0.00    -0.064 C 
ATOM     27  C   UNL     1      52.479   4.281  28.012  0.00  0.00    +0.066 C 
ENDBRANCH  19  20
ENDBRANCH  18  19
ENDBRANCH  14  15
ENDBRANCH  12  13
TORSDOF 6
ENDMDL
MODEL 2
REMARK VINA RESULT:      -9.6      5.336     13.286
REMARK  Name = C:\Users\Docking\Desktop\test protocol\1iep_ligandH.pdb
REMARK  8 active torsions:
REMARK  status: ('A' for Active; 'I' for Inactive)
REMARK    1  A    between atoms: _5  and  _11
REMARK    2  A    between atoms: _19  and  _21
REMARK    3  A    between atoms: _22  and  _66
REMARK    4  A    between atoms: _27  and  _30
REMARK    5  A    between atoms: _32  and  _33
REMARK    6  A    between atoms: _38  and  _43
REMARK    7  A    between atoms: _43  and  _46
REMARK    8  A    between atoms: _53  and  _55
REMARK                            x       y       z     vdW  Elec       q    Type
REMARK                         _______ _______ _______ _____ _____    ______ ____
ROOT
ATOM     10  C   UNL     1      55.475   3.936  27.261  0.00  0.00    +0.038 A 
ATOM     11  C   UNL     1      54.147   3.680  26.837  0.00  0.00    +0.047 A 
ATOM     12  C   UNL     1      53.046   3.646  27.788  0.00  0.00    +0.035 A 
ATOM     32  C   UNL     1      53.335   3.879  29.164  0.00  0.00    +0.024 A 
ATOM     33  C   UNL     1      54.681   4.140  29.613  0.00  0.00    +0.007 A 
ATOM     34  C   UNL     1      55.770   4.172  28.679  0.00  0.00    -0.029 A 
ATOM     35  C   UNL     1      57.193   4.450  29.218  0.00  0.00    +0.045 C 
ENDROOT
BRANCH  10   9
ATOM      4  C   UNL     1      58.489   1.742  24.237  0.00  0.00    +0.077 A 
ATOM      5  C   UNL     1      58.014   0.442  24.613  0.00  0.00    +0.048 A 
ATOM      6  C   UNL     1      56.998   0.381  25.594  0.00  0.00    +0.116 A 
ATOM      7  N   UNL     1      56.502   1.540  26.149  0.00  0.00    -0.223 NA
ATOM      8  C   UNL     1      56.984   2.778  25.765  0.00  0.00    +0.220 A 
ATOM      9  N   UNL     1      56.494   3.957  26.305  0.00  0.00    -0.283 N 
ATOM     36  H   UNL     1      56.880   4.850  26.001  0.00  0.00    +0.155 HD
ATOM     37  N   UNL     1      57.954   2.863  24.832  0.00  0.00    -0.214 NA
BRANCH   4   3
ATOM      1  C   UNL     1      61.554   3.216  22.305  0.00  0.00    +0.020 A 
ATOM      2  C   UNL     1      60.543   3.039  23.322  0.00  0.00    +0.013 A 
ATOM      3  C   UNL     1      59.557   1.971  23.213  0.00  0.00    +0.019 A 
ATOM     38  C   UNL     1      59.622   1.093  22.054  0.00  0.00    +0.120 A 
ATOM     39  N   UNL     1      60.606   1.289  21.090  0.00  0.00    -0.263 NA
ATOM     40  C   UNL     1      61.559   2.314  21.183  0.00  0.00    +0.111 A 
ENDBRANCH   4   3
ENDBRANCH  10   9
BRANCH  12  13
ATOM     13  N   UNL     1      51.678   3.383  27.416  0.00  0.00    -0.281 N 
ATOM     14  C   UNL     1      50.942   3.975  26.403  0.00  0.00    +0.248 C 
ATOM     30  O   UNL     1      51.285   4.978  25.795  0.00  0.00    -0.270 OA
ATOM     31  H   UNL     1      51.193   2.675  27.968  0.00  0.00    +0.155 HD
BRANCH  14  15
ATOM     15  C   UNL     1      49.629   3.373  26.019  0.00  0.00    +0.037 A 
ATOM     16  C   UNL     1      48.499   3.356  26.952  0.00  0.00    +0.013 A 
ATOM     17  C   UNL     1      47.249   2.754  26.562  0.00  0.00    +0.005 A 
ATOM     18  C   UNL     1      47.121   2.166  25.230  0.00  0.00    -0.033 A 
ATOM     28  C   UNL     1      48.256   2.202  24.323  0.00  0.00    +0.005 A 
ATOM     29  C   UNL     1      49.483   2.790  24.702  0.00  0.00    +0.013 A 
BRANCH  18  19
ATOM     19  C   UNL     1      45.831   1.484  24.737  0.00  0.00    +0.119 C 
BRANCH  19  20
ATOM     20  N   UNL     1      45.472   1.660  23.299  0.00  0.00    -0.302 NA
ATOM     21  C   UNL     1      44.974   3.077  23.000  0.00  0.00    +0.066 C 
ATOM     22  C   UNL     1      44.623   3.250  21.486  0.00  0.00    -0.064 C 
ATOM     23  N   UNL     1      43.574   2.211  21.086  0.00  0.00    +0.379 N 
ATOM     24  C   UNL     1      43.200   2.409  19.678  0.00  0.00    -0.096 C 
ATOM     25  H   UNL     1      42.665   2.393  21.707  0.00  0.00    -0.082 HD
ATOM     26  C   UNL     1      44.060   0.800  21.383  0.00  0.00    -0.064 C 
ATOM     27  C   UNL     1      44.433   0.647  22.884  0.00  0.00    +0.066 C 
ENDBRANCH  19  20
ENDBRANCH  18  19
ENDBRANCH  14  15
ENDBRANCH  12  13
TORSDOF 6
ENDMDL
MODEL 3
REMARK VINA RESULT:      -9.3      4.551      7.135
REMARK  Name = C:\Users\Docking\Desktop\test protocol\1iep_ligandH.pdb
REMARK  8 active torsions:
REMARK  status: ('A' for Active; 'I' for Inactive)
REMARK    1  A    between atoms: _5  and  _11
REMARK    2  A    between atoms: _19  and  _21
REMARK    3  A    between atoms: _22  and  _66
REMARK    4  A    between atoms: _27  and  _30
REMARK    5  A    between atoms: _32  and  _33
REMARK    6  A    between atoms: _38  and  _43
REMARK    7  A    between atoms: _43  and  _46
REMARK    8  A    between atoms: _53  and  _55
REMARK                            x       y       z     vdW  Elec       q    Type
REMARK                         _______ _______ _______ _____ _____    ______ ____
ROOT
ATOM     10  C   UNL     1      45.378   1.164  20.101  0.00  0.00    +0.038 A 
ATOM     11  C   UNL     1      46.036   2.268  20.700  0.00  0.00    +0.047 A 
ATOM     12  C   UNL     1      47.194   2.886  20.071  0.00  0.00    +0.035 A 
ATOM     32  C   UNL     1      47.652   2.354  18.830  0.00  0.00    +0.024 A 
ATOM     33  C   UNL     1      46.995   1.232  18.208  0.00  0.00    +0.007 A 
ATOM     34  C   UNL     1      45.855   0.617  18.825  0.00  0.00    -0.029 A 
ATOM     35  C   UNL     1      45.194  -0.588  18.116  0.00  0.00    +0.045 C 
ENDROOT
BRANCH  10   9
ATOM      4  C   UNL     1      42.952  -0.024  24.069  0.00  0.00    +0.077 A 
ATOM      5  C   UNL     1      43.990   0.477  24.924  0.00  0.00    +0.048 A 
ATOM      6  C   UNL     1      45.134   1.026  24.303  0.00  0.00    +0.116 A 
ATOM      7  N   UNL     1      45.223   1.066  22.929  0.00  0.00    -0.223 NA
ATOM      8  C   UNL     1      44.206   0.573  22.133  0.00  0.00    +0.220 A 
ATOM      9  N   UNL     1      44.271   0.610  20.749  0.00  0.00    -0.283 N 
ATOM     36  H   UNL     1      43.503   0.229  20.197  0.00  0.00    +0.155 HD
ATOM     37  N   UNL     1      43.103   0.042  22.702  0.00  0.00    -0.214 NA
BRANCH   4   3
ATOM      1  C   UNL     1      40.041  -2.537  24.785  0.00  0.00    +0.020 A 
ATOM      2  C   UNL     1      41.280  -1.999  24.271  0.00  0.00    +0.013 A 
ATOM      3  C   UNL     1      41.681  -0.631  24.575  0.00  0.00    +0.019 A 
ATOM     38  C   UNL     1      40.799   0.172  25.409  0.00  0.00    +0.120 A 
ATOM     39  N   UNL     1      39.612  -0.372  25.889  0.00  0.00    -0.263 NA
ATOM     40  C   UNL     1      39.215  -1.687  25.601  0.00  0.00    +0.111 A 
ENDBRANCH   4   3
ENDBRANCH  10   9
BRANCH  12  13
ATOM     13  N   UNL     1      47.908   4.004  20.636  0.00  0.00    -0.281 N 
ATOM     14  C   UNL     1      47.692   5.353  20.411  0.00  0.00    +0.248 C 
ATOM     30  O   UNL     1      46.986   5.801  19.520  0.00  0.00    -0.270 OA
ATOM     31  H   UNL     1      48.664   3.772  21.279  0.00  0.00    +0.155 HD
BRANCH  14  15
ATOM     15  C   UNL     1      48.370   6.350  21.295  0.00  0.00    +0.037 A 
ATOM     16  C   UNL     1      47.945   6.547  22.683  0.00  0.00    +0.013 A 
ATOM     17  C   UNL     1      48.605   7.527  23.509  0.00  0.00    +0.005 A 
ATOM     18  C   UNL     1      49.698   8.317  22.948  0.00  0.00    -0.033 A 
ATOM     28  C   UNL     1      50.102   8.098  21.569  0.00  0.00    +0.005 A 
ATOM     29  C   UNL     1      49.457   7.139  20.757  0.00  0.00    +0.013 A 
BRANCH  18  19
ATOM     19  C   UNL     1      50.445   9.400  23.750  0.00  0.00    +0.119 C 
BRANCH  19  20
ATOM     20  N   UNL     1      51.784   9.823  23.244  0.00  0.00    -0.302 NA
ATOM     21  C   UNL     1      52.826   9.892  24.365  0.00  0.00    +0.066 C 
ATOM     22  C   UNL     1      54.227  10.315  23.814  0.00  0.00    -0.064 C 
ATOM     23  N   UNL     1      54.106  11.664  23.103  0.00  0.00    +0.379 N 
ATOM     24  C   UNL     1      55.433  12.091  22.634  0.00  0.00    -0.096 C 
ATOM     25  H   UNL     1      53.755  12.411  23.852  0.00  0.00    -0.082 HD
ATOM     26  C   UNL     1      53.071  11.604  21.989  0.00  0.00    -0.064 C 
ATOM     27  C   UNL     1      51.690  11.155  22.541  0.00  0.00    +0.066 C 
ENDBRANCH  19  20
ENDBRANCH  18  19
ENDBRANCH  14  15
ENDBRANCH  12  13
TORSDOF 6
ENDMDL
MODEL 4
REMARK VINA RESULT:      -9.2     25.662     26.871
REMARK  Name = C:\Users\Docking\Desktop\test protocol\1iep_ligandH.pdb
REMARK  8 active torsions:
REMARK  status: ('A' for Active; 'I' for Inactive)
REMARK    1  A    between atoms: _5  and  _11
REMARK    2  A    between atoms: _19  and  _21
REMARK    3  A    between atoms: _22  and  _66
REMARK    4  A    between atoms: _27  and  _30
REMARK    5  A    between atoms: _32  and  _33
REMARK    6  A    between atoms: _38  and  _43
REMARK    7  A    between atoms: _43  and  _46
REMARK    8  A    between atoms: _53  and  _55
REMARK                            x       y       z     vdW  Elec       q    Type
REMARK                         _______ _______ _______ _____ _____    ______ ____
ROOT
ATOM     10  C   UNL     1      26.440  20.815  22.885  0.00  0.00    +0.038 A 
ATOM     11  C   UNL     1      27.473  21.359  23.691  0.00  0.00    +0.047 A 
ATOM     12  C   UNL     1      27.901  20.696  24.914  0.00  0.00    +0.035 A 
ATOM     32  C   UNL     1      27.256  19.480  25.284  0.00  0.00    +0.024 A 
ATOM     33  C   UNL     1      26.204  18.914  24.477  0.00  0.00    +0.007 A 
ATOM     34  C   UNL     1      25.776  19.564  23.272  0.00  0.00    -0.029 A 
ATOM     35  C   UNL     1      24.639  18.915  22.449  0.00  0.00    +0.045 C 
ENDROOT
BRANCH  10   9
ATOM      4  C   UNL     1      26.645  21.503  18.140  0.00  0.00    +0.077 A 
ATOM      5  C   UNL     1      27.592  20.439  17.967  0.00  0.00    +0.048 A 
ATOM      6  C   UNL     1      28.006  19.744  19.125  0.00  0.00    +0.116 A 
ATOM      7  N   UNL     1      27.504  20.096  20.360  0.00  0.00    -0.223 NA
ATOM      8  C   UNL     1      26.593  21.128  20.491  0.00  0.00    +0.220 A 
ATOM      9  N   UNL     1      26.069  21.493  21.722  0.00  0.00    -0.283 N 
ATOM     36  H   UNL     1      25.405  22.265  21.778  0.00  0.00    +0.155 HD
ATOM     37  N   UNL     1      26.183  21.807  19.400  0.00  0.00    -0.214 NA
BRANCH   4   3
ATOM      1  C   UNL     1      25.296  22.614  14.640  0.00  0.00    +0.020 A 
ATOM      2  C   UNL     1      25.813  21.774  15.696  0.00  0.00    +0.013 A 
ATOM      3  C   UNL     1      26.109  22.328  17.011  0.00  0.00    +0.019 A 
ATOM     38  C   UNL     1      25.867  23.746  17.227  0.00  0.00    +0.120 A 
ATOM     39  N   UNL     1      25.370  24.531  16.192  0.00  0.00    -0.263 NA
ATOM     40  C   UNL     1      25.084  24.010  14.921  0.00  0.00    +0.111 A 
ENDBRANCH   4   3
ENDBRANCH  10   9
BRANCH  12  13
ATOM     13  N   UNL     1      28.938  21.205  25.776  0.00  0.00    -0.281 N 
ATOM     14  C   UNL     1      28.793  21.846  26.995  0.00  0.00    +0.248 C 
ATOM     30  O   UNL     1      27.734  22.272  27.431  0.00  0.00    -0.270 OA
ATOM     31  H   UNL     1      29.895  21.076  25.448  0.00  0.00    +0.155 HD
BRANCH  14  15
ATOM     15  C   UNL     1      30.003  22.058  27.848  0.00  0.00    +0.037 A 
ATOM     16  C   UNL     1      31.352  22.010  27.279  0.00  0.00    +0.013 A 
ATOM     17  C   UNL     1      32.502  22.200  28.126  0.00  0.00    +0.005 A 
ATOM     18  C   UNL     1      32.307  22.442  29.554  0.00  0.00    -0.033 A 
ATOM     28  C   UNL     1      30.957  22.490  30.092  0.00  0.00    +0.005 A 
ATOM     29  C   UNL     1      29.828  22.303  29.264  0.00  0.00    +0.013 A 
BRANCH  18  19
ATOM     19  C   UNL     1      33.477  22.635  30.537  0.00  0.00    +0.119 C 
BRANCH  19  20
ATOM     20  N   UNL     1      34.249  23.910  30.439  0.00  0.00    -0.302 NA
ATOM     21  C   UNL     1      35.387  23.972  31.462  0.00  0.00    +0.066 C 
ATOM     22  C   UNL     1      36.198  25.303  31.331  0.00  0.00    -0.064 C 
ATOM     23  N   UNL     1      35.251  26.492  31.500  0.00  0.00    +0.379 N 
ATOM     24  C   UNL     1      36.020  27.744  31.435  0.00  0.00    -0.096 C 
ATOM     25  H   UNL     1      34.801  26.424  32.518  0.00  0.00    -0.082 HD
ATOM     26  C   UNL     1      34.115  26.437  30.488  0.00  0.00    -0.064 C 
ATOM     27  C   UNL     1      33.334  25.098  30.608  0.00  0.00    +0.066 C 
ENDBRANCH  19  20
ENDBRANCH  18  19
ENDBRANCH  14  15
ENDBRANCH  12  13
TORSDOF 6
ENDMDL
MODEL 5
REMARK VINA RESULT:      -9.2      3.908      5.793
REMARK  Name = C:\Users\Docking\Desktop\test protocol\1iep_ligandH.pdb
REMARK  8 active torsions:
REMARK  status: ('A' for Active; 'I' for Inactive)
REMARK    1  A    between atoms: _5  and  _11
REMARK    2  A    between atoms: _19  and  _21
REMARK    3  A    between atoms: _22  and  _66
REMARK    4  A    between atoms: _27  and  _30
REMARK    5  A    between atoms: _32  and  _33
REMARK    6  A    between atoms: _38  and  _43
REMARK    7  A    between atoms: _43  and  _46
REMARK    8  A    between atoms: _53  and  _55
REMARK                            x       y       z     vdW  Elec       q    Type
REMARK                         _______ _______ _______ _____ _____    ______ ____
ROOT
ATOM     10  C   UNL     1      47.397   2.845  23.795  0.00  0.00    +0.038 A 
ATOM     11  C   UNL     1      48.616   3.302  24.357  0.00  0.00    +0.047 A 
ATOM     12  C   UNL     1      48.780   3.431  25.796  0.00  0.00    +0.035 A 
ATOM     32  C   UNL     1      47.682   3.083  26.635  0.00  0.00    +0.024 A 
ATOM     33  C   UNL     1      46.435   2.617  26.082  0.00  0.00    +0.007 A 
ATOM     34  C   UNL     1      46.266   2.491  24.662  0.00  0.00    -0.029 A 
ATOM     35  C   UNL     1      44.905   1.993  24.124  0.00  0.00    +0.045 C 
ENDROOT
BRANCH  10   9
ATOM      4  C   UNL     1      48.180   0.547  19.655  0.00  0.00    +0.077 A 
ATOM      5  C   UNL     1      48.876  -0.522  20.311  0.00  0.00    +0.048 A 
ATOM      6  C   UNL     1      49.017  -0.439  21.715  0.00  0.00    +0.116 A 
ATOM      7  N   UNL     1      48.497   0.637  22.400  0.00  0.00    -0.223 NA
ATOM      8  C   UNL     1      47.832   1.652  21.736  0.00  0.00    +0.220 A 
ATOM      9  N   UNL     1      47.294   2.740  22.406  0.00  0.00    -0.283 N 
ATOM     36  H   UNL     1      46.818   3.472  21.879  0.00  0.00    +0.155 HD
ATOM     37  N   UNL     1      47.686   1.597  20.396  0.00  0.00    -0.214 NA
BRANCH   4   3
ATOM      1  C   UNL     1      47.746   1.841  15.989  0.00  0.00    +0.020 A 
ATOM      2  C   UNL     1      47.977   1.843  17.415  0.00  0.00    +0.013 A 
ATOM      3  C   UNL     1      47.947   0.601  18.177  0.00  0.00    +0.019 A 
ATOM     38  C   UNL     1      47.680  -0.636  17.460  0.00  0.00    +0.120 A 
ATOM     39  N   UNL     1      47.460  -0.608  16.086  0.00  0.00    -0.263 NA
ATOM     40  C   UNL     1      47.484   0.582  15.343  0.00  0.00    +0.111 A 
ENDBRANCH   4   3
ENDBRANCH  10   9
BRANCH  12  13
ATOM     13  N   UNL     1      49.992   3.897  26.423  0.00  0.00    -0.281 N 
ATOM     14  C   UNL     1      50.264   4.003  27.777  0.00  0.00    +0.248 C 
ATOM     30  O   UNL     1      49.424   3.913  28.660  0.00  0.00    -0.270 OA
ATOM     31  H   UNL     1      50.740   4.184  25.792  0.00  0.00    +0.155 HD
BRANCH  14  15
ATOM     15  C   UNL     1      51.670   4.261  28.214  0.00  0.00    +0.037 A 
ATOM     16  C   UNL     1      52.189   3.711  29.469  0.00  0.00    +0.013 A 
ATOM     17  C   UNL     1      53.545   3.989  29.874  0.00  0.00    +0.005 A 
ATOM     18  C   UNL     1      54.391   4.820  29.021  0.00  0.00    -0.033 A 
ATOM     28  C   UNL     1      53.852   5.348  27.779  0.00  0.00    +0.005 A 
ATOM     29  C   UNL     1      52.524   5.079  27.379  0.00  0.00    +0.013 A 
BRANCH  18  19
ATOM     19  C   UNL     1      55.842   5.185  29.385  0.00  0.00    +0.119 C 
BRANCH  19  20
ATOM     20  N   UNL     1      56.896   4.165  29.103  0.00  0.00    -0.302 NA
ATOM     21  C   UNL     1      56.608   3.383  27.817  0.00  0.00    +0.066 C 
ATOM     22  C   UNL     1      57.732   2.336  27.525  0.00  0.00    -0.064 C 
ATOM     23  N   UNL     1      57.863   1.387  28.718  0.00  0.00    +0.379 N 
ATOM     24  C   UNL     1      58.879   0.366  28.422  0.00  0.00    -0.096 C 
ATOM     25  H   UNL     1      56.886   0.866  28.845  0.00  0.00    -0.082 HD
ATOM     26  C   UNL     1      58.147   2.156  30.000  0.00  0.00    -0.064 C 
ATOM     27  C   UNL     1      57.040   3.214  30.266  0.00  0.00    +0.066 C 
ENDBRANCH  19  20
ENDBRANCH  18  19
ENDBRANCH  14  15
ENDBRANCH  12  13
TORSDOF 6
ENDMDL
