MODEL 1
REMARK VINA RESULT:      -8.9      0.000      0.000
REMARK  Name = C:\Users\Docking\Desktop\test protocol\1iep_ligandH.pdb
REMARK  8 active torsions:
REMARK  status: ('A' for Active; 'I' for Inactive)
REMARK    1  A    between atoms: _5  and  _11
REMARK    2  A    between atoms: _19  and  _21
REMARK    3  A    between atoms: _22  and  _66
REMARK    4  A    between atoms: _27  and  _30
REMARK    5  A    between atoms: _32  and  _33
REMARK    6  A    between atoms: _38  and  _43
REMARK    7  A    between atoms: _43  and  _46
REMARK    8  A    between atoms: _53  and  _55
REMARK                            x       y       z     vdW  Elec       q    Type
REMARK                         _______ _______ _______ _____ _____    ______ ____
ROOT
ATOM     10  C   UNL     1      -4.134  -1.507 -17.813  0.00  0.00    +0.038 A 
ATOM     11  C   UNL     1      -4.136  -2.686 -17.024  0.00  0.00    +0.047 A 
ATOM     12  C   UNL     1      -2.910  -3.195 -16.430  0.00  0.00    +0.035 A 
ATOM     32  C   UNL     1      -1.700  -2.478 -16.658  0.00  0.00    +0.024 A 
ATOM     33  C   UNL     1      -1.679  -1.279 -17.458  0.00  0.00    +0.007 A 
ATOM     34  C   UNL     1      -2.885  -0.772 -18.049  0.00  0.00    -0.029 A 
ATOM     35  C   UNL     1      -2.804   0.514 -18.903  0.00  0.00    +0.045 C 
ENDROOT
BRANCH  10   9
ATOM      4  C   UNL     1      -7.306  -1.226 -21.404  0.00  0.00    +0.077 A 
ATOM      5  C   UNL     1      -6.478  -2.009 -22.275  0.00  0.00    +0.048 A 
ATOM      6  C   UNL     1      -5.240  -2.459 -21.763  0.00  0.00    +0.116 A 
ATOM      7  N   UNL     1      -4.869  -2.143 -20.474  0.00  0.00    -0.223 NA
ATOM      8  C   UNL     1      -5.690  -1.385 -19.661  0.00  0.00    +0.220 A 
ATOM      9  N   UNL     1      -5.340  -1.062 -18.359  0.00  0.00    -0.283 N 
ATOM     36  H   UNL     1      -5.971  -0.494 -17.793  0.00  0.00    +0.155 HD
ATOM     37  N   UNL     1      -6.877  -0.942 -20.127  0.00  0.00    -0.214 NA
BRANCH   4   3
ATOM      1  C   UNL     1     -10.616  -0.511 -23.363  0.00  0.00    +0.020 A 
ATOM      2  C   UNL     1      -9.325  -1.066 -23.028  0.00  0.00    +0.013 A 
ATOM      3  C   UNL     1      -8.644  -0.681 -21.799  0.00  0.00    +0.019 A 
ATOM     38  C   UNL     1      -9.302   0.276 -20.922  0.00  0.00    +0.120 A 
ATOM     39  N   UNL     1     -10.545   0.795 -21.270  0.00  0.00    -0.263 NA
ATOM     40  C   UNL     1     -11.209   0.433 -22.452  0.00  0.00    +0.111 A 
ENDBRANCH   4   3
ENDBRANCH  10   9
BRANCH  12  13
ATOM     13  N   UNL     1      -2.849  -4.391 -15.627  0.00  0.00    -0.281 N 
ATOM     14  C   UNL     1      -3.508  -4.653 -14.437  0.00  0.00    +0.248 C 
ATOM     30  O   UNL     1      -4.089  -3.810 -13.769  0.00  0.00    -0.270 OA
ATOM     31  H   UNL     1      -2.246  -5.136 -15.978  0.00  0.00    +0.155 HD
BRANCH  14  15
ATOM     15  C   UNL     1      -3.512  -6.049 -13.905  0.00  0.00    +0.037 A 
ATOM     16  C   UNL     1      -2.508  -6.495 -12.936  0.00  0.00    +0.013 A 
ATOM     17  C   UNL     1      -2.523  -7.853 -12.451  0.00  0.00    +0.005 A 
ATOM     18  C   UNL     1      -3.549  -8.774 -12.935  0.00  0.00    -0.033 A 
ATOM     28  C   UNL     1      -4.536  -8.304 -13.892  0.00  0.00    +0.005 A 
ATOM     29  C   UNL     1      -4.523  -6.974 -14.370  0.00  0.00    +0.013 A 
BRANCH  18  19
ATOM     19  C   UNL     1      -3.629 -10.246 -12.488  0.00  0.00    +0.119 C 
BRANCH  19  20
ATOM     20  N   UNL     1      -2.497 -11.141 -12.876  0.00  0.00    -0.302 NA
ATOM     21  C   UNL     1      -1.418 -11.204 -11.792  0.00  0.00    +0.066 C 
ATOM     22  C   UNL     1      -0.253 -12.162 -12.204  0.00  0.00    -0.064 C 
ATOM     23  N   UNL     1       0.342 -11.694 -13.533  0.00  0.00    +0.379 N 
ATOM     24  C   UNL     1       1.475 -12.558 -13.894  0.00  0.00    -0.096 C 
ATOM     25  H   UNL     1       0.737 -10.662 -13.382  0.00  0.00    -0.082 HD
ATOM     26  C   UNL     1      -0.725 -11.625 -14.616  0.00  0.00    -0.064 C 
ATOM     27  C   UNL     1      -1.892 -10.694 -14.184  0.00  0.00    +0.066 C 
ENDBRANCH  19  20
ENDBRANCH  18  19
ENDBRANCH  14  15
ENDBRANCH  12  13
TORSDOF 6
ENDMDL
MODEL 2
REMARK VINA RESULT:      -8.6      3.064     12.406
REMARK  Name = C:\Users\Docking\Desktop\test protocol\1iep_ligandH.pdb
REMARK  8 active torsions:
REMARK  status: ('A' for Active; 'I' for Inactive)
REMARK    1  A    between atoms: _5  and  _11
REMARK    2  A    between atoms: _19  and  _21
REMARK    3  A    between atoms: _22  and  _66
REMARK    4  A    between atoms: _27  and  _30
REMARK    5  A    between atoms: _32  and  _33
REMARK    6  A    between atoms: _38  and  _43
REMARK    7  A    between atoms: _43  and  _46
REMARK    8  A    between atoms: _53  and  _55
REMARK                            x       y       z     vdW  Elec       q    Type
REMARK                         _______ _______ _______ _____ _____    ______ ____
ROOT
ATOM     10  C   UNL     1       0.665  -6.347 -12.680  0.00  0.00    +0.038 A 
ATOM     11  C   UNL     1      -0.096  -5.690 -13.681  0.00  0.00    +0.047 A 
ATOM     12  C   UNL     1      -0.569  -4.328 -13.493  0.00  0.00    +0.035 A 
ATOM     32  C   UNL     1      -0.247  -3.663 -12.273  0.00  0.00    +0.024 A 
ATOM     33  C   UNL     1       0.524  -4.316 -11.245  0.00  0.00    +0.007 A 
ATOM     34  C   UNL     1       0.991  -5.661 -11.424  0.00  0.00    -0.029 A 
ATOM     35  C   UNL     1       1.808  -6.315 -10.285  0.00  0.00    +0.045 C 
ENDROOT
BRANCH  10   9
ATOM      4  C   UNL     1      -0.028 -11.097 -12.656  0.00  0.00    +0.077 A 
ATOM      5  C   UNL     1      -1.347 -10.961 -12.107  0.00  0.00    +0.048 A 
ATOM      6  C   UNL     1      -1.806  -9.652 -11.839  0.00  0.00    +0.116 A 
ATOM      7  N   UNL     1      -0.999  -8.567 -12.104  0.00  0.00    -0.223 NA
ATOM      8  C   UNL     1       0.268  -8.733 -12.632  0.00  0.00    +0.220 A 
ATOM      9  N   UNL     1       1.094  -7.656 -12.914  0.00  0.00    -0.283 N 
ATOM     36  H   UNL     1       2.025  -7.821 -13.296  0.00  0.00    +0.155 HD
ATOM     37  N   UNL     1       0.731  -9.973 -12.896  0.00  0.00    -0.214 NA
BRANCH   4   3
ATOM      1  C   UNL     1       0.817 -14.482 -14.425  0.00  0.00    +0.020 A 
ATOM      2  C   UNL     1       0.180 -13.217 -14.139  0.00  0.00    +0.013 A 
ATOM      3  C   UNL     1       0.597 -12.414 -12.997  0.00  0.00    +0.019 A 
ATOM     38  C   UNL     1       1.671 -12.922 -12.157  0.00  0.00    +0.120 A 
ATOM     39  N   UNL     1       2.265 -14.144 -12.456  0.00  0.00    -0.263 NA
ATOM     40  C   UNL     1       1.871 -14.927 -13.551  0.00  0.00    +0.111 A 
ENDBRANCH   4   3
ENDBRANCH  10   9
BRANCH  12  13
ATOM     13  N   UNL     1      -1.352  -3.612 -14.470  0.00  0.00    -0.281 N 
ATOM     14  C   UNL     1      -0.906  -2.971 -15.614  0.00  0.00    +0.248 C 
ATOM     30  O   UNL     1       0.267  -2.733 -15.860  0.00  0.00    -0.270 OA
ATOM     31  H   UNL     1      -2.356  -3.574 -14.297  0.00  0.00    +0.155 HD
BRANCH  14  15
ATOM     15  C   UNL     1      -1.909  -2.517 -16.624  0.00  0.00    +0.037 A 
ATOM     16  C   UNL     1      -3.046  -3.361 -16.999  0.00  0.00    +0.013 A 
ATOM     17  C   UNL     1      -3.990  -2.906 -17.989  0.00  0.00    +0.005 A 
ATOM     18  C   UNL     1      -3.801  -1.597 -18.610  0.00  0.00    -0.033 A 
ATOM     28  C   UNL     1      -2.667  -0.778 -18.216  0.00  0.00    +0.005 A 
ATOM     29  C   UNL     1      -1.740  -1.221 -17.247  0.00  0.00    +0.013 A 
BRANCH  18  19
ATOM     19  C   UNL     1      -4.747  -1.040 -19.691  0.00  0.00    +0.119 C 
BRANCH  19  20
ATOM     20  N   UNL     1      -4.480  -1.439 -21.105  0.00  0.00    -0.302 NA
ATOM     21  C   UNL     1      -5.220  -2.723 -21.488  0.00  0.00    +0.066 C 
ATOM     22  C   UNL     1      -4.948  -3.114 -22.977  0.00  0.00    -0.064 C 
ATOM     23  N   UNL     1      -3.442  -3.272 -23.193  0.00  0.00    +0.379 N 
ATOM     24  C   UNL     1      -3.187  -3.696 -24.577  0.00  0.00    -0.096 C 
ATOM     25  H   UNL     1      -3.088  -4.086 -22.519  0.00  0.00    -0.082 HD
ATOM     26  C   UNL     1      -2.698  -2.000 -22.812  0.00  0.00    -0.064 C 
ATOM     27  C   UNL     1      -2.999  -1.605 -21.339  0.00  0.00    +0.066 C 
ENDBRANCH  19  20
ENDBRANCH  18  19
ENDBRANCH  14  15
ENDBRANCH  12  13
TORSDOF 6
ENDMDL
MODEL 3
REMARK VINA RESULT:      -8.4      2.729      3.817
REMARK  Name = C:\Users\Docking\Desktop\test protocol\1iep_ligandH.pdb
REMARK  8 active torsions:
REMARK  status: ('A' for Active; 'I' for Inactive)
REMARK    1  A    between atoms: _5  and  _11
REMARK    2  A    between atoms: _19  and  _21
REMARK    3  A    between atoms: _22  and  _66
REMARK    4  A    between atoms: _27  and  _30
REMARK    5  A    between atoms: _32  and  _33
REMARK    6  A    between atoms: _38  and  _43
REMARK    7  A    between atoms: _43  and  _46
REMARK    8  A    between atoms: _53  and  _55
REMARK                            x       y       z     vdW  Elec       q    Type
REMARK                         _______ _______ _______ _____ _____    ______ ____
ROOT
ATOM     10  C   UNL     1      -4.122  -1.289 -17.803  0.00  0.00    +0.038 A 
ATOM     11  C   UNL     1      -4.145  -2.343 -16.855  0.00  0.00    +0.047 A 
ATOM     12  C   UNL     1      -2.920  -2.822 -16.232  0.00  0.00    +0.035 A 
ATOM     32  C   UNL     1      -1.690  -2.202 -16.597  0.00  0.00    +0.024 A 
ATOM     33  C   UNL     1      -1.648  -1.130 -17.560  0.00  0.00    +0.007 A 
ATOM     34  C   UNL     1      -2.853  -0.655 -18.180  0.00  0.00    -0.029 A 
ATOM     35  C   UNL     1      -2.748   0.493 -19.211  0.00  0.00    +0.045 C 
ENDROOT
BRANCH  10   9
ATOM      4  C   UNL     1      -7.343  -1.259 -21.361  0.00  0.00    +0.077 A 
ATOM      5  C   UNL     1      -6.544  -2.133 -22.171  0.00  0.00    +0.048 A 
ATOM      6  C   UNL     1      -5.308  -2.561 -21.639  0.00  0.00    +0.116 A 
ATOM      7  N   UNL     1      -4.910  -2.142 -20.388  0.00  0.00    -0.223 NA
ATOM      8  C   UNL     1      -5.704  -1.297 -19.633  0.00  0.00    +0.220 A 
ATOM      9  N   UNL     1      -5.328  -0.869 -18.370  0.00  0.00    -0.283 N 
ATOM     36  H   UNL     1      -5.938  -0.240 -17.848  0.00  0.00    +0.155 HD
ATOM     37  N   UNL     1      -6.888  -0.873 -20.120  0.00  0.00    -0.214 NA
BRANCH   4   3
ATOM      1  C   UNL     1     -10.637  -0.601 -23.367  0.00  0.00    +0.020 A 
ATOM      2  C   UNL     1      -9.350  -1.150 -23.004  0.00  0.00    +0.013 A 
ATOM      3  C   UNL     1      -8.675  -0.723 -21.784  0.00  0.00    +0.019 A 
ATOM     38  C   UNL     1      -9.335   0.267 -20.947  0.00  0.00    +0.120 A 
ATOM     39  N   UNL     1     -10.573   0.779 -21.322  0.00  0.00    -0.263 NA
ATOM     40  C   UNL     1     -11.231   0.377 -22.494  0.00  0.00    +0.111 A 
ENDBRANCH   4   3
ENDBRANCH  10   9
BRANCH  12  13
ATOM     13  N   UNL     1      -2.881  -3.894 -15.268  0.00  0.00    -0.281 N 
ATOM     14  C   UNL     1      -1.855  -4.796 -15.040  0.00  0.00    +0.248 C 
ATOM     30  O   UNL     1      -0.895  -4.953 -15.780  0.00  0.00    -0.270 OA
ATOM     31  H   UNL     1      -3.710  -4.000 -14.684  0.00  0.00    +0.155 HD
BRANCH  14  15
ATOM     15  C   UNL     1      -1.910  -5.659 -13.821  0.00  0.00    +0.037 A 
ATOM     16  C   UNL     1      -0.823  -5.658 -12.839  0.00  0.00    +0.013 A 
ATOM     17  C   UNL     1      -0.894  -6.513 -11.681  0.00  0.00    +0.005 A 
ATOM     18  C   UNL     1      -2.058  -7.376 -11.497  0.00  0.00    -0.033 A 
ATOM     28  C   UNL     1      -3.125  -7.353 -12.485  0.00  0.00    +0.005 A 
ATOM     29  C   UNL     1      -3.059  -6.517 -13.622  0.00  0.00    +0.013 A 
BRANCH  18  19
ATOM     19  C   UNL     1      -2.209  -8.335 -10.302  0.00  0.00    +0.119 C 
BRANCH  19  20
ATOM     20  N   UNL     1      -3.140  -7.926  -9.209  0.00  0.00    -0.302 NA
ATOM     21  C   UNL     1      -2.809  -6.534  -8.664  0.00  0.00    +0.066 C 
ATOM     22  C   UNL     1      -3.807  -6.112  -7.537  0.00  0.00    -0.064 C 
ATOM     23  N   UNL     1      -3.778  -7.154  -6.417  0.00  0.00    +0.379 N 
ATOM     24  C   UNL     1      -4.672  -6.731  -5.330  0.00  0.00    -0.096 C 
ATOM     25  H   UNL     1      -2.741  -7.184  -6.010  0.00  0.00    -0.082 HD
ATOM     26  C   UNL     1      -4.103  -8.542  -6.952  0.00  0.00    -0.064 C 
ATOM     27  C   UNL     1      -3.124  -8.939  -8.091  0.00  0.00    +0.066 C 
ENDBRANCH  19  20
ENDBRANCH  18  19
ENDBRANCH  14  15
ENDBRANCH  12  13
TORSDOF 6
ENDMDL
MODEL 4
REMARK VINA RESULT:      -8.4      2.996      4.693
REMARK  Name = C:\Users\Docking\Desktop\test protocol\1iep_ligandH.pdb
REMARK  8 active torsions:
REMARK  status: ('A' for Active; 'I' for Inactive)
REMARK    1  A    between atoms: _5  and  _11
REMARK    2  A    between atoms: _19  and  _21
REMARK    3  A    between atoms: _22  and  _66
REMARK    4  A    between atoms: _27  and  _30
REMARK    5  A    between atoms: _32  and  _33
REMARK    6  A    between atoms: _38  and  _43
REMARK    7  A    between atoms: _43  and  _46
REMARK    8  A    between atoms: _53  and  _55
REMARK                            x       y       z     vdW  Elec       q    Type
REMARK                         _______ _______ _______ _____ _____    ______ ____
ROOT
ATOM     10  C   UNL     1      -4.492  -2.077 -17.792  0.00  0.00    +0.038 A 
ATOM     11  C   UNL     1      -4.458  -3.252 -16.999  0.00  0.00    +0.047 A 
ATOM     12  C   UNL     1      -5.439  -3.479 -15.949  0.00  0.00    +0.035 A 
ATOM     32  C   UNL     1      -6.443  -2.489 -15.736  0.00  0.00    +0.024 A 
ATOM     33  C   UNL     1      -6.491  -1.288 -16.533  0.00  0.00    +0.007 A 
ATOM     34  C   UNL     1      -5.524  -1.057 -17.568  0.00  0.00    -0.029 A 
ATOM     35  C   UNL     1      -5.620   0.251 -18.387  0.00  0.00    +0.045 C 
ENDROOT
BRANCH  10   9
ATOM      4  C   UNL     1      -3.010  -2.377 -22.348  0.00  0.00    +0.077 A 
ATOM      5  C   UNL     1      -4.258  -2.938 -22.779  0.00  0.00    +0.048 A 
ATOM      6  C   UNL     1      -5.252  -3.141 -21.796  0.00  0.00    +0.116 A 
ATOM      7  N   UNL     1      -5.006  -2.802 -20.483  0.00  0.00    -0.223 NA
ATOM      8  C   UNL     1      -3.791  -2.264 -20.100  0.00  0.00    +0.220 A 
ATOM      9  N   UNL     1      -3.525  -1.910 -18.787  0.00  0.00    -0.283 N 
ATOM     36  H   UNL     1      -2.614  -1.523 -18.544  0.00  0.00    +0.155 HD
ATOM     37  N   UNL     1      -2.825  -2.063 -21.020  0.00  0.00    -0.214 NA
BRANCH   4   3
ATOM      1  C   UNL     1      -0.210  -0.551 -24.379  0.00  0.00    +0.020 A 
ATOM      2  C   UNL     1      -1.319  -0.764 -23.479  0.00  0.00    +0.013 A 
ATOM      3  C   UNL     1      -1.862  -2.100 -23.269  0.00  0.00    +0.019 A 
ATOM     38  C   UNL     1      -1.255  -3.208 -23.990  0.00  0.00    +0.120 A 
ATOM     39  N   UNL     1      -0.188  -2.973 -24.852  0.00  0.00    -0.263 NA
ATOM     40  C   UNL     1       0.342  -1.691 -25.063  0.00  0.00    +0.111 A 
ENDBRANCH   4   3
ENDBRANCH  10   9
BRANCH  12  13
ATOM     13  N   UNL     1      -5.451  -4.649 -15.107  0.00  0.00    -0.281 N 
ATOM     14  C   UNL     1      -6.379  -5.677 -15.089  0.00  0.00    +0.248 C 
ATOM     30  O   UNL     1      -7.463  -5.639 -15.653  0.00  0.00    -0.270 OA
ATOM     31  H   UNL     1      -4.681  -4.729 -14.442  0.00  0.00    +0.155 HD
BRANCH  14  15
ATOM     15  C   UNL     1      -6.064  -6.922 -14.324  0.00  0.00    +0.037 A 
ATOM     16  C   UNL     1      -6.036  -6.926 -12.859  0.00  0.00    +0.013 A 
ATOM     17  C   UNL     1      -5.712  -8.136 -12.146  0.00  0.00    +0.005 A 
ATOM     18  C   UNL     1      -5.416  -9.353 -12.897  0.00  0.00    -0.033 A 
ATOM     28  C   UNL     1      -5.456  -9.322 -14.350  0.00  0.00    +0.005 A 
ATOM     29  C   UNL     1      -5.772  -8.138 -15.053  0.00  0.00    +0.013 A 
BRANCH  18  19
ATOM     19  C   UNL     1      -5.040 -10.684 -12.219  0.00  0.00    +0.119 C 
BRANCH  19  20
ATOM     20  N   UNL     1      -3.586 -11.008 -12.106  0.00  0.00    -0.302 NA
ATOM     21  C   UNL     1      -2.727  -9.748 -11.959  0.00  0.00    +0.066 C 
ATOM     22  C   UNL     1      -1.212 -10.106 -11.819  0.00  0.00    -0.064 C 
ATOM     23  N   UNL     1      -0.770 -10.924 -13.034  0.00  0.00    +0.379 N 
ATOM     24  C   UNL     1       0.668 -11.213 -12.934  0.00  0.00    -0.096 C 
ATOM     25  H   UNL     1      -0.927 -10.294 -13.941  0.00  0.00    -0.082 HD
ATOM     26  C   UNL     1      -1.621 -12.177 -13.190  0.00  0.00    -0.064 C 
ATOM     27  C   UNL     1      -3.128 -11.811 -13.298  0.00  0.00    +0.066 C 
ENDBRANCH  19  20
ENDBRANCH  18  19
ENDBRANCH  14  15
ENDBRANCH  12  13
TORSDOF 6
ENDMDL
MODEL 5
REMARK VINA RESULT:      -8.4      2.285     12.874
REMARK  Name = C:\Users\Docking\Desktop\test protocol\1iep_ligandH.pdb
REMARK  8 active torsions:
REMARK  status: ('A' for Active; 'I' for Inactive)
REMARK    1  A    between atoms: _5  and  _11
REMARK    2  A    between atoms: _19  and  _21
REMARK    3  A    between atoms: _22  and  _66
REMARK    4  A    between atoms: _27  and  _30
REMARK    5  A    between atoms: _32  and  _33
REMARK    6  A    between atoms: _38  and  _43
REMARK    7  A    between atoms: _43  and  _46
REMARK    8  A    between atoms: _53  and  _55
REMARK                            x       y       z     vdW  Elec       q    Type
REMARK                         _______ _______ _______ _____ _____    ______ ____
ROOT
ATOM     10  C   UNL     1       0.772  -6.790 -12.751  0.00  0.00    +0.038 A 
ATOM     11  C   UNL     1      -0.009  -6.205 -13.780  0.00  0.00    +0.047 A 
ATOM     12  C   UNL     1      -0.440  -4.818 -13.701  0.00  0.00    +0.035 A 
ATOM     32  C   UNL     1      -0.055  -4.055 -12.561  0.00  0.00    +0.024 A 
ATOM     33  C   UNL     1       0.738  -4.634 -11.505  0.00  0.00    +0.007 A 
ATOM     34  C   UNL     1       1.164  -6.003 -11.576  0.00  0.00    -0.029 A 
ATOM     35  C   UNL     1       2.007  -6.573 -10.412  0.00  0.00    +0.045 C 
ENDROOT
BRANCH  10   9
ATOM      4  C   UNL     1      -0.058 -11.497 -12.311  0.00  0.00    +0.077 A 
ATOM      5  C   UNL     1      -1.362 -11.275 -11.754  0.00  0.00    +0.048 A 
ATOM      6  C   UNL     1      -1.778  -9.935 -11.591  0.00  0.00    +0.116 A 
ATOM      7  N   UNL     1      -0.945  -8.901 -11.961  0.00  0.00    -0.223 NA
ATOM      8  C   UNL     1       0.307  -9.150 -12.493  0.00  0.00    +0.220 A 
ATOM      9  N   UNL     1       1.159  -8.126 -12.879  0.00  0.00    -0.283 N 
ATOM     36  H   UNL     1       2.077  -8.351 -13.260  0.00  0.00    +0.155 HD
ATOM     37  N   UNL     1       0.729 -10.421 -12.657  0.00  0.00    -0.214 NA
BRANCH   4   3
ATOM      1  C   UNL     1       2.213 -14.417 -13.583  0.00  0.00    +0.020 A 
ATOM      2  C   UNL     1       1.692 -13.083 -13.387  0.00  0.00    +0.013 A 
ATOM      3  C   UNL     1       0.522 -12.857 -12.547  0.00  0.00    +0.019 A 
ATOM     38  C   UNL     1      -0.101 -14.009 -11.915  0.00  0.00    +0.120 A 
ATOM     39  N   UNL     1       0.422 -15.282 -12.123  0.00  0.00    -0.263 NA
ATOM     40  C   UNL     1       1.546 -15.512 -12.930  0.00  0.00    +0.111 A 
ENDBRANCH   4   3
ENDBRANCH  10   9
BRANCH  12  13
ATOM     13  N   UNL     1      -1.241  -4.172 -14.712  0.00  0.00    -0.281 N 
ATOM     14  C   UNL     1      -2.611  -4.260 -14.898  0.00  0.00    +0.248 C 
ATOM     30  O   UNL     1      -3.331  -5.082 -14.351  0.00  0.00    -0.270 OA
ATOM     31  H   UNL     1      -0.736  -3.577 -15.369  0.00  0.00    +0.155 HD
BRANCH  14  15
ATOM     15  C   UNL     1      -3.274  -3.307 -15.838  0.00  0.00    +0.037 A 
ATOM     16  C   UNL     1      -4.721  -3.077 -15.792  0.00  0.00    +0.013 A 
ATOM     17  C   UNL     1      -5.338  -2.165 -16.722  0.00  0.00    +0.005 A 
ATOM     18  C   UNL     1      -4.508  -1.474 -17.706  0.00  0.00    -0.033 A 
ATOM     28  C   UNL     1      -3.075  -1.717 -17.726  0.00  0.00    +0.005 A 
ATOM     29  C   UNL     1      -2.466  -2.611 -16.817  0.00  0.00    +0.013 A 
BRANCH  18  19
ATOM     19  C   UNL     1      -5.084  -0.500 -18.751  0.00  0.00    +0.119 C 
BRANCH  19  20
ATOM     20  N   UNL     1      -6.172  -1.012 -19.636  0.00  0.00    -0.302 NA
ATOM     21  C   UNL     1      -5.680  -1.261 -21.065  0.00  0.00    +0.066 C 
ATOM     22  C   UNL     1      -6.825  -1.818 -21.972  0.00  0.00    -0.064 C 
ATOM     23  N   UNL     1      -7.999  -0.837 -21.966  0.00  0.00    +0.379 N 
ATOM     24  C   UNL     1      -9.054  -1.329 -22.864  0.00  0.00    -0.096 C 
ATOM     25  H   UNL     1      -7.631   0.132 -22.376  0.00  0.00    -0.082 HD
ATOM     26  C   UNL     1      -8.493  -0.582 -20.549  0.00  0.00    -0.064 C 
ATOM     27  C   UNL     1      -7.340  -0.057 -19.649  0.00  0.00    +0.066 C 
ENDBRANCH  19  20
ENDBRANCH  18  19
ENDBRANCH  14  15
ENDBRANCH  12  13
TORSDOF 6
ENDMDL
