MODEL 1
REMARK VINA RESULT:      -9.3      0.000      0.000
REMARK  Name = C:\Users\Docking\Desktop\test protocol\1iep_ligandH.pdb
REMARK  8 active torsions:
REMARK  status: ('A' for Active; 'I' for Inactive)
REMARK    1  A    between atoms: _5  and  _11
REMARK    2  A    between atoms: _19  and  _21
REMARK    3  A    between atoms: _22  and  _66
REMARK    4  A    between atoms: _27  and  _30
REMARK    5  A    between atoms: _32  and  _33
REMARK    6  A    between atoms: _38  and  _43
REMARK    7  A    between atoms: _43  and  _46
REMARK    8  A    between atoms: _53  and  _55
REMARK                            x       y       z     vdW  Elec       q    Type
REMARK                         _______ _______ _______ _____ _____    ______ ____
ROOT
ATOM     10  C   UNL     1      15.423  18.589  10.577  0.00  0.00    +0.038 A 
ATOM     11  C   UNL     1      15.198  19.989  10.607  0.00  0.00    +0.047 A 
ATOM     12  C   UNL     1      16.202  20.923  10.120  0.00  0.00    +0.035 A 
ATOM     32  C   UNL     1      17.423  20.396   9.607  0.00  0.00    +0.024 A 
ATOM     33  C   UNL     1      17.669  18.976   9.570  0.00  0.00    +0.007 A 
ATOM     34  C   UNL     1      16.684  18.050  10.051  0.00  0.00    -0.029 A 
ATOM     35  C   UNL     1      17.004  16.538   9.994  0.00  0.00    +0.045 C 
ENDROOT
BRANCH  10   9
ATOM      4  C   UNL     1      13.243  16.200  14.123  0.00  0.00    +0.077 A 
ATOM      5  C   UNL     1      14.188  16.665  15.097  0.00  0.00    +0.048 A 
ATOM      6  C   UNL     1      15.224  17.512  14.643  0.00  0.00    +0.116 A 
ATOM      7  N   UNL     1      15.300  17.861  13.313  0.00  0.00    -0.223 NA
ATOM      8  C   UNL     1      14.373  17.393  12.399  0.00  0.00    +0.220 A 
ATOM      9  N   UNL     1      14.426  17.738  11.057  0.00  0.00    -0.283 N 
ATOM     36  H   UNL     1      13.728  17.366  10.413  0.00  0.00    +0.155 HD
ATOM     37  N   UNL     1      13.375  16.582  12.807  0.00  0.00    -0.214 NA
BRANCH   4   3
ATOM      1  C   UNL     1      10.677  13.973  16.061  0.00  0.00    +0.020 A 
ATOM      2  C   UNL     1      11.803  14.839  15.801  0.00  0.00    +0.013 A 
ATOM      3  C   UNL     1      12.090  15.301  14.448  0.00  0.00    +0.019 A 
ATOM     38  C   UNL     1      11.211  14.866  13.374  0.00  0.00    +0.120 A 
ATOM     39  N   UNL     1      10.134  14.030  13.655  0.00  0.00    -0.263 NA
ATOM     40  C   UNL     1       9.849  13.578  14.952  0.00  0.00    +0.111 A 
ENDBRANCH   4   3
ENDBRANCH  10   9
BRANCH  12  13
ATOM     13  N   UNL     1      16.032  22.355  10.132  0.00  0.00    -0.281 N 
ATOM     14  C   UNL     1      15.306  23.134   9.247  0.00  0.00    +0.248 C 
ATOM     30  O   UNL     1      14.865  22.737   8.179  0.00  0.00    -0.270 OA
ATOM     31  H   UNL     1      16.505  22.854  10.886  0.00  0.00    +0.155 HD
BRANCH  14  15
ATOM     15  C   UNL     1      15.046  24.565   9.590  0.00  0.00    +0.037 A 
ATOM     16  C   UNL     1      13.997  24.939  10.542  0.00  0.00    +0.013 A 
ATOM     17  C   UNL     1      13.755  26.328  10.843  0.00  0.00    +0.005 A 
ATOM     18  C   UNL     1      14.566  27.354  10.191  0.00  0.00    -0.033 A 
ATOM     28  C   UNL     1      15.604  26.954   9.255  0.00  0.00    +0.005 A 
ATOM     29  C   UNL     1      15.843  25.594   8.957  0.00  0.00    +0.013 A 
BRANCH  18  19
ATOM     19  C   UNL     1      14.364  28.861  10.436  0.00  0.00    +0.119 C 
BRANCH  19  20
ATOM     20  N   UNL     1      14.884  29.421  11.719  0.00  0.00    -0.302 NA
ATOM     21  C   UNL     1      16.370  29.113  11.920  0.00  0.00    +0.066 C 
ATOM     22  C   UNL     1      16.903  29.725  13.256  0.00  0.00    -0.064 C 
ATOM     23  N   UNL     1      16.076  29.189  14.425  0.00  0.00    +0.379 N 
ATOM     24  C   UNL     1      16.611  29.718  15.688  0.00  0.00    -0.096 C 
ATOM     25  H   UNL     1      16.196  28.081  14.444  0.00  0.00    -0.082 HD
ATOM     26  C   UNL     1      14.596  29.489  14.232  0.00  0.00    -0.064 C 
ATOM     27  C   UNL     1      14.084  28.901  12.888  0.00  0.00    +0.066 C 
ENDBRANCH  19  20
ENDBRANCH  18  19
ENDBRANCH  14  15
ENDBRANCH  12  13
TORSDOF 6
ENDMDL
MODEL 2
REMARK VINA RESULT:      -8.9      5.683     12.311
REMARK  Name = C:\Users\Docking\Desktop\test protocol\1iep_ligandH.pdb
REMARK  8 active torsions:
REMARK  status: ('A' for Active; 'I' for Inactive)
REMARK    1  A    between atoms: _5  and  _11
REMARK    2  A    between atoms: _19  and  _21
REMARK    3  A    between atoms: _22  and  _66
REMARK    4  A    between atoms: _27  and  _30
REMARK    5  A    between atoms: _32  and  _33
REMARK    6  A    between atoms: _38  and  _43
REMARK    7  A    between atoms: _43  and  _46
REMARK    8  A    between atoms: _53  and  _55
REMARK                            x       y       z     vdW  Elec       q    Type
REMARK                         _______ _______ _______ _____ _____    ______ ____
ROOT
ATOM     10  C   UNL     1      13.748  25.736   6.038  0.00  0.00    +0.038 A 
ATOM     11  C   UNL     1      13.983  24.548   6.777  0.00  0.00    +0.047 A 
ATOM     12  C   UNL     1      14.653  24.584   8.067  0.00  0.00    +0.035 A 
ATOM     32  C   UNL     1      15.068  25.849   8.578  0.00  0.00    +0.024 A 
ATOM     33  C   UNL     1      14.838  27.066   7.840  0.00  0.00    +0.007 A 
ATOM     34  C   UNL     1      14.180  27.036   6.565  0.00  0.00    -0.029 A 
ATOM     35  C   UNL     1      13.966  28.371   5.815  0.00  0.00    +0.045 C 
ENDROOT
BRANCH  10   9
ATOM      4  C   UNL     1      13.756  24.957   1.302  0.00  0.00    +0.077 A 
ATOM      5  C   UNL     1      15.174  24.745   1.280  0.00  0.00    +0.048 A 
ATOM      6  C   UNL     1      15.866  24.851   2.507  0.00  0.00    +0.116 A 
ATOM      7  N   UNL     1      15.180  25.149   3.665  0.00  0.00    -0.223 NA
ATOM      8  C   UNL     1      13.812  25.350   3.651  0.00  0.00    +0.220 A 
ATOM      9  N   UNL     1      13.100  25.643   4.804  0.00  0.00    -0.283 N 
ATOM     36  H   UNL     1      12.093  25.791   4.751  0.00  0.00    +0.155 HD
ATOM     37  N   UNL     1      13.129  25.255   2.491  0.00  0.00    -0.214 NA
BRANCH   4   3
ATOM      1  C   UNL     1      12.353  25.403  -2.322  0.00  0.00    +0.020 A 
ATOM      2  C   UNL     1      13.229  25.513  -1.178  0.00  0.00    +0.013 A 
ATOM      3  C   UNL     1      12.885  24.875   0.087  0.00  0.00    +0.019 A 
ATOM     38  C   UNL     1      11.640  24.127   0.161  0.00  0.00    +0.120 A 
ATOM     39  N   UNL     1      10.816  24.039  -0.957  0.00  0.00    -0.263 NA
ATOM     40  C   UNL     1      11.135  24.650  -2.178  0.00  0.00    +0.111 A 
ENDBRANCH   4   3
ENDBRANCH  10   9
BRANCH  12  13
ATOM     13  N   UNL     1      14.926  23.410   8.859  0.00  0.00    -0.281 N 
ATOM     14  C   UNL     1      14.015  22.565   9.471  0.00  0.00    +0.248 C 
ATOM     30  O   UNL     1      12.827  22.813   9.610  0.00  0.00    -0.270 OA
ATOM     31  H   UNL     1      15.911  23.173   8.982  0.00  0.00    +0.155 HD
BRANCH  14  15
ATOM     15  C   UNL     1      14.497  21.261  10.022  0.00  0.00    +0.037 A 
ATOM     16  C   UNL     1      15.569  21.207  11.018  0.00  0.00    +0.013 A 
ATOM     17  C   UNL     1      16.027  19.936  11.520  0.00  0.00    +0.005 A 
ATOM     18  C   UNL     1      15.409  18.707  11.027  0.00  0.00    -0.033 A 
ATOM     28  C   UNL     1      14.343  18.790  10.042  0.00  0.00    +0.005 A 
ATOM     29  C   UNL     1      13.893  20.034   9.547  0.00  0.00    +0.013 A 
BRANCH  18  19
ATOM     19  C   UNL     1      15.848  17.306  11.491  0.00  0.00    +0.119 C 
BRANCH  19  20
ATOM     20  N   UNL     1      14.932  16.574  12.416  0.00  0.00    -0.302 NA
ATOM     21  C   UNL     1      13.505  16.495  11.868  0.00  0.00    +0.066 C 
ATOM     22  C   UNL     1      12.565  15.707  12.837  0.00  0.00    -0.064 C 
ATOM     23  N   UNL     1      12.581  16.375  14.214  0.00  0.00    +0.379 N 
ATOM     24  C   UNL     1      11.654  15.670  15.111  0.00  0.00    -0.096 C 
ATOM     25  H   UNL     1      12.204  17.417  14.088  0.00  0.00    -0.082 HD
ATOM     26  C   UNL     1      13.997  16.459  14.765  0.00  0.00    -0.064 C 
ATOM     27  C   UNL     1      14.929  17.219  13.780  0.00  0.00    +0.066 C 
ENDBRANCH  19  20
ENDBRANCH  18  19
ENDBRANCH  14  15
ENDBRANCH  12  13
TORSDOF 6
ENDMDL
MODEL 3
REMARK VINA RESULT:      -8.6      2.544     11.613
REMARK  Name = C:\Users\Docking\Desktop\test protocol\1iep_ligandH.pdb
REMARK  8 active torsions:
REMARK  status: ('A' for Active; 'I' for Inactive)
REMARK    1  A    between atoms: _5  and  _11
REMARK    2  A    between atoms: _19  and  _21
REMARK    3  A    between atoms: _22  and  _66
REMARK    4  A    between atoms: _27  and  _30
REMARK    5  A    between atoms: _32  and  _33
REMARK    6  A    between atoms: _38  and  _43
REMARK    7  A    between atoms: _43  and  _46
REMARK    8  A    between atoms: _53  and  _55
REMARK                            x       y       z     vdW  Elec       q    Type
REMARK                         _______ _______ _______ _____ _____    ______ ____
ROOT
ATOM     10  C   UNL     1      15.093  24.506   9.523  0.00  0.00    +0.038 A 
ATOM     11  C   UNL     1      14.784  23.219  10.032  0.00  0.00    +0.047 A 
ATOM     12  C   UNL     1      15.266  22.015   9.373  0.00  0.00    +0.035 A 
ATOM     32  C   UNL     1      16.062  22.159   8.199  0.00  0.00    +0.024 A 
ATOM     33  C   UNL     1      16.384  23.460   7.668  0.00  0.00    +0.007 A 
ATOM     34  C   UNL     1      15.909  24.652   8.313  0.00  0.00    -0.029 A 
ATOM     35  C   UNL     1      16.280  26.020   7.695  0.00  0.00    +0.045 C 
ENDROOT
BRANCH  10   9
ATOM      4  C   UNL     1      11.551  27.520  10.710  0.00  0.00    +0.077 A 
ATOM      5  C   UNL     1      10.599  26.815   9.900  0.00  0.00    +0.048 A 
ATOM      6  C   UNL     1      11.064  25.686   9.189  0.00  0.00    +0.116 A 
ATOM      7  N   UNL     1      12.383  25.300   9.287  0.00  0.00    -0.223 NA
ATOM      8  C   UNL     1      13.275  26.004  10.076  0.00  0.00    +0.220 A 
ATOM      9  N   UNL     1      14.604  25.629  10.196  0.00  0.00    -0.283 N 
ATOM     36  H   UNL     1      15.232  26.178  10.782  0.00  0.00    +0.155 HD
ATOM     37  N   UNL     1      12.856  27.086  10.765  0.00  0.00    -0.214 NA
BRANCH   4   3
ATOM      1  C   UNL     1       9.630  30.542  12.286  0.00  0.00    +0.020 A 
ATOM      2  C   UNL     1       9.906  29.375  11.479  0.00  0.00    +0.013 A 
ATOM      3  C   UNL     1      11.212  28.730  11.524  0.00  0.00    +0.019 A 
ATOM     38  C   UNL     1      12.224  29.294  12.404  0.00  0.00    +0.120 A 
ATOM     39  N   UNL     1      11.930  30.419  13.168  0.00  0.00    -0.263 NA
ATOM     40  C   UNL     1      10.678  31.049  13.132  0.00  0.00    +0.111 A 
ENDBRANCH   4   3
ENDBRANCH  10   9
BRANCH  12  13
ATOM     13  N   UNL     1      14.979  20.680   9.838  0.00  0.00    -0.281 N 
ATOM     14  C   UNL     1      15.724  19.904  10.711  0.00  0.00    +0.248 C 
ATOM     30  O   UNL     1      16.867  20.159  11.059  0.00  0.00    -0.270 OA
ATOM     31  H   UNL     1      14.122  20.257   9.480  0.00  0.00    +0.155 HD
BRANCH  14  15
ATOM     15  C   UNL     1      15.116  18.656  11.265  0.00  0.00    +0.037 A 
ATOM     16  C   UNL     1      13.863  18.118  10.729  0.00  0.00    +0.013 A 
ATOM     17  C   UNL     1      13.289  16.922  11.293  0.00  0.00    +0.005 A 
ATOM     18  C   UNL     1      13.970  16.254  12.400  0.00  0.00    -0.033 A 
ATOM     28  C   UNL     1      15.215  16.807  12.909  0.00  0.00    +0.005 A 
ATOM     29  C   UNL     1      15.779  17.980  12.359  0.00  0.00    +0.013 A 
BRANCH  18  19
ATOM     19  C   UNL     1      13.420  14.985  13.077  0.00  0.00    +0.119 C 
BRANCH  19  20
ATOM     20  N   UNL     1      12.018  15.037  13.590  0.00  0.00    -0.302 NA
ATOM     21  C   UNL     1      11.964  15.009  15.120  0.00  0.00    +0.066 C 
ATOM     22  C   UNL     1      10.492  15.087  15.639  0.00  0.00    -0.064 C 
ATOM     23  N   UNL     1       9.684  13.930  15.047  0.00  0.00    +0.379 N 
ATOM     24  C   UNL     1       8.314  13.966  15.579  0.00  0.00    -0.096 C 
ATOM     25  H   UNL     1      10.155  12.979  15.390  0.00  0.00    -0.082 HD
ATOM     26  C   UNL     1       9.734  13.948  13.526  0.00  0.00    -0.064 C 
ATOM     27  C   UNL     1      11.204  13.901  13.021  0.00  0.00    +0.066 C 
ENDBRANCH  19  20
ENDBRANCH  18  19
ENDBRANCH  14  15
ENDBRANCH  12  13
TORSDOF 6
ENDMDL
MODEL 4
REMARK VINA RESULT:      -8.5      1.312      2.162
REMARK  Name = C:\Users\Docking\Desktop\test protocol\1iep_ligandH.pdb
REMARK  8 active torsions:
REMARK  status: ('A' for Active; 'I' for Inactive)
REMARK    1  A    between atoms: _5  and  _11
REMARK    2  A    between atoms: _19  and  _21
REMARK    3  A    between atoms: _22  and  _66
REMARK    4  A    between atoms: _27  and  _30
REMARK    5  A    between atoms: _32  and  _33
REMARK    6  A    between atoms: _38  and  _43
REMARK    7  A    between atoms: _43  and  _46
REMARK    8  A    between atoms: _53  and  _55
REMARK                            x       y       z     vdW  Elec       q    Type
REMARK                         _______ _______ _______ _____ _____    ______ ____
ROOT
ATOM     10  C   UNL     1      16.789  19.773  10.351  0.00  0.00    +0.038 A 
ATOM     11  C   UNL     1      16.276  21.093  10.419  0.00  0.00    +0.047 A 
ATOM     12  C   UNL     1      16.822  22.156   9.590  0.00  0.00    +0.035 A 
ATOM     32  C   UNL     1      17.890  21.839   8.701  0.00  0.00    +0.024 A 
ATOM     33  C   UNL     1      18.424  20.502   8.620  0.00  0.00    +0.007 A 
ATOM     34  C   UNL     1      17.891  19.450   9.437  0.00  0.00    -0.029 A 
ATOM     35  C   UNL     1      18.507  18.037   9.313  0.00  0.00    +0.045 C 
ENDROOT
BRANCH  10   9
ATOM      4  C   UNL     1      13.134  16.967  11.697  0.00  0.00    +0.077 A 
ATOM      5  C   UNL     1      12.263  17.524  10.703  0.00  0.00    +0.048 A 
ATOM      6  C   UNL     1      12.792  18.536   9.870  0.00  0.00    +0.116 A 
ATOM      7  N   UNL     1      14.097  18.951  10.028  0.00  0.00    -0.223 NA
ATOM      8  C   UNL     1      14.909  18.394  10.998  0.00  0.00    +0.220 A 
ATOM      9  N   UNL     1      16.227  18.791  11.170  0.00  0.00    -0.283 N 
ATOM     36  H   UNL     1      16.791  18.361  11.902  0.00  0.00    +0.155 HD
ATOM     37  N   UNL     1      14.427  17.428  11.807  0.00  0.00    -0.214 NA
BRANCH   4   3
ATOM      1  C   UNL     1      13.191  14.251  14.511  0.00  0.00    +0.020 A 
ATOM      2  C   UNL     1      13.639  15.289  13.612  0.00  0.00    +0.013 A 
ATOM      3  C   UNL     1      12.723  15.889  12.651  0.00  0.00    +0.019 A 
ATOM     38  C   UNL     1      11.348  15.413  12.625  0.00  0.00    +0.120 A 
ATOM     39  N   UNL     1      10.945  14.410  13.502  0.00  0.00    -0.263 NA
ATOM     40  C   UNL     1      11.819  13.825  14.431  0.00  0.00    +0.111 A 
ENDBRANCH   4   3
ENDBRANCH  10   9
BRANCH  12  13
ATOM     13  N   UNL     1      16.347  23.518   9.622  0.00  0.00    -0.281 N 
ATOM     14  C   UNL     1      15.130  24.005   9.176  0.00  0.00    +0.248 C 
ATOM     30  O   UNL     1      14.345  23.375   8.482  0.00  0.00    -0.270 OA
ATOM     31  H   UNL     1      16.986  24.205  10.022  0.00  0.00    +0.155 HD
BRANCH  14  15
ATOM     15  C   UNL     1      14.734  25.400   9.540  0.00  0.00    +0.037 A 
ATOM     16  C   UNL     1      15.110  26.540   8.701  0.00  0.00    +0.013 A 
ATOM     17  C   UNL     1      14.729  27.877   9.085  0.00  0.00    +0.005 A 
ATOM     18  C   UNL     1      13.965  28.079  10.313  0.00  0.00    -0.033 A 
ATOM     28  C   UNL     1      13.600  26.929  11.124  0.00  0.00    +0.005 A 
ATOM     29  C   UNL     1      13.973  25.618  10.752  0.00  0.00    +0.013 A 
BRANCH  18  19
ATOM     19  C   UNL     1      13.534  29.472  10.811  0.00  0.00    +0.119 C 
BRANCH  19  20
ATOM     20  N   UNL     1      14.198  29.993  12.043  0.00  0.00    -0.302 NA
ATOM     21  C   UNL     1      15.685  29.631  12.091  0.00  0.00    +0.066 C 
ATOM     22  C   UNL     1      16.368  30.204  13.376  0.00  0.00    -0.064 C 
ATOM     23  N   UNL     1      15.642  29.677  14.614  0.00  0.00    +0.379 N 
ATOM     24  C   UNL     1      16.318  30.167  15.825  0.00  0.00    -0.096 C 
ATOM     25  H   UNL     1      15.725  28.566  14.607  0.00  0.00    -0.082 HD
ATOM     26  C   UNL     1      14.162  30.030  14.573  0.00  0.00    -0.064 C 
ATOM     27  C   UNL     1      13.499  29.482  13.278  0.00  0.00    +0.066 C 
ENDBRANCH  19  20
ENDBRANCH  18  19
ENDBRANCH  14  15
ENDBRANCH  12  13
TORSDOF 6
ENDMDL
MODEL 5
REMARK VINA RESULT:      -8.3      8.650     13.138
REMARK  Name = C:\Users\Docking\Desktop\test protocol\1iep_ligandH.pdb
REMARK  8 active torsions:
REMARK  status: ('A' for Active; 'I' for Inactive)
REMARK    1  A    between atoms: _5  and  _11
REMARK    2  A    between atoms: _19  and  _21
REMARK    3  A    between atoms: _22  and  _66
REMARK    4  A    between atoms: _27  and  _30
REMARK    5  A    between atoms: _32  and  _33
REMARK    6  A    between atoms: _38  and  _43
REMARK    7  A    between atoms: _43  and  _46
REMARK    8  A    between atoms: _53  and  _55
REMARK                            x       y       z     vdW  Elec       q    Type
REMARK                         _______ _______ _______ _____ _____    ______ ____
ROOT
ATOM     10  C   UNL     1      16.261  26.335   5.944  0.00  0.00    +0.038 A 
ATOM     11  C   UNL     1      15.454  26.139   4.795  0.00  0.00    +0.047 A 
ATOM     12  C   UNL     1      15.939  25.376   3.656  0.00  0.00    +0.035 A 
ATOM     32  C   UNL     1      17.251  24.824   3.722  0.00  0.00    +0.024 A 
ATOM     33  C   UNL     1      18.086  25.014   4.882  0.00  0.00    +0.007 A 
ATOM     34  C   UNL     1      17.614  25.768   6.008  0.00  0.00    -0.029 A 
ATOM     35  C   UNL     1      18.555  25.946   7.222  0.00  0.00    +0.045 C 
ENDROOT
BRANCH  10   9
ATOM      4  C   UNL     1      14.073  26.667  10.204  0.00  0.00    +0.077 A 
ATOM      5  C   UNL     1      13.922  25.243  10.303  0.00  0.00    +0.048 A 
ATOM      6  C   UNL     1      14.414  24.462   9.233  0.00  0.00    +0.116 A 
ATOM      7  N   UNL     1      15.012  25.070   8.150  0.00  0.00    -0.223 NA
ATOM      8  C   UNL     1      15.140  26.445   8.085  0.00  0.00    +0.220 A 
ATOM      9  N   UNL     1      15.745  27.077   7.010  0.00  0.00    -0.283 N 
ATOM     36  H   UNL     1      15.814  28.094   6.996  0.00  0.00    +0.155 HD
ATOM     37  N   UNL     1      14.677  27.213   9.093  0.00  0.00    -0.214 NA
BRANCH   4   3
ATOM      1  C   UNL     1      13.959  29.005  13.337  0.00  0.00    +0.020 A 
ATOM      2  C   UNL     1      14.458  28.077  12.348  0.00  0.00    +0.013 A 
ATOM      3  C   UNL     1      13.607  27.626  11.254  0.00  0.00    +0.019 A 
ATOM     38  C   UNL     1      12.246  28.137  11.188  0.00  0.00    +0.120 A 
ATOM     39  N   UNL     1      11.793  29.028  12.156  0.00  0.00    -0.263 NA
ATOM     40  C   UNL     1      12.602  29.469  13.214  0.00  0.00    +0.111 A 
ENDBRANCH   4   3
ENDBRANCH  10   9
BRANCH  12  13
ATOM     13  N   UNL     1      15.167  25.151   2.459  0.00  0.00    -0.281 N 
ATOM     14  C   UNL     1      13.969  24.466   2.334  0.00  0.00    +0.248 C 
ATOM     30  O   UNL     1      13.485  23.757   3.203  0.00  0.00    -0.270 OA
ATOM     31  H   UNL     1      15.551  25.543   1.599  0.00  0.00    +0.155 HD
BRANCH  14  15
ATOM     15  C   UNL     1      13.206  24.574   1.053  0.00  0.00    +0.037 A 
ATOM     16  C   UNL     1      11.823  24.103   0.951  0.00  0.00    +0.013 A 
ATOM     17  C   UNL     1      11.115  24.203  -0.301  0.00  0.00    +0.005 A 
ATOM     18  C   UNL     1      11.791  24.778  -1.461  0.00  0.00    -0.033 A 
ATOM     28  C   UNL     1      13.162  25.243  -1.331  0.00  0.00    +0.005 A 
ATOM     29  C   UNL     1      13.859  25.145  -0.105  0.00  0.00    +0.013 A 
BRANCH  18  19
ATOM     19  C   UNL     1      11.120  24.905  -2.842  0.00  0.00    +0.119 C 
BRANCH  19  20
ATOM     20  N   UNL     1      10.226  23.789  -3.273  0.00  0.00    -0.302 NA
ATOM     21  C   UNL     1      10.590  23.266  -4.665  0.00  0.00    +0.066 C 
ATOM     22  C   UNL     1       9.660  22.084  -5.091  0.00  0.00    -0.064 C 
ATOM     23  N   UNL     1       8.202  22.546  -5.050  0.00  0.00    +0.379 N 
ATOM     24  C   UNL     1       7.329  21.455  -5.505  0.00  0.00    -0.096 C 
ATOM     25  H   UNL     1       8.094  23.389  -5.771  0.00  0.00    -0.082 HD
ATOM     26  C   UNL     1       7.833  23.070  -3.669  0.00  0.00    -0.064 C 
ATOM     27  C   UNL     1       8.782  24.225  -3.244  0.00  0.00    +0.066 C 
ENDBRANCH  19  20
ENDBRANCH  18  19
ENDBRANCH  14  15
ENDBRANCH  12  13
TORSDOF 6
ENDMDL
