MODEL 1
REMARK VINA RESULT:      -9.1      0.000      0.000
REMARK  Name = C:\Users\Docking\Desktop\test protocol\1iep_ligandH.pdb
REMARK  8 active torsions:
REMARK  status: ('A' for Active; 'I' for Inactive)
REMARK    1  A    between atoms: _5  and  _11
REMARK    2  A    between atoms: _19  and  _21
REMARK    3  A    between atoms: _22  and  _66
REMARK    4  A    between atoms: _27  and  _30
REMARK    5  A    between atoms: _32  and  _33
REMARK    6  A    between atoms: _38  and  _43
REMARK    7  A    between atoms: _43  and  _46
REMARK    8  A    between atoms: _53  and  _55
REMARK                            x       y       z     vdW  Elec       q    Type
REMARK                         _______ _______ _______ _____ _____    ______ ____
ROOT
ATOM     10  C   UNL     1      -0.266  -5.825 -14.028  0.00  0.00    +0.038 A 
ATOM     11  C   UNL     1      -0.443  -7.219 -14.215  0.00  0.00    +0.047 A 
ATOM     12  C   UNL     1       0.232  -8.184 -13.362  0.00  0.00    +0.035 A 
ATOM     32  C   UNL     1       1.078  -7.694 -12.324  0.00  0.00    +0.024 A 
ATOM     33  C   UNL     1       1.269  -6.279 -12.120  0.00  0.00    +0.007 A 
ATOM     34  C   UNL     1       0.608  -5.323 -12.961  0.00  0.00    -0.029 A 
ATOM     35  C   UNL     1       0.855  -3.818 -12.701  0.00  0.00    +0.045 C 
ENDROOT
BRANCH  10   9
ATOM      4  C   UNL     1      -4.253  -4.215 -16.162  0.00  0.00    +0.077 A 
ATOM      5  C   UNL     1      -5.060  -5.234 -15.554  0.00  0.00    +0.048 A 
ATOM      6  C   UNL     1      -4.410  -6.157 -14.705  0.00  0.00    +0.116 A 
ATOM      7  N   UNL     1      -3.053  -6.059 -14.487  0.00  0.00    -0.223 NA
ATOM      8  C   UNL     1      -2.303  -5.065 -15.089  0.00  0.00    +0.220 A 
ATOM      9  N   UNL     1      -0.939  -4.943 -14.877  0.00  0.00    -0.283 N 
ATOM     36  H   UNL     1      -0.420  -4.200 -15.346  0.00  0.00    +0.155 HD
ATOM     37  N   UNL     1      -2.901  -4.172 -15.905  0.00  0.00    -0.214 NA
BRANCH   4   3
ATOM      1  C   UNL     1      -4.799  -1.878 -19.250  0.00  0.00    +0.020 A 
ATOM      2  C   UNL     1      -4.238  -2.903 -18.401  0.00  0.00    +0.013 A 
ATOM      3  C   UNL     1      -4.796  -3.165 -17.080  0.00  0.00    +0.019 A 
ATOM     38  C   UNL     1      -5.931  -2.365 -16.645  0.00  0.00    +0.120 A 
ATOM     39  N   UNL     1      -6.449  -1.383 -17.484  0.00  0.00    -0.263 NA
ATOM     40  C   UNL     1      -5.920  -1.121 -18.756  0.00  0.00    +0.111 A 
ENDBRANCH   4   3
ENDBRANCH  10   9
BRANCH  12  13
ATOM     13  N   UNL     1       0.098  -9.613 -13.509  0.00  0.00    -0.281 N 
ATOM     14  C   UNL     1      -1.058 -10.372 -13.434  0.00  0.00    +0.248 C 
ATOM     30  O   UNL     1      -2.129  -9.959 -13.015  0.00  0.00    -0.270 OA
ATOM     31  H   UNL     1       0.960 -10.126 -13.691  0.00  0.00    +0.155 HD
BRANCH  14  15
ATOM     15  C   UNL     1      -1.015 -11.799 -13.876  0.00  0.00    +0.037 A 
ATOM     16  C   UNL     1      -2.058 -12.748 -13.481  0.00  0.00    +0.013 A 
ATOM     17  C   UNL     1      -1.984 -14.124 -13.907  0.00  0.00    +0.005 A 
ATOM     18  C   UNL     1      -0.861 -14.557 -14.735  0.00  0.00    -0.033 A 
ATOM     28  C   UNL     1       0.158 -13.592 -15.117  0.00  0.00    +0.005 A 
ATOM     29  C   UNL     1       0.088 -12.244 -14.700  0.00  0.00    +0.013 A 
BRANCH  18  19
ATOM     19  C   UNL     1      -0.689 -16.009 -15.218  0.00  0.00    +0.119 C 
BRANCH  19  20
ATOM     20  N   UNL     1      -1.427 -16.411 -16.452  0.00  0.00    -0.302 NA
ATOM     21  C   UNL     1      -1.682 -17.920 -16.503  0.00  0.00    +0.066 C 
ATOM     22  C   UNL     1      -2.474 -18.321 -17.790  0.00  0.00    -0.064 C 
ATOM     23  N   UNL     1      -1.700 -17.860 -19.026  0.00  0.00    +0.379 N 
ATOM     24  C   UNL     1      -2.414 -18.286 -20.239  0.00  0.00    -0.096 C 
ATOM     25  H   UNL     1      -0.711 -18.375 -19.017  0.00  0.00    -0.082 HD
ATOM     26  C   UNL     1      -1.440 -16.361 -18.982  0.00  0.00    -0.064 C 
ATOM     27  C   UNL     1      -0.678 -15.970 -17.686  0.00  0.00    +0.066 C 
ENDBRANCH  19  20
ENDBRANCH  18  19
ENDBRANCH  14  15
ENDBRANCH  12  13
TORSDOF 6
ENDMDL
MODEL 2
REMARK VINA RESULT:      -9.1      3.629      7.434
REMARK  Name = C:\Users\Docking\Desktop\test protocol\1iep_ligandH.pdb
REMARK  8 active torsions:
REMARK  status: ('A' for Active; 'I' for Inactive)
REMARK    1  A    between atoms: _5  and  _11
REMARK    2  A    between atoms: _19  and  _21
REMARK    3  A    between atoms: _22  and  _66
REMARK    4  A    between atoms: _27  and  _30
REMARK    5  A    between atoms: _32  and  _33
REMARK    6  A    between atoms: _38  and  _43
REMARK    7  A    between atoms: _43  and  _46
REMARK    8  A    between atoms: _53  and  _55
REMARK                            x       y       z     vdW  Elec       q    Type
REMARK                         _______ _______ _______ _____ _____    ______ ____
ROOT
ATOM     10  C   UNL     1      -4.628  -1.490 -18.290  0.00  0.00    +0.038 A 
ATOM     11  C   UNL     1      -4.609  -2.496 -17.291  0.00  0.00    +0.047 A 
ATOM     12  C   UNL     1      -3.358  -2.949 -16.703  0.00  0.00    +0.035 A 
ATOM     32  C   UNL     1      -2.144  -2.354 -17.156  0.00  0.00    +0.024 A 
ATOM     33  C   UNL     1      -2.146  -1.330 -18.171  0.00  0.00    +0.007 A 
ATOM     34  C   UNL     1      -3.377  -0.881 -18.756  0.00  0.00    -0.029 A 
ATOM     35  C   UNL     1      -3.318   0.214 -19.846  0.00  0.00    +0.045 C 
ENDROOT
BRANCH  10   9
ATOM      4  C   UNL     1      -8.083  -1.734 -21.614  0.00  0.00    +0.077 A 
ATOM      5  C   UNL     1      -7.364  -2.716 -22.374  0.00  0.00    +0.048 A 
ATOM      6  C   UNL     1      -6.106  -3.126 -21.879  0.00  0.00    +0.116 A 
ATOM      7  N   UNL     1      -5.613  -2.588 -20.710  0.00  0.00    -0.223 NA
ATOM      8  C   UNL     1      -6.331  -1.642 -20.002  0.00  0.00    +0.220 A 
ATOM      9  N   UNL     1      -5.858  -1.093 -18.820  0.00  0.00    -0.283 N 
ATOM     36  H   UNL     1      -6.415  -0.392 -18.332  0.00  0.00    +0.155 HD
ATOM     37  N   UNL     1      -7.534  -1.232 -20.455  0.00  0.00    -0.214 NA
BRANCH   4   3
ATOM      1  C   UNL     1     -11.193  -0.628 -23.712  0.00  0.00    +0.020 A 
ATOM      2  C   UNL     1      -9.886  -1.151 -23.388  0.00  0.00    +0.013 A 
ATOM      3  C   UNL     1      -9.426  -1.202 -22.005  0.00  0.00    +0.019 A 
ATOM     38  C   UNL     1     -10.321  -0.713 -20.967  0.00  0.00    +0.120 A 
ATOM     39  N   UNL     1     -11.574  -0.214 -21.310  0.00  0.00    -0.263 NA
ATOM     40  C   UNL     1     -12.026  -0.158 -22.637  0.00  0.00    +0.111 A 
ENDBRANCH   4   3
ENDBRANCH  10   9
BRANCH  12  13
ATOM     13  N   UNL     1      -3.275  -3.973 -15.691  0.00  0.00    -0.281 N 
ATOM     14  C   UNL     1      -4.039  -5.124 -15.580  0.00  0.00    +0.248 C 
ATOM     30  O   UNL     1      -5.058  -5.341 -16.218  0.00  0.00    -0.270 OA
ATOM     31  H   UNL     1      -2.568  -3.832 -14.970  0.00  0.00    +0.155 HD
BRANCH  14  15
ATOM     15  C   UNL     1      -3.617  -6.179 -14.609  0.00  0.00    +0.037 A 
ATOM     16  C   UNL     1      -2.241  -6.246 -14.110  0.00  0.00    +0.013 A 
ATOM     17  C   UNL     1      -1.856  -7.284 -13.187  0.00  0.00    +0.005 A 
ATOM     18  C   UNL     1      -2.851  -8.263 -12.756  0.00  0.00    -0.033 A 
ATOM     28  C   UNL     1      -4.210  -8.170 -13.262  0.00  0.00    +0.005 A 
ATOM     29  C   UNL     1      -4.590  -7.155 -14.168  0.00  0.00    +0.013 A 
BRANCH  18  19
ATOM     19  C   UNL     1      -2.524  -9.418 -11.790  0.00  0.00    +0.119 C 
BRANCH  19  20
ATOM     20  N   UNL     1      -1.662 -10.521 -12.310  0.00  0.00    -0.302 NA
ATOM     21  C   UNL     1      -0.174 -10.168 -12.244  0.00  0.00    +0.066 C 
ATOM     22  C   UNL     1       0.714 -11.342 -12.771  0.00  0.00    -0.064 C 
ATOM     23  N   UNL     1       0.303 -11.686 -14.203  0.00  0.00    +0.379 N 
ATOM     24  C   UNL     1       1.174 -12.750 -14.722  0.00  0.00    -0.096 C 
ATOM     25  H   UNL     1       0.468 -10.778 -14.829  0.00  0.00    -0.082 HD
ATOM     26  C   UNL     1      -1.177 -12.036 -14.279  0.00  0.00    -0.064 C 
ATOM     27  C   UNL     1      -2.049 -10.874 -13.725  0.00  0.00    +0.066 C 
ENDBRANCH  19  20
ENDBRANCH  18  19
ENDBRANCH  14  15
ENDBRANCH  12  13
TORSDOF 6
ENDMDL
MODEL 3
REMARK VINA RESULT:      -8.9     20.560     22.903
REMARK  Name = C:\Users\Docking\Desktop\test protocol\1iep_ligandH.pdb
REMARK  8 active torsions:
REMARK  status: ('A' for Active; 'I' for Inactive)
REMARK    1  A    between atoms: _5  and  _11
REMARK    2  A    between atoms: _19  and  _21
REMARK    3  A    between atoms: _22  and  _66
REMARK    4  A    between atoms: _27  and  _30
REMARK    5  A    between atoms: _32  and  _33
REMARK    6  A    between atoms: _38  and  _43
REMARK    7  A    between atoms: _43  and  _46
REMARK    8  A    between atoms: _53  and  _55
REMARK                            x       y       z     vdW  Elec       q    Type
REMARK                         _______ _______ _______ _____ _____    ______ ____
ROOT
ATOM     10  C   UNL     1       5.771  11.390 -13.212  0.00  0.00    +0.038 A 
ATOM     11  C   UNL     1       4.404  11.210 -12.880  0.00  0.00    +0.047 A 
ATOM     12  C   UNL     1       4.007  10.387 -11.748  0.00  0.00    +0.035 A 
ATOM     32  C   UNL     1       5.029   9.764 -10.974  0.00  0.00    +0.024 A 
ATOM     33  C   UNL     1       6.423   9.936 -11.297  0.00  0.00    +0.007 A 
ATOM     34  C   UNL     1       6.821  10.744 -12.414  0.00  0.00    -0.029 A 
ATOM     35  C   UNL     1       8.330  10.888 -12.719  0.00  0.00    +0.045 C 
ENDROOT
BRANCH  10   9
ATOM      4  C   UNL     1       6.290  12.095 -17.931  0.00  0.00    +0.077 A 
ATOM      5  C   UNL     1       5.907  10.746 -18.234  0.00  0.00    +0.048 A 
ATOM      6  C   UNL     1       5.592   9.901 -17.147  0.00  0.00    +0.116 A 
ATOM      7  N   UNL     1       5.657  10.380 -15.857  0.00  0.00    -0.223 NA
ATOM      8  C   UNL     1       6.031  11.686 -15.598  0.00  0.00    +0.220 A 
ATOM      9  N   UNL     1       6.096  12.191 -14.309  0.00  0.00    -0.283 N 
ATOM     36  H   UNL     1       6.384  13.157 -14.160  0.00  0.00    +0.155 HD
ATOM     37  N   UNL     1       6.339  12.512 -16.619  0.00  0.00    -0.214 NA
BRANCH   4   3
ATOM      1  C   UNL     1       6.502  14.077 -21.297  0.00  0.00    +0.020 A 
ATOM      2  C   UNL     1       6.123  13.072 -20.330  0.00  0.00    +0.013 A 
ATOM      3  C   UNL     1       6.650  13.110 -18.971  0.00  0.00    +0.019 A 
ATOM     38  C   UNL     1       7.564  14.186 -18.620  0.00  0.00    +0.120 A 
ATOM     39  N   UNL     1       7.912  15.139 -19.573  0.00  0.00    -0.263 NA
ATOM     40  C   UNL     1       7.413  15.112 -20.884  0.00  0.00    +0.111 A 
ENDBRANCH   4   3
ENDBRANCH  10   9
BRANCH  12  13
ATOM     13  N   UNL     1       2.634  10.161 -11.368  0.00  0.00    -0.281 N 
ATOM     14  C   UNL     1       1.764  11.045 -10.751  0.00  0.00    +0.248 C 
ATOM     30  O   UNL     1       2.102  12.102 -10.238  0.00  0.00    -0.270 OA
ATOM     31  H   UNL     1       2.258   9.236 -11.578  0.00  0.00    +0.155 HD
BRANCH  14  15
ATOM     15  C   UNL     1       0.312  10.700 -10.683  0.00  0.00    +0.037 A 
ATOM     16  C   UNL     1      -0.664  11.342 -11.569  0.00  0.00    +0.013 A 
ATOM     17  C   UNL     1      -2.062  11.003 -11.470  0.00  0.00    +0.005 A 
ATOM     18  C   UNL     1      -2.492  10.016 -10.483  0.00  0.00    -0.033 A 
ATOM     28  C   UNL     1      -1.502   9.392  -9.621  0.00  0.00    +0.005 A 
ATOM     29  C   UNL     1      -0.131   9.722  -9.713  0.00  0.00    +0.013 A 
BRANCH  18  19
ATOM     19  C   UNL     1      -3.965   9.609 -10.294  0.00  0.00    +0.119 C 
BRANCH  19  20
ATOM     20  N   UNL     1      -4.711  10.247  -9.168  0.00  0.00    -0.302 NA
ATOM     21  C   UNL     1      -4.293  11.704  -8.955  0.00  0.00    +0.066 C 
ATOM     22  C   UNL     1      -5.100  12.363  -7.788  0.00  0.00    -0.064 C 
ATOM     23  N   UNL     1      -4.898  11.548  -6.509  0.00  0.00    +0.379 N 
ATOM     24  C   UNL     1      -5.608  12.197  -5.397  0.00  0.00    -0.096 C 
ATOM     25  H   UNL     1      -3.810  11.561  -6.269  0.00  0.00    -0.082 HD
ATOM     26  C   UNL     1      -5.309  10.097  -6.714  0.00  0.00    -0.064 C 
ATOM     27  C   UNL     1      -4.523   9.461  -7.894  0.00  0.00    +0.066 C 
ENDBRANCH  19  20
ENDBRANCH  18  19
ENDBRANCH  14  15
ENDBRANCH  12  13
TORSDOF 6
ENDMDL
MODEL 4
REMARK VINA RESULT:      -8.9      2.437      3.017
REMARK  Name = C:\Users\Docking\Desktop\test protocol\1iep_ligandH.pdb
REMARK  8 active torsions:
REMARK  status: ('A' for Active; 'I' for Inactive)
REMARK    1  A    between atoms: _5  and  _11
REMARK    2  A    between atoms: _19  and  _21
REMARK    3  A    between atoms: _22  and  _66
REMARK    4  A    between atoms: _27  and  _30
REMARK    5  A    between atoms: _32  and  _33
REMARK    6  A    between atoms: _38  and  _43
REMARK    7  A    between atoms: _43  and  _46
REMARK    8  A    between atoms: _53  and  _55
REMARK                            x       y       z     vdW  Elec       q    Type
REMARK                         _______ _______ _______ _____ _____    ______ ____
ROOT
ATOM     10  C   UNL     1      -0.344  -5.701 -14.039  0.00  0.00    +0.038 A 
ATOM     11  C   UNL     1      -0.254  -7.113 -14.145  0.00  0.00    +0.047 A 
ATOM     12  C   UNL     1       0.426  -7.902 -13.129  0.00  0.00    +0.035 A 
ATOM     32  C   UNL     1       1.001  -7.220 -12.017  0.00  0.00    +0.024 A 
ATOM     33  C   UNL     1       0.920  -5.786 -11.894  0.00  0.00    +0.007 A 
ATOM     34  C   UNL     1       0.253  -5.002 -12.894  0.00  0.00    -0.029 A 
ATOM     35  C   UNL     1       0.202  -3.467 -12.714  0.00  0.00    +0.045 C 
ENDROOT
BRANCH  10   9
ATOM      4  C   UNL     1      -4.295  -3.739 -15.929  0.00  0.00    +0.077 A 
ATOM      5  C   UNL     1      -5.111  -4.185 -14.836  0.00  0.00    +0.048 A 
ATOM      6  C   UNL     1      -4.476  -4.922 -13.811  0.00  0.00    +0.116 A 
ATOM      7  N   UNL     1      -3.126  -5.188 -13.884  0.00  0.00    -0.223 NA
ATOM      8  C   UNL     1      -2.369  -4.745 -14.953  0.00  0.00    +0.220 A 
ATOM      9  N   UNL     1      -1.008  -4.993 -15.043  0.00  0.00    -0.283 N 
ATOM     36  H   UNL     1      -0.486  -4.656 -15.851  0.00  0.00    +0.155 HD
ATOM     37  N   UNL     1      -2.952  -4.040 -15.945  0.00  0.00    -0.214 NA
BRANCH   4   3
ATOM      1  C   UNL     1      -6.355  -1.222 -18.102  0.00  0.00    +0.020 A 
ATOM      2  C   UNL     1      -5.885  -1.961 -16.953  0.00  0.00    +0.013 A 
ATOM      3  C   UNL     1      -4.820  -2.946 -17.085  0.00  0.00    +0.019 A 
ATOM     38  C   UNL     1      -4.245  -3.161 -18.405  0.00  0.00    +0.120 A 
ATOM     39  N   UNL     1      -4.719  -2.435 -19.494  0.00  0.00    -0.263 NA
ATOM     40  C   UNL     1      -5.745  -1.486 -19.378  0.00  0.00    +0.111 A 
ENDBRANCH   4   3
ENDBRANCH  10   9
BRANCH  12  13
ATOM     13  N   UNL     1       0.555  -9.337 -13.187  0.00  0.00    -0.281 N 
ATOM     14  C   UNL     1      -0.429 -10.270 -13.469  0.00  0.00    +0.248 C 
ATOM     30  O   UNL     1      -1.625 -10.023 -13.506  0.00  0.00    -0.270 OA
ATOM     31  H   UNL     1       1.485  -9.710 -12.996  0.00  0.00    +0.155 HD
BRANCH  14  15
ATOM     15  C   UNL     1      -0.027 -11.685 -13.735  0.00  0.00    +0.037 A 
ATOM     16  C   UNL     1      -0.636 -12.456 -14.823  0.00  0.00    +0.013 A 
ATOM     17  C   UNL     1      -0.242 -13.824 -15.047  0.00  0.00    +0.005 A 
ATOM     18  C   UNL     1       0.767 -14.430 -14.182  0.00  0.00    -0.033 A 
ATOM     28  C   UNL     1       1.358 -13.641 -13.114  0.00  0.00    +0.005 A 
ATOM     29  C   UNL     1       0.974 -12.300 -12.891  0.00  0.00    +0.013 A 
BRANCH  18  19
ATOM     19  C   UNL     1       1.232 -15.890 -14.335  0.00  0.00    +0.119 C 
BRANCH  19  20
ATOM     20  N   UNL     1       2.377 -16.150 -15.258  0.00  0.00    -0.302 NA
ATOM     21  C   UNL     1       2.222 -17.477 -16.007  0.00  0.00    +0.066 C 
ATOM     22  C   UNL     1       3.417 -17.722 -16.984  0.00  0.00    -0.064 C 
ATOM     23  N   UNL     1       4.729 -17.694 -16.198  0.00  0.00    +0.379 N 
ATOM     24  C   UNL     1       5.850 -17.982 -17.105  0.00  0.00    -0.096 C 
ATOM     25  H   UNL     1       4.687 -18.512 -15.442  0.00  0.00    -0.082 HD
ATOM     26  C   UNL     1       4.890 -16.379 -15.449  0.00  0.00    -0.064 C 
ATOM     27  C   UNL     1       3.683 -16.131 -14.502  0.00  0.00    +0.066 C 
ENDBRANCH  19  20
ENDBRANCH  18  19
ENDBRANCH  14  15
ENDBRANCH  12  13
TORSDOF 6
ENDMDL
MODEL 5
REMARK VINA RESULT:      -8.9     20.566     22.841
REMARK  Name = C:\Users\Docking\Desktop\test protocol\1iep_ligandH.pdb
REMARK  8 active torsions:
REMARK  status: ('A' for Active; 'I' for Inactive)
REMARK    1  A    between atoms: _5  and  _11
REMARK    2  A    between atoms: _19  and  _21
REMARK    3  A    between atoms: _22  and  _66
REMARK    4  A    between atoms: _27  and  _30
REMARK    5  A    between atoms: _32  and  _33
REMARK    6  A    between atoms: _38  and  _43
REMARK    7  A    between atoms: _43  and  _46
REMARK    8  A    between atoms: _53  and  _55
REMARK                            x       y       z     vdW  Elec       q    Type
REMARK                         _______ _______ _______ _____ _____    ______ ____
ROOT
ATOM     10  C   UNL     1       5.717  10.247 -13.359  0.00  0.00    +0.038 A 
ATOM     11  C   UNL     1       4.343  10.119 -13.033  0.00  0.00    +0.047 A 
ATOM     12  C   UNL     1       3.893  10.133 -11.649  0.00  0.00    +0.035 A 
ATOM     32  C   UNL     1       4.870  10.281 -10.623  0.00  0.00    +0.024 A 
ATOM     33  C   UNL     1       6.272  10.412 -10.936  0.00  0.00    +0.007 A 
ATOM     34  C   UNL     1       6.722  10.396 -12.298  0.00  0.00    -0.029 A 
ATOM     35  C   UNL     1       8.237  10.533 -12.575  0.00  0.00    +0.045 C 
ENDROOT
BRANCH  10   9
ATOM      4  C   UNL     1       6.674  12.442 -17.518  0.00  0.00    +0.077 A 
ATOM      5  C   UNL     1       6.374  13.735 -16.973  0.00  0.00    +0.048 A 
ATOM      6  C   UNL     1       5.970  13.791 -15.620  0.00  0.00    +0.116 A 
ATOM      7  N   UNL     1       5.877  12.634 -14.877  0.00  0.00    -0.223 NA
ATOM      8  C   UNL     1       6.172  11.403 -15.434  0.00  0.00    +0.220 A 
ATOM      9  N   UNL     1       6.093  10.228 -14.703  0.00  0.00    -0.283 N 
ATOM     36  H   UNL     1       6.312   9.339 -15.153  0.00  0.00    +0.155 HD
ATOM     37  N   UNL     1       6.559  11.323 -16.724  0.00  0.00    -0.214 NA
BRANCH   4   3
ATOM      1  C   UNL     1       8.862  12.222 -20.754  0.00  0.00    +0.020 A 
ATOM      2  C   UNL     1       8.485  12.452 -19.378  0.00  0.00    +0.013 A 
ATOM      3  C   UNL     1       7.118  12.220 -18.931  0.00  0.00    +0.019 A 
ATOM     38  C   UNL     1       6.147  11.750 -19.908  0.00  0.00    +0.120 A 
ATOM     39  N   UNL     1       6.539  11.539 -21.227  0.00  0.00    -0.263 NA
ATOM     40  C   UNL     1       7.851  11.760 -21.669  0.00  0.00    +0.111 A 
ENDBRANCH   4   3
ENDBRANCH  10   9
BRANCH  12  13
ATOM     13  N   UNL     1       2.512   9.999 -11.257  0.00  0.00    -0.281 N 
ATOM     14  C   UNL     1       1.645  10.995 -10.839  0.00  0.00    +0.248 C 
ATOM     30  O   UNL     1       1.989  12.127 -10.532  0.00  0.00    -0.270 OA
ATOM     31  H   UNL     1       2.126   9.055 -11.293  0.00  0.00    +0.155 HD
BRANCH  14  15
ATOM     15  C   UNL     1       0.187  10.685 -10.732  0.00  0.00    +0.037 A 
ATOM     16  C   UNL     1      -0.801  11.380 -11.562  0.00  0.00    +0.013 A 
ATOM     17  C   UNL     1      -2.203  11.074 -11.426  0.00  0.00    +0.005 A 
ATOM     18  C   UNL     1      -2.626  10.066 -10.456  0.00  0.00    -0.033 A 
ATOM     28  C   UNL     1      -1.624   9.388  -9.649  0.00  0.00    +0.005 A 
ATOM     29  C   UNL     1      -0.249   9.686  -9.779  0.00  0.00    +0.013 A 
BRANCH  18  19
ATOM     19  C   UNL     1      -4.102   9.691 -10.229  0.00  0.00    +0.119 C 
BRANCH  19  20
ATOM     20  N   UNL     1      -4.791  10.304  -9.055  0.00  0.00    -0.302 NA
ATOM     21  C   UNL     1      -4.370  11.761  -8.839  0.00  0.00    +0.066 C 
ATOM     22  C   UNL     1      -5.117  12.394  -7.619  0.00  0.00    -0.064 C 
ATOM     23  N   UNL     1      -4.842  11.559  -6.367  0.00  0.00    +0.379 N 
ATOM     24  C   UNL     1      -5.496  12.184  -5.208  0.00  0.00    -0.096 C 
ATOM     25  H   UNL     1      -3.743  11.575  -6.185  0.00  0.00    -0.082 HD
ATOM     26  C   UNL     1      -5.255  10.109  -6.575  0.00  0.00    -0.064 C 
ATOM     27  C   UNL     1      -4.529   9.498  -7.806  0.00  0.00    +0.066 C 
ENDBRANCH  19  20
ENDBRANCH  18  19
ENDBRANCH  14  15
ENDBRANCH  12  13
TORSDOF 6
ENDMDL
