MODEL 1
REMARK VINA RESULT:      -9.5      0.000      0.000
REMARK  Name = C:\Users\Docking\Desktop\test protocol\1iep_ligandH.pdb
REMARK  8 active torsions:
REMARK  status: ('A' for Active; 'I' for Inactive)
REMARK    1  A    between atoms: _5  and  _11
REMARK    2  A    between atoms: _19  and  _21
REMARK    3  A    between atoms: _22  and  _66
REMARK    4  A    between atoms: _27  and  _30
REMARK    5  A    between atoms: _32  and  _33
REMARK    6  A    between atoms: _38  and  _43
REMARK    7  A    between atoms: _43  and  _46
REMARK    8  A    between atoms: _53  and  _55
REMARK                            x       y       z     vdW  Elec       q    Type
REMARK                         _______ _______ _______ _____ _____    ______ ____
ROOT
ATOM     10  C   UNL     1      15.612  22.506  14.597  0.00  0.00    +0.038 A 
ATOM     11  C   UNL     1      16.669  23.425  14.818  0.00  0.00    +0.047 A 
ATOM     12  C   UNL     1      18.030  23.120  14.404  0.00  0.00    +0.035 A 
ATOM     32  C   UNL     1      18.278  21.870  13.766  0.00  0.00    +0.024 A 
ATOM     33  C   UNL     1      17.215  20.923  13.536  0.00  0.00    +0.007 A 
ATOM     34  C   UNL     1      15.871  21.217  13.943  0.00  0.00    -0.029 A 
ATOM     35  C   UNL     1      14.773  20.162  13.676  0.00  0.00    +0.045 C 
ENDROOT
BRANCH  10   9
ATOM      4  C   UNL     1      12.512  24.062  17.915  0.00  0.00    +0.077 A 
ATOM      5  C   UNL     1      13.540  24.172  18.909  0.00  0.00    +0.048 A 
ATOM      6  C   UNL     1      14.853  23.812  18.528  0.00  0.00    +0.116 A 
ATOM      7  N   UNL     1      15.106  23.376  17.246  0.00  0.00    -0.223 NA
ATOM      8  C   UNL     1      14.091  23.279  16.312  0.00  0.00    +0.220 A 
ATOM      9  N   UNL     1      14.324  22.850  15.015  0.00  0.00    -0.283 N 
ATOM     36  H   UNL     1      13.547  22.786  14.357  0.00  0.00    +0.155 HD
ATOM     37  N   UNL     1      12.829  23.616  16.652  0.00  0.00    -0.214 NA
BRANCH   4   3
ATOM      1  C   UNL     1       9.212  26.060  18.561  0.00  0.00    +0.020 A 
ATOM      2  C   UNL     1      10.609  25.779  18.323  0.00  0.00    +0.013 A 
ATOM      3  C   UNL     1      11.077  24.408  18.164  0.00  0.00    +0.019 A 
ATOM     38  C   UNL     1      10.098  23.335  18.251  0.00  0.00    +0.120 A 
ATOM     39  N   UNL     1       8.759  23.635  18.483  0.00  0.00    -0.263 NA
ATOM     40  C   UNL     1       8.297  24.951  18.639  0.00  0.00    +0.111 A 
ENDBRANCH   4   3
ENDBRANCH  10   9
BRANCH  12  13
ATOM     13  N   UNL     1      19.145  24.011  14.609  0.00  0.00    -0.281 N 
ATOM     14  C   UNL     1      19.690  24.914  13.710  0.00  0.00    +0.248 C 
ATOM     30  O   UNL     1      19.433  24.940  12.515  0.00  0.00    -0.270 OA
ATOM     31  H   UNL     1      19.587  23.971  15.527  0.00  0.00    +0.155 HD
BRANCH  14  15
ATOM     15  C   UNL     1      20.672  25.924  14.208  0.00  0.00    +0.037 A 
ATOM     16  C   UNL     1      20.331  27.348  14.273  0.00  0.00    +0.013 A 
ATOM     17  C   UNL     1      21.303  28.304  14.741  0.00  0.00    +0.005 A 
ATOM     18  C   UNL     1      22.626  27.838  15.149  0.00  0.00    -0.033 A 
ATOM     28  C   UNL     1      22.937  26.420  15.078  0.00  0.00    +0.005 A 
ATOM     29  C   UNL     1      21.987  25.480  14.619  0.00  0.00    +0.013 A 
BRANCH  18  19
ATOM     19  C   UNL     1      23.733  28.790  15.641  0.00  0.00    +0.119 C 
BRANCH  19  20
ATOM     20  N   UNL     1      25.098  28.214  15.826  0.00  0.00    -0.302 NA
ATOM     21  C   UNL     1      25.520  28.196  17.298  0.00  0.00    +0.066 C 
ATOM     22  C   UNL     1      26.942  27.570  17.475  0.00  0.00    -0.064 C 
ATOM     23  N   UNL     1      27.950  28.352  16.631  0.00  0.00    +0.379 N 
ATOM     24  C   UNL     1      29.297  27.802  16.841  0.00  0.00    -0.096 C 
ATOM     25  H   UNL     1      27.953  29.405  16.999  0.00  0.00    -0.082 HD
ATOM     26  C   UNL     1      27.536  28.377  15.167  0.00  0.00    -0.064 C 
ATOM     27  C   UNL     1      26.110  28.974  15.005  0.00  0.00    +0.066 C 
ENDBRANCH  19  20
ENDBRANCH  18  19
ENDBRANCH  14  15
ENDBRANCH  12  13
TORSDOF 6
ENDMDL
MODEL 2
REMARK VINA RESULT:      -9.2      5.719      9.198
REMARK  Name = C:\Users\Docking\Desktop\test protocol\1iep_ligandH.pdb
REMARK  8 active torsions:
REMARK  status: ('A' for Active; 'I' for Inactive)
REMARK    1  A    between atoms: _5  and  _11
REMARK    2  A    between atoms: _19  and  _21
REMARK    3  A    between atoms: _22  and  _66
REMARK    4  A    between atoms: _27  and  _30
REMARK    5  A    between atoms: _32  and  _33
REMARK    6  A    between atoms: _38  and  _43
REMARK    7  A    between atoms: _43  and  _46
REMARK    8  A    between atoms: _53  and  _55
REMARK                            x       y       z     vdW  Elec       q    Type
REMARK                         _______ _______ _______ _____ _____    ______ ____
ROOT
ATOM     10  C   UNL     1       9.397  25.868  19.151  0.00  0.00    +0.038 A 
ATOM     11  C   UNL     1      10.646  25.593  18.537  0.00  0.00    +0.047 A 
ATOM     12  C   UNL     1      11.219  24.256  18.563  0.00  0.00    +0.035 A 
ATOM     32  C   UNL     1      10.492  23.222  19.221  0.00  0.00    +0.024 A 
ATOM     33  C   UNL     1       9.222  23.484  19.852  0.00  0.00    +0.007 A 
ATOM     34  C   UNL     1       8.653  24.801  19.831  0.00  0.00    -0.029 A 
ATOM     35  C   UNL     1       7.291  25.026  20.529  0.00  0.00    +0.045 C 
ENDROOT
BRANCH  10   9
ATOM      4  C   UNL     1       8.386  30.104  21.168  0.00  0.00    +0.077 A 
ATOM      5  C   UNL     1       8.878  29.679  22.447  0.00  0.00    +0.048 A 
ATOM      6  C   UNL     1       9.376  28.360  22.546  0.00  0.00    +0.116 A 
ATOM      7  N   UNL     1       9.378  27.537  21.441  0.00  0.00    -0.223 NA
ATOM      8  C   UNL     1       8.894  27.978  20.222  0.00  0.00    +0.220 A 
ATOM      9  N   UNL     1       8.894  27.169  19.096  0.00  0.00    -0.283 N 
ATOM     36  H   UNL     1       8.521  27.529  18.217  0.00  0.00    +0.155 HD
ATOM     37  N   UNL     1       8.412  29.232  20.103  0.00  0.00    -0.214 NA
BRANCH   4   3
ATOM      1  C   UNL     1       6.275  33.388  21.418  0.00  0.00    +0.020 A 
ATOM      2  C   UNL     1       6.776  32.065  21.715  0.00  0.00    +0.013 A 
ATOM      3  C   UNL     1       7.831  31.469  20.905  0.00  0.00    +0.019 A 
ATOM     38  C   UNL     1       8.362  32.244  19.794  0.00  0.00    +0.120 A 
ATOM     39  N   UNL     1       7.860  33.514  19.531  0.00  0.00    -0.263 NA
ATOM     40  C   UNL     1       6.843  34.098  20.302  0.00  0.00    +0.111 A 
ENDBRANCH   4   3
ENDBRANCH  10   9
BRANCH  12  13
ATOM     13  N   UNL     1      12.486  23.919  17.964  0.00  0.00    -0.281 N 
ATOM     14  C   UNL     1      12.724  23.068  16.897  0.00  0.00    +0.248 C 
ATOM     30  O   UNL     1      11.899  22.297  16.430  0.00  0.00    -0.270 OA
ATOM     31  H   UNL     1      13.308  24.361  18.376  0.00  0.00    +0.155 HD
BRANCH  14  15
ATOM     15  C   UNL     1      14.080  23.061  16.267  0.00  0.00    +0.037 A 
ATOM     16  C   UNL     1      15.260  23.529  16.999  0.00  0.00    +0.013 A 
ATOM     17  C   UNL     1      16.553  23.528  16.362  0.00  0.00    +0.005 A 
ATOM     18  C   UNL     1      16.672  23.056  14.984  0.00  0.00    -0.033 A 
ATOM     28  C   UNL     1      15.486  22.593  14.284  0.00  0.00    +0.005 A 
ATOM     29  C   UNL     1      14.217  22.593  14.904  0.00  0.00    +0.013 A 
BRANCH  18  19
ATOM     19  C   UNL     1      18.009  23.039  14.219  0.00  0.00    +0.119 C 
BRANCH  19  20
ATOM     20  N   UNL     1      18.198  21.967  13.197  0.00  0.00    -0.302 NA
ATOM     21  C   UNL     1      18.472  20.604  13.839  0.00  0.00    +0.066 C 
ATOM     22  C   UNL     1      18.645  19.489  12.756  0.00  0.00    -0.064 C 
ATOM     23  N   UNL     1      19.779  19.877  11.806  0.00  0.00    +0.379 N 
ATOM     24  C   UNL     1      19.983  18.805  10.821  0.00  0.00    -0.096 C 
ATOM     25  H   UNL     1      20.712  19.964  12.410  0.00  0.00    -0.082 HD
ATOM     26  C   UNL     1      19.517  21.233  11.165  0.00  0.00    -0.064 C 
ATOM     27  C   UNL     1      19.317  22.328  12.250  0.00  0.00    +0.066 C 
ENDBRANCH  19  20
ENDBRANCH  18  19
ENDBRANCH  14  15
ENDBRANCH  12  13
TORSDOF 6
ENDMDL
MODEL 3
REMARK VINA RESULT:      -9.2      1.963     12.574
REMARK  Name = C:\Users\Docking\Desktop\test protocol\1iep_ligandH.pdb
REMARK  8 active torsions:
REMARK  status: ('A' for Active; 'I' for Inactive)
REMARK    1  A    between atoms: _5  and  _11
REMARK    2  A    between atoms: _19  and  _21
REMARK    3  A    between atoms: _22  and  _66
REMARK    4  A    between atoms: _27  and  _30
REMARK    5  A    between atoms: _32  and  _33
REMARK    6  A    between atoms: _38  and  _43
REMARK    7  A    between atoms: _43  and  _46
REMARK    8  A    between atoms: _53  and  _55
REMARK                            x       y       z     vdW  Elec       q    Type
REMARK                         _______ _______ _______ _____ _____    ______ ____
ROOT
ATOM     10  C   UNL     1      20.348  23.762  14.341  0.00  0.00    +0.038 A 
ATOM     11  C   UNL     1      19.137  23.960  15.052  0.00  0.00    +0.047 A 
ATOM     12  C   UNL     1      17.896  23.344  14.610  0.00  0.00    +0.035 A 
ATOM     32  C   UNL     1      17.925  22.528  13.441  0.00  0.00    +0.024 A 
ATOM     33  C   UNL     1      19.148  22.317  12.706  0.00  0.00    +0.007 A 
ATOM     34  C   UNL     1      20.374  22.925  13.136  0.00  0.00    -0.029 A 
ATOM     35  C   UNL     1      21.654  22.670  12.305  0.00  0.00    +0.045 C 
ENDROOT
BRANCH  10   9
ATOM      4  C   UNL     1      23.079  27.639  15.083  0.00  0.00    +0.077 A 
ATOM      5  C   UNL     1      22.122  28.506  14.459  0.00  0.00    +0.048 A 
ATOM      6  C   UNL     1      20.942  27.914  13.954  0.00  0.00    +0.116 A 
ATOM      7  N   UNL     1      20.746  26.555  14.070  0.00  0.00    -0.223 NA
ATOM      8  C   UNL     1      21.691  25.747  14.676  0.00  0.00    +0.220 A 
ATOM      9  N   UNL     1      21.510  24.379  14.810  0.00  0.00    -0.283 N 
ATOM     36  H   UNL     1      22.234  23.816  15.257  0.00  0.00    +0.155 HD
ATOM     37  N   UNL     1      22.826  26.288  15.165  0.00  0.00    -0.214 NA
BRANCH   4   3
ATOM      1  C   UNL     1      26.651  29.183  15.485  0.00  0.00    +0.020 A 
ATOM      2  C   UNL     1      25.421  28.740  14.871  0.00  0.00    +0.013 A 
ATOM      3  C   UNL     1      24.372  28.115  15.668  0.00  0.00    +0.019 A 
ATOM     38  C   UNL     1      24.602  27.954  17.096  0.00  0.00    +0.120 A 
ATOM     39  N   UNL     1      25.798  28.389  17.660  0.00  0.00    -0.263 NA
ATOM     40  C   UNL     1      26.814  28.989  16.902  0.00  0.00    +0.111 A 
ENDBRANCH   4   3
ENDBRANCH  10   9
BRANCH  12  13
ATOM     13  N   UNL     1      16.634  23.515  15.286  0.00  0.00    -0.281 N 
ATOM     14  C   UNL     1      16.098  22.738  16.300  0.00  0.00    +0.248 C 
ATOM     30  O   UNL     1      16.531  21.645  16.635  0.00  0.00    -0.270 OA
ATOM     31  H   UNL     1      16.066  24.306  14.980  0.00  0.00    +0.155 HD
BRANCH  14  15
ATOM     15  C   UNL     1      14.901  23.241  17.039  0.00  0.00    +0.037 A 
ATOM     16  C   UNL     1      13.560  23.167  16.454  0.00  0.00    +0.013 A 
ATOM     17  C   UNL     1      12.424  23.675  17.182  0.00  0.00    +0.005 A 
ATOM     18  C   UNL     1      12.625  24.260  18.505  0.00  0.00    -0.033 A 
ATOM     28  C   UNL     1      13.965  24.316  19.064  0.00  0.00    +0.005 A 
ATOM     29  C   UNL     1      15.081  23.820  18.354  0.00  0.00    +0.013 A 
BRANCH  18  19
ATOM     19  C   UNL     1      11.473  24.846  19.344  0.00  0.00    +0.119 C 
BRANCH  19  20
ATOM     20  N   UNL     1      10.143  24.174  19.243  0.00  0.00    -0.302 NA
ATOM     21  C   UNL     1       9.156  24.981  18.395  0.00  0.00    +0.066 C 
ATOM     22  C   UNL     1       7.776  24.254  18.281  0.00  0.00    -0.064 C 
ATOM     23  N   UNL     1       7.214  24.009  19.682  0.00  0.00    +0.379 N 
ATOM     24  C   UNL     1       5.891  23.377  19.577  0.00  0.00    -0.096 C 
ATOM     25  H   UNL     1       7.077  25.003  20.169  0.00  0.00    -0.082 HD
ATOM     26  C   UNL     1       8.191  23.210  20.533  0.00  0.00    -0.064 C 
ATOM     27  C   UNL     1       9.567  23.927  20.615  0.00  0.00    +0.066 C 
ENDBRANCH  19  20
ENDBRANCH  18  19
ENDBRANCH  14  15
ENDBRANCH  12  13
TORSDOF 6
ENDMDL
MODEL 4
REMARK VINA RESULT:      -9.2      2.241     11.987
REMARK  Name = C:\Users\Docking\Desktop\test protocol\1iep_ligandH.pdb
REMARK  8 active torsions:
REMARK  status: ('A' for Active; 'I' for Inactive)
REMARK    1  A    between atoms: _5  and  _11
REMARK    2  A    between atoms: _19  and  _21
REMARK    3  A    between atoms: _22  and  _66
REMARK    4  A    between atoms: _27  and  _30
REMARK    5  A    between atoms: _32  and  _33
REMARK    6  A    between atoms: _38  and  _43
REMARK    7  A    between atoms: _43  and  _46
REMARK    8  A    between atoms: _53  and  _55
REMARK                            x       y       z     vdW  Elec       q    Type
REMARK                         _______ _______ _______ _____ _____    ______ ____
ROOT
ATOM     10  C   UNL     1      20.205  23.638  14.350  0.00  0.00    +0.038 A 
ATOM     11  C   UNL     1      18.974  23.767  15.043  0.00  0.00    +0.047 A 
ATOM     12  C   UNL     1      17.760  23.140  14.543  0.00  0.00    +0.035 A 
ATOM     32  C   UNL     1      17.837  22.387  13.335  0.00  0.00    +0.024 A 
ATOM     33  C   UNL     1      19.079  22.246  12.618  0.00  0.00    +0.007 A 
ATOM     34  C   UNL     1      20.280  22.864  13.105  0.00  0.00    -0.029 A 
ATOM     35  C   UNL     1      21.582  22.686  12.291  0.00  0.00    +0.045 C 
ENDROOT
BRANCH  10   9
ATOM      4  C   UNL     1      22.935  27.510  15.117  0.00  0.00    +0.077 A 
ATOM      5  C   UNL     1      22.039  28.360  14.386  0.00  0.00    +0.048 A 
ATOM      6  C   UNL     1      20.891  27.760  13.823  0.00  0.00    +0.116 A 
ATOM      7  N   UNL     1      20.665  26.410  13.985  0.00  0.00    -0.223 NA
ATOM      8  C   UNL     1      21.551  25.619  14.693  0.00  0.00    +0.220 A 
ATOM      9  N   UNL     1      21.340  24.261  14.875  0.00  0.00    -0.283 N 
ATOM     36  H   UNL     1      22.020  23.710  15.398  0.00  0.00    +0.155 HD
ATOM     37  N   UNL     1      22.655  26.168  15.240  0.00  0.00    -0.214 NA
BRANCH   4   3
ATOM      1  C   UNL     1      26.400  29.214  15.748  0.00  0.00    +0.020 A 
ATOM      2  C   UNL     1      25.206  28.767  15.067  0.00  0.00    +0.013 A 
ATOM      3  C   UNL     1      24.190  27.997  15.773  0.00  0.00    +0.019 A 
ATOM     38  C   UNL     1      24.413  27.694  17.179  0.00  0.00    +0.120 A 
ATOM     39  N   UNL     1      25.573  28.136  17.807  0.00  0.00    -0.263 NA
ATOM     40  C   UNL     1      26.559  28.876  17.138  0.00  0.00    +0.111 A 
ENDBRANCH   4   3
ENDBRANCH  10   9
BRANCH  12  13
ATOM     13  N   UNL     1      16.480  23.243  15.199  0.00  0.00    -0.281 N 
ATOM     14  C   UNL     1      16.138  22.813  16.470  0.00  0.00    +0.248 C 
ATOM     30  O   UNL     1      16.828  22.078  17.160  0.00  0.00    -0.270 OA
ATOM     31  H   UNL     1      15.736  23.688  14.660  0.00  0.00    +0.155 HD
BRANCH  14  15
ATOM     15  C   UNL     1      14.833  23.251  17.054  0.00  0.00    +0.037 A 
ATOM     16  C   UNL     1      14.766  23.891  18.370  0.00  0.00    +0.013 A 
ATOM     17  C   UNL     1      13.493  24.288  18.917  0.00  0.00    +0.005 A 
ATOM     18  C   UNL     1      12.275  24.047  18.146  0.00  0.00    -0.033 A 
ATOM     28  C   UNL     1      12.372  23.415  16.840  0.00  0.00    +0.005 A 
ATOM     29  C   UNL     1      13.618  23.024  16.301  0.00  0.00    +0.013 A 
BRANCH  18  19
ATOM     19  C   UNL     1      10.872  24.419  18.660  0.00  0.00    +0.119 C 
BRANCH  19  20
ATOM     20  N   UNL     1      10.787  25.479  19.708  0.00  0.00    -0.302 NA
ATOM     21  C   UNL     1       9.809  25.104  20.826  0.00  0.00    +0.066 C 
ATOM     22  C   UNL     1       9.749  26.214  21.925  0.00  0.00    -0.064 C 
ATOM     23  N   UNL     1       9.353  27.544  21.282  0.00  0.00    +0.379 N 
ATOM     24  C   UNL     1       9.239  28.577  22.322  0.00  0.00    -0.096 C 
ATOM     25  H   UNL     1       8.345  27.412  20.826  0.00  0.00    -0.082 HD
ATOM     26  C   UNL     1      10.318  27.923  20.168  0.00  0.00    -0.064 C 
ATOM     27  C   UNL     1      10.392  26.800  19.096  0.00  0.00    +0.066 C 
ENDBRANCH  19  20
ENDBRANCH  18  19
ENDBRANCH  14  15
ENDBRANCH  12  13
TORSDOF 6
ENDMDL
MODEL 5
REMARK VINA RESULT:      -9.1      8.078     15.012
REMARK  Name = C:\Users\Docking\Desktop\test protocol\1iep_ligandH.pdb
REMARK  8 active torsions:
REMARK  status: ('A' for Active; 'I' for Inactive)
REMARK    1  A    between atoms: _5  and  _11
REMARK    2  A    between atoms: _19  and  _21
REMARK    3  A    between atoms: _22  and  _66
REMARK    4  A    between atoms: _27  and  _30
REMARK    5  A    between atoms: _32  and  _33
REMARK    6  A    between atoms: _38  and  _43
REMARK    7  A    between atoms: _43  and  _46
REMARK    8  A    between atoms: _53  and  _55
REMARK                            x       y       z     vdW  Elec       q    Type
REMARK                         _______ _______ _______ _____ _____    ______ ____
ROOT
ATOM     10  C   UNL     1      10.738  27.081  20.504  0.00  0.00    +0.038 A 
ATOM     11  C   UNL     1      10.125  28.220  19.922  0.00  0.00    +0.047 A 
ATOM     12  C   UNL     1       9.198  29.045  20.681  0.00  0.00    +0.035 A 
ATOM     32  C   UNL     1       8.920  28.682  22.031  0.00  0.00    +0.024 A 
ATOM     33  C   UNL     1       9.533  27.527  22.637  0.00  0.00    +0.007 A 
ATOM     34  C   UNL     1      10.447  26.708  21.893  0.00  0.00    -0.029 A 
ATOM     35  C   UNL     1      11.070  25.477  22.592  0.00  0.00    +0.045 C 
ENDROOT
BRANCH  10   9
ATOM      4  C   UNL     1      11.718  23.406  17.576  0.00  0.00    +0.077 A 
ATOM      5  C   UNL     1      10.363  22.937  17.614  0.00  0.00    +0.048 A 
ATOM      6  C   UNL     1       9.446  23.666  18.405  0.00  0.00    +0.116 A 
ATOM      7  N   UNL     1       9.865  24.780  19.101  0.00  0.00    -0.223 NA
ATOM      8  C   UNL     1      11.180  25.203  19.044  0.00  0.00    +0.220 A 
ATOM      9  N   UNL     1      11.621  26.325  19.729  0.00  0.00    -0.283 N 
ATOM     36  H   UNL     1      12.601  26.601  19.667  0.00  0.00    +0.155 HD
ATOM     37  N   UNL     1      12.075  24.524  18.297  0.00  0.00    -0.214 NA
BRANCH   4   3
ATOM      1  C   UNL     1      14.562  22.734  14.976  0.00  0.00    +0.020 A 
ATOM      2  C   UNL     1      13.523  23.418  15.711  0.00  0.00    +0.013 A 
ATOM      3  C   UNL     1      12.803  22.744  16.784  0.00  0.00    +0.019 A 
ATOM     38  C   UNL     1      13.162  21.369  17.093  0.00  0.00    +0.120 A 
ATOM     39  N   UNL     1      14.167  20.735  16.368  0.00  0.00    -0.263 NA
ATOM     40  C   UNL     1      14.865  21.373  15.331  0.00  0.00    +0.111 A 
ENDBRANCH   4   3
ENDBRANCH  10   9
BRANCH  12  13
ATOM     13  N   UNL     1       8.539  30.209  20.141  0.00  0.00    -0.281 N 
ATOM     14  C   UNL     1       7.782  31.150  20.820  0.00  0.00    +0.248 C 
ATOM     30  O   UNL     1       7.376  31.016  21.965  0.00  0.00    -0.270 OA
ATOM     31  H   UNL     1       8.643  30.357  19.138  0.00  0.00    +0.155 HD
BRANCH  14  15
ATOM     15  C   UNL     1       7.408  32.417  20.120  0.00  0.00    +0.037 A 
ATOM     16  C   UNL     1       8.429  33.371  19.680  0.00  0.00    +0.013 A 
ATOM     17  C   UNL     1       8.041  34.593  19.022  0.00  0.00    +0.005 A 
ATOM     18  C   UNL     1       6.623  34.868  18.799  0.00  0.00    -0.033 A 
ATOM     28  C   UNL     1       5.632  33.901  19.242  0.00  0.00    +0.005 A 
ATOM     29  C   UNL     1       6.008  32.702  19.887  0.00  0.00    +0.013 A 
BRANCH  18  19
ATOM     19  C   UNL     1       6.116  36.156  18.125  0.00  0.00    +0.119 C 
BRANCH  19  20
ATOM     20  N   UNL     1       5.956  37.363  18.990  0.00  0.00    -0.302 NA
ATOM     21  C   UNL     1       4.902  37.152  20.080  0.00  0.00    +0.066 C 
ATOM     22  C   UNL     1       4.763  38.416  20.990  0.00  0.00    -0.064 C 
ATOM     23  N   UNL     1       4.412  39.628  20.124  0.00  0.00    +0.379 N 
ATOM     24  C   UNL     1       4.224  40.806  20.983  0.00  0.00    -0.096 C 
ATOM     25  H   UNL     1       3.439  39.415  19.624  0.00  0.00    -0.082 HD
ATOM     26  C   UNL     1       5.453  39.843  19.035  0.00  0.00    -0.064 C 
ATOM     27  C   UNL     1       5.605  38.571  18.156  0.00  0.00    +0.066 C 
ENDBRANCH  19  20
ENDBRANCH  18  19
ENDBRANCH  14  15
ENDBRANCH  12  13
TORSDOF 6
ENDMDL
