MODEL 1
REMARK VINA RESULT:      -9.5      0.000      0.000
REMARK  Name = C:\Users\Docking\Desktop\test protocol\1iep_ligandH.pdb
REMARK  8 active torsions:
REMARK  status: ('A' for Active; 'I' for Inactive)
REMARK    1  A    between atoms: _5  and  _11
REMARK    2  A    between atoms: _19  and  _21
REMARK    3  A    between atoms: _22  and  _66
REMARK    4  A    between atoms: _27  and  _30
REMARK    5  A    between atoms: _32  and  _33
REMARK    6  A    between atoms: _38  and  _43
REMARK    7  A    between atoms: _43  and  _46
REMARK    8  A    between atoms: _53  and  _55
REMARK                            x       y       z     vdW  Elec       q    Type
REMARK                         _______ _______ _______ _____ _____    ______ ____
ROOT
ATOM     10  C   UNL     1      15.341  22.232  14.601  0.00  0.00    +0.038 A 
ATOM     11  C   UNL     1      16.395  23.149  14.844  0.00  0.00    +0.047 A 
ATOM     12  C   UNL     1      17.761  22.848  14.444  0.00  0.00    +0.035 A 
ATOM     32  C   UNL     1      18.017  21.606  13.795  0.00  0.00    +0.024 A 
ATOM     33  C   UNL     1      16.958  20.662  13.540  0.00  0.00    +0.007 A 
ATOM     34  C   UNL     1      15.609  20.951  13.935  0.00  0.00    -0.029 A 
ATOM     35  C   UNL     1      14.514  19.899  13.642  0.00  0.00    +0.045 C 
ENDROOT
BRANCH  10   9
ATOM      4  C   UNL     1      12.172  23.588  17.941  0.00  0.00    +0.077 A 
ATOM      5  C   UNL     1      13.171  23.594  18.970  0.00  0.00    +0.048 A 
ATOM      6  C   UNL     1      14.486  23.236  18.600  0.00  0.00    +0.116 A 
ATOM      7  N   UNL     1      14.771  22.898  17.295  0.00  0.00    -0.223 NA
ATOM      8  C   UNL     1      13.784  22.900  16.327  0.00  0.00    +0.220 A 
ATOM      9  N   UNL     1      14.048  22.572  15.006  0.00  0.00    -0.283 N 
ATOM     36  H   UNL     1      13.291  22.578  14.323  0.00  0.00    +0.155 HD
ATOM     37  N   UNL     1      12.519  23.238  16.655  0.00  0.00    -0.214 NA
BRANCH   4   3
ATOM      1  C   UNL     1       8.274  23.405  18.205  0.00  0.00    +0.020 A 
ATOM      2  C   UNL     1       9.642  23.008  17.964  0.00  0.00    +0.013 A 
ATOM      3  C   UNL     1      10.737  23.947  18.174  0.00  0.00    +0.019 A 
ATOM     38  C   UNL     1      10.412  25.289  18.632  0.00  0.00    +0.120 A 
ATOM     39  N   UNL     1       9.085  25.643  18.854  0.00  0.00    -0.263 NA
ATOM     40  C   UNL     1       8.022  24.749  18.654  0.00  0.00    +0.111 A 
ENDBRANCH   4   3
ENDBRANCH  10   9
BRANCH  12  13
ATOM     13  N   UNL     1      18.874  23.737  14.672  0.00  0.00    -0.281 N 
ATOM     14  C   UNL     1      19.441  24.637  13.785  0.00  0.00    +0.248 C 
ATOM     30  O   UNL     1      19.211  24.662  12.585  0.00  0.00    -0.270 OA
ATOM     31  H   UNL     1      19.295  23.697  15.601  0.00  0.00    +0.155 HD
BRANCH  14  15
ATOM     15  C   UNL     1      20.414  25.646  14.303  0.00  0.00    +0.037 A 
ATOM     16  C   UNL     1      20.052  27.060  14.422  0.00  0.00    +0.013 A 
ATOM     17  C   UNL     1      21.016  28.015  14.909  0.00  0.00    +0.005 A 
ATOM     18  C   UNL     1      22.352  27.558  15.282  0.00  0.00    -0.033 A 
ATOM     28  C   UNL     1      22.683  26.148  15.160  0.00  0.00    +0.005 A 
ATOM     29  C   UNL     1      21.741  25.209  14.682  0.00  0.00    +0.013 A 
BRANCH  18  19
ATOM     19  C   UNL     1      23.450  28.510  15.792  0.00  0.00    +0.119 C 
BRANCH  19  20
ATOM     20  N   UNL     1      24.827  27.950  15.937  0.00  0.00    -0.302 NA
ATOM     21  C   UNL     1      25.263  27.871  17.403  0.00  0.00    +0.066 C 
ATOM     22  C   UNL     1      26.696  27.262  17.539  0.00  0.00    -0.064 C 
ATOM     23  N   UNL     1      27.683  28.101  16.725  0.00  0.00    +0.379 N 
ATOM     24  C   UNL     1      29.041  27.565  16.897  0.00  0.00    -0.096 C 
ATOM     25  H   UNL     1      27.672  29.135  17.142  0.00  0.00    -0.082 HD
ATOM     26  C   UNL     1      27.256  28.187  15.266  0.00  0.00    -0.064 C 
ATOM     27  C   UNL     1      25.818  28.766  15.145  0.00  0.00    +0.066 C 
ENDBRANCH  19  20
ENDBRANCH  18  19
ENDBRANCH  14  15
ENDBRANCH  12  13
TORSDOF 6
ENDMDL
MODEL 2
REMARK VINA RESULT:      -9.5      4.503      8.364
REMARK  Name = C:\Users\Docking\Desktop\test protocol\1iep_ligandH.pdb
REMARK  8 active torsions:
REMARK  status: ('A' for Active; 'I' for Inactive)
REMARK    1  A    between atoms: _5  and  _11
REMARK    2  A    between atoms: _19  and  _21
REMARK    3  A    between atoms: _22  and  _66
REMARK    4  A    between atoms: _27  and  _30
REMARK    5  A    between atoms: _32  and  _33
REMARK    6  A    between atoms: _38  and  _43
REMARK    7  A    between atoms: _43  and  _46
REMARK    8  A    between atoms: _53  and  _55
REMARK                            x       y       z     vdW  Elec       q    Type
REMARK                         _______ _______ _______ _____ _____    ______ ____
ROOT
ATOM     10  C   UNL     1       9.373  25.604  19.122  0.00  0.00    +0.038 A 
ATOM     11  C   UNL     1      10.714  25.418  18.698  0.00  0.00    +0.047 A 
ATOM     12  C   UNL     1      11.327  24.100  18.700  0.00  0.00    +0.035 A 
ATOM     32  C   UNL     1      10.545  22.991  19.137  0.00  0.00    +0.024 A 
ATOM     33  C   UNL     1       9.181  23.162  19.572  0.00  0.00    +0.007 A 
ATOM     34  C   UNL     1       8.571  24.461  19.575  0.00  0.00    -0.029 A 
ATOM     35  C   UNL     1       7.108  24.586  20.058  0.00  0.00    +0.045 C 
ENDROOT
BRANCH  10   9
ATOM      4  C   UNL     1       8.285  29.774  21.235  0.00  0.00    +0.077 A 
ATOM      5  C   UNL     1       8.810  29.339  22.497  0.00  0.00    +0.048 A 
ATOM      6  C   UNL     1       9.345  28.033  22.562  0.00  0.00    +0.116 A 
ATOM      7  N   UNL     1       9.349  27.230  21.442  0.00  0.00    -0.223 NA
ATOM      8  C   UNL     1       8.833  27.680  20.241  0.00  0.00    +0.220 A 
ATOM      9  N   UNL     1       8.834  26.892  19.100  0.00  0.00    -0.283 N 
ATOM     36  H   UNL     1       8.437  27.258  18.235  0.00  0.00    +0.155 HD
ATOM     37  N   UNL     1       8.315  28.923  20.153  0.00  0.00    -0.214 NA
BRANCH   4   3
ATOM      1  C   UNL     1       6.065  32.978  21.558  0.00  0.00    +0.020 A 
ATOM      2  C   UNL     1       6.604  31.664  21.820  0.00  0.00    +0.013 A 
ATOM      3  C   UNL     1       7.689  31.128  21.007  0.00  0.00    +0.019 A 
ATOM     38  C   UNL     1       8.209  31.955  19.928  0.00  0.00    +0.120 A 
ATOM     39  N   UNL     1       7.668  33.216  19.698  0.00  0.00    -0.263 NA
ATOM     40  C   UNL     1       6.624  33.741  20.473  0.00  0.00    +0.111 A 
ENDBRANCH   4   3
ENDBRANCH  10   9
BRANCH  12  13
ATOM     13  N   UNL     1      12.687  23.851  18.289  0.00  0.00    -0.281 N 
ATOM     14  C   UNL     1      13.126  23.204  17.146  0.00  0.00    +0.248 C 
ATOM     30  O   UNL     1      12.409  22.549  16.404  0.00  0.00    -0.270 OA
ATOM     31  H   UNL     1      13.414  24.194  18.917  0.00  0.00    +0.155 HD
BRANCH  14  15
ATOM     15  C   UNL     1      14.573  23.284  16.781  0.00  0.00    +0.037 A 
ATOM     16  C   UNL     1      15.026  23.042  15.409  0.00  0.00    +0.013 A 
ATOM     17  C   UNL     1      16.430  23.109  15.088  0.00  0.00    +0.005 A 
ATOM     18  C   UNL     1      17.391  23.421  16.143  0.00  0.00    -0.033 A 
ATOM     28  C   UNL     1      16.914  23.662  17.494  0.00  0.00    +0.005 A 
ATOM     29  C   UNL     1      15.539  23.596  17.813  0.00  0.00    +0.013 A 
BRANCH  18  19
ATOM     19  C   UNL     1      18.910  23.492  15.895  0.00  0.00    +0.119 C 
BRANCH  19  20
ATOM     20  N   UNL     1      19.446  22.754  14.713  0.00  0.00    -0.302 NA
ATOM     21  C   UNL     1      19.482  21.241  14.949  0.00  0.00    +0.066 C 
ATOM     22  C   UNL     1      20.024  20.482  13.694  0.00  0.00    -0.064 C 
ATOM     23  N   UNL     1      21.417  21.010  13.345  0.00  0.00    +0.379 N 
ATOM     24  C   UNL     1      21.953  20.258  12.201  0.00  0.00    -0.096 C 
ATOM     25  H   UNL     1      22.081  20.815  14.219  0.00  0.00    -0.082 HD
ATOM     26  C   UNL     1      21.390  22.513  13.111  0.00  0.00    -0.064 C 
ATOM     27  C   UNL     1      20.822  23.256  14.353  0.00  0.00    +0.066 C 
ENDBRANCH  19  20
ENDBRANCH  18  19
ENDBRANCH  14  15
ENDBRANCH  12  13
TORSDOF 6
ENDMDL
MODEL 3
REMARK VINA RESULT:      -9.3      3.931      7.432
REMARK  Name = C:\Users\Docking\Desktop\test protocol\1iep_ligandH.pdb
REMARK  8 active torsions:
REMARK  status: ('A' for Active; 'I' for Inactive)
REMARK    1  A    between atoms: _5  and  _11
REMARK    2  A    between atoms: _19  and  _21
REMARK    3  A    between atoms: _22  and  _66
REMARK    4  A    between atoms: _27  and  _30
REMARK    5  A    between atoms: _32  and  _33
REMARK    6  A    between atoms: _38  and  _43
REMARK    7  A    between atoms: _43  and  _46
REMARK    8  A    between atoms: _53  and  _55
REMARK                            x       y       z     vdW  Elec       q    Type
REMARK                         _______ _______ _______ _____ _____    ______ ____
ROOT
ATOM     10  C   UNL     1       9.562  25.439  18.625  0.00  0.00    +0.038 A 
ATOM     11  C   UNL     1      10.941  25.298  18.323  0.00  0.00    +0.047 A 
ATOM     12  C   UNL     1      11.563  23.986  18.243  0.00  0.00    +0.035 A 
ATOM     32  C   UNL     1      10.751  22.838  18.474  0.00  0.00    +0.024 A 
ATOM     33  C   UNL     1       9.348  22.963  18.784  0.00  0.00    +0.007 A 
ATOM     34  C   UNL     1       8.729  24.255  18.866  0.00  0.00    -0.029 A 
ATOM     35  C   UNL     1       7.223  24.330  19.208  0.00  0.00    +0.045 C 
ENDROOT
BRANCH  10   9
ATOM      4  C   UNL     1       8.427  29.441  21.020  0.00  0.00    +0.077 A 
ATOM      5  C   UNL     1       8.940  28.919  22.254  0.00  0.00    +0.048 A 
ATOM      6  C   UNL     1       9.481  27.614  22.231  0.00  0.00    +0.116 A 
ATOM      7  N   UNL     1       9.503  26.894  21.056  0.00  0.00    -0.223 NA
ATOM      8  C   UNL     1       8.998  27.427  19.884  0.00  0.00    +0.220 A 
ATOM      9  N   UNL     1       9.017  26.724  18.689  0.00  0.00    -0.283 N 
ATOM     36  H   UNL     1       8.628  27.149  17.848  0.00  0.00    +0.155 HD
ATOM     37  N   UNL     1       8.475  28.670  19.880  0.00  0.00    -0.214 NA
BRANCH   4   3
ATOM      1  C   UNL     1       6.279  32.653  21.627  0.00  0.00    +0.020 A 
ATOM      2  C   UNL     1       6.826  31.328  21.805  0.00  0.00    +0.013 A 
ATOM      3  C   UNL     1       7.827  30.806  20.882  0.00  0.00    +0.019 A 
ATOM     38  C   UNL     1       8.256  31.657  19.783  0.00  0.00    +0.120 A 
ATOM     39  N   UNL     1       7.709  32.928  19.636  0.00  0.00    -0.263 NA
ATOM     40  C   UNL     1       6.745  33.441  20.516  0.00  0.00    +0.111 A 
ENDBRANCH   4   3
ENDBRANCH  10   9
BRANCH  12  13
ATOM     13  N   UNL     1      12.960  23.781  17.948  0.00  0.00    -0.281 N 
ATOM     14  C   UNL     1      13.514  23.174  16.833  0.00  0.00    +0.248 C 
ATOM     30  O   UNL     1      12.883  22.521  16.016  0.00  0.00    -0.270 OA
ATOM     31  H   UNL     1      13.619  24.125  18.646  0.00  0.00    +0.155 HD
BRANCH  14  15
ATOM     15  C   UNL     1      14.985  23.298  16.600  0.00  0.00    +0.037 A 
ATOM     16  C   UNL     1      15.581  22.963  15.304  0.00  0.00    +0.013 A 
ATOM     17  C   UNL     1      17.005  23.076  15.111  0.00  0.00    +0.005 A 
ATOM     18  C   UNL     1      17.844  23.528  16.219  0.00  0.00    -0.033 A 
ATOM     28  C   UNL     1      17.226  23.859  17.492  0.00  0.00    +0.005 A 
ATOM     29  C   UNL     1      15.831  23.749  17.685  0.00  0.00    +0.013 A 
BRANCH  18  19
ATOM     19  C   UNL     1      19.374  23.657  16.109  0.00  0.00    +0.119 C 
BRANCH  19  20
ATOM     20  N   UNL     1      19.932  25.028  15.911  0.00  0.00    -0.302 NA
ATOM     21  C   UNL     1      21.060  25.046  14.875  0.00  0.00    +0.066 C 
ATOM     22  C   UNL     1      21.617  26.491  14.664  0.00  0.00    -0.064 C 
ATOM     23  N   UNL     1      22.103  27.048  16.003  0.00  0.00    +0.379 N 
ATOM     24  C   UNL     1      22.680  28.385  15.797  0.00  0.00    -0.096 C 
ATOM     25  H   UNL     1      22.916  26.381  16.371  0.00  0.00    -0.082 HD
ATOM     26  C   UNL     1      20.988  27.032  17.039  0.00  0.00    -0.064 C 
ATOM     27  C   UNL     1      20.422  25.596  17.220  0.00  0.00    +0.066 C 
ENDBRANCH  19  20
ENDBRANCH  18  19
ENDBRANCH  14  15
ENDBRANCH  12  13
TORSDOF 6
ENDMDL
MODEL 4
REMARK VINA RESULT:      -9.3      2.022     12.604
REMARK  Name = C:\Users\Docking\Desktop\test protocol\1iep_ligandH.pdb
REMARK  8 active torsions:
REMARK  status: ('A' for Active; 'I' for Inactive)
REMARK    1  A    between atoms: _5  and  _11
REMARK    2  A    between atoms: _19  and  _21
REMARK    3  A    between atoms: _22  and  _66
REMARK    4  A    between atoms: _27  and  _30
REMARK    5  A    between atoms: _32  and  _33
REMARK    6  A    between atoms: _38  and  _43
REMARK    7  A    between atoms: _43  and  _46
REMARK    8  A    between atoms: _53  and  _55
REMARK                            x       y       z     vdW  Elec       q    Type
REMARK                         _______ _______ _______ _____ _____    ______ ____
ROOT
ATOM     10  C   UNL     1      19.902  23.397  14.356  0.00  0.00    +0.038 A 
ATOM     11  C   UNL     1      18.714  23.617  15.099  0.00  0.00    +0.047 A 
ATOM     12  C   UNL     1      17.439  23.074  14.658  0.00  0.00    +0.035 A 
ATOM     32  C   UNL     1      17.410  22.307  13.457  0.00  0.00    +0.024 A 
ATOM     33  C   UNL     1      18.608  22.074  12.689  0.00  0.00    +0.007 A 
ATOM     34  C   UNL     1      19.868  22.610  13.117  0.00  0.00    -0.029 A 
ATOM     35  C   UNL     1      21.119  22.333  12.250  0.00  0.00    +0.045 C 
ENDROOT
BRANCH  10   9
ATOM      4  C   UNL     1      22.831  27.112  15.165  0.00  0.00    +0.077 A 
ATOM      5  C   UNL     1      21.909  28.042  14.579  0.00  0.00    +0.048 A 
ATOM      6  C   UNL     1      20.696  27.523  14.075  0.00  0.00    +0.116 A 
ATOM      7  N   UNL     1      20.434  26.172  14.156  0.00  0.00    -0.223 NA
ATOM      8  C   UNL     1      21.345  25.302  14.726  0.00  0.00    +0.220 A 
ATOM      9  N   UNL     1      21.099  23.942  14.825  0.00  0.00    -0.283 N 
ATOM     36  H   UNL     1      21.800  23.332  15.245  0.00  0.00    +0.155 HD
ATOM     37  N   UNL     1      22.512  25.773  15.213  0.00  0.00    -0.214 NA
BRANCH   4   3
ATOM      1  C   UNL     1      26.477  26.985  16.575  0.00  0.00    +0.020 A 
ATOM      2  C   UNL     1      25.218  26.551  16.015  0.00  0.00    +0.013 A 
ATOM      3  C   UNL     1      24.153  27.508  15.745  0.00  0.00    +0.019 A 
ATOM     38  C   UNL     1      24.396  28.909  16.054  0.00  0.00    +0.120 A 
ATOM     39  N   UNL     1      25.618  29.298  16.594  0.00  0.00    -0.263 NA
ATOM     40  C   UNL     1      26.650  28.385  16.860  0.00  0.00    +0.111 A 
ENDBRANCH   4   3
ENDBRANCH  10   9
BRANCH  12  13
ATOM     13  N   UNL     1      16.199  23.272  15.367  0.00  0.00    -0.281 N 
ATOM     14  C   UNL     1      15.631  22.457  16.333  0.00  0.00    +0.248 C 
ATOM     30  O   UNL     1      16.000  21.319  16.581  0.00  0.00    -0.270 OA
ATOM     31  H   UNL     1      15.677  24.115  15.128  0.00  0.00    +0.155 HD
BRANCH  14  15
ATOM     15  C   UNL     1      14.476  22.976  17.127  0.00  0.00    +0.037 A 
ATOM     16  C   UNL     1      13.100  22.851  16.640  0.00  0.00    +0.013 A 
ATOM     17  C   UNL     1      12.006  23.375  17.418  0.00  0.00    +0.005 A 
ATOM     18  C   UNL     1      12.285  24.030  18.694  0.00  0.00    -0.033 A 
ATOM     28  C   UNL     1      13.659  24.137  19.156  0.00  0.00    +0.005 A 
ATOM     29  C   UNL     1      14.733  23.625  18.396  0.00  0.00    +0.013 A 
BRANCH  18  19
ATOM     19  C   UNL     1      11.181  24.638  19.580  0.00  0.00    +0.119 C 
BRANCH  19  20
ATOM     20  N   UNL     1       9.839  23.984  19.547  0.00  0.00    -0.302 NA
ATOM     21  C   UNL     1       8.868  24.713  18.615  0.00  0.00    +0.066 C 
ATOM     22  C   UNL     1       7.476  24.002  18.574  0.00  0.00    -0.064 C 
ATOM     23  N   UNL     1       6.907  23.919  19.992  0.00  0.00    +0.379 N 
ATOM     24  C   UNL     1       5.573  23.304  19.950  0.00  0.00    -0.096 C 
ATOM     25  H   UNL     1       6.788  24.961  20.369  0.00  0.00    -0.082 HD
ATOM     26  C   UNL     1       7.869  23.198  20.926  0.00  0.00    -0.064 C 
ATOM     27  C   UNL     1       9.258  23.895  20.936  0.00  0.00    +0.066 C 
ENDBRANCH  19  20
ENDBRANCH  18  19
ENDBRANCH  14  15
ENDBRANCH  12  13
TORSDOF 6
ENDMDL
MODEL 5
REMARK VINA RESULT:      -9.2      2.085     12.645
REMARK  Name = C:\Users\Docking\Desktop\test protocol\1iep_ligandH.pdb
REMARK  8 active torsions:
REMARK  status: ('A' for Active; 'I' for Inactive)
REMARK    1  A    between atoms: _5  and  _11
REMARK    2  A    between atoms: _19  and  _21
REMARK    3  A    between atoms: _22  and  _66
REMARK    4  A    between atoms: _27  and  _30
REMARK    5  A    between atoms: _32  and  _33
REMARK    6  A    between atoms: _38  and  _43
REMARK    7  A    between atoms: _43  and  _46
REMARK    8  A    between atoms: _53  and  _55
REMARK                            x       y       z     vdW  Elec       q    Type
REMARK                         _______ _______ _______ _____ _____    ______ ____
ROOT
ATOM     10  C   UNL     1      19.585  22.828  14.222  0.00  0.00    +0.038 A 
ATOM     11  C   UNL     1      18.375  22.685  14.949  0.00  0.00    +0.047 A 
ATOM     12  C   UNL     1      17.213  22.042  14.357  0.00  0.00    +0.035 A 
ATOM     32  C   UNL     1      17.318  21.553  13.022  0.00  0.00    +0.024 A 
ATOM     33  C   UNL     1      18.539  21.691  12.269  0.00  0.00    +0.007 A 
ATOM     34  C   UNL     1      19.688  22.326  12.847  0.00  0.00    -0.029 A 
ATOM     35  C   UNL     1      20.969  22.452  11.989  0.00  0.00    +0.045 C 
ENDROOT
BRANCH  10   9
ATOM      4  C   UNL     1      22.061  26.743  15.477  0.00  0.00    +0.077 A 
ATOM      5  C   UNL     1      21.128  27.615  14.824  0.00  0.00    +0.048 A 
ATOM      6  C   UNL     1      20.028  27.015  14.170  0.00  0.00    +0.116 A 
ATOM      7  N   UNL     1      19.882  25.645  14.176  0.00  0.00    -0.223 NA
ATOM      8  C   UNL     1      20.801  24.833  14.814  0.00  0.00    +0.220 A 
ATOM      9  N   UNL     1      20.670  23.453  14.840  0.00  0.00    -0.283 N 
ATOM     36  H   UNL     1      21.374  22.888  15.315  0.00  0.00    +0.155 HD
ATOM     37  N   UNL     1      21.861  25.381  15.444  0.00  0.00    -0.214 NA
BRANCH   4   3
ATOM      1  C   UNL     1      25.403  28.567  16.376  0.00  0.00    +0.020 A 
ATOM      2  C   UNL     1      24.250  28.130  15.622  0.00  0.00    +0.013 A 
ATOM      3  C   UNL     1      23.272  27.226  16.213  0.00  0.00    +0.019 A 
ATOM     38  C   UNL     1      23.490  26.779  17.581  0.00  0.00    +0.120 A 
ATOM     39  N   UNL     1      24.610  27.215  18.282  0.00  0.00    -0.263 NA
ATOM     40  C   UNL     1      25.559  28.084  17.723  0.00  0.00    +0.111 A 
ENDBRANCH   4   3
ENDBRANCH  10   9
BRANCH  12  13
ATOM     13  N   UNL     1      15.956  21.876  15.044  0.00  0.00    -0.281 N 
ATOM     14  C   UNL     1      15.112  22.863  15.527  0.00  0.00    +0.248 C 
ATOM     30  O   UNL     1      15.417  24.042  15.631  0.00  0.00    -0.270 OA
ATOM     31  H   UNL     1      15.651  20.914  15.192  0.00  0.00    +0.155 HD
BRANCH  14  15
ATOM     15  C   UNL     1      13.737  22.484  15.973  0.00  0.00    +0.037 A 
ATOM     16  C   UNL     1      13.303  22.688  17.357  0.00  0.00    +0.013 A 
ATOM     17  C   UNL     1      11.977  22.297  17.764  0.00  0.00    +0.005 A 
ATOM     18  C   UNL     1      11.074  21.699  16.784  0.00  0.00    -0.033 A 
ATOM     28  C   UNL     1      11.528  21.512  15.416  0.00  0.00    +0.005 A 
ATOM     29  C   UNL     1      12.828  21.893  15.013  0.00  0.00    +0.013 A 
BRANCH  18  19
ATOM     19  C   UNL     1       9.648  21.232  17.135  0.00  0.00    +0.119 C 
BRANCH  19  20
ATOM     20  N   UNL     1       8.905  22.020  18.164  0.00  0.00    -0.302 NA
ATOM     21  C   UNL     1       7.765  21.213  18.792  0.00  0.00    +0.066 C 
ATOM     22  C   UNL     1       7.013  22.045  19.881  0.00  0.00    -0.064 C 
ATOM     23  N   UNL     1       6.483  23.337  19.257  0.00  0.00    +0.379 N 
ATOM     24  C   UNL     1       5.725  24.093  20.265  0.00  0.00    -0.096 C 
ATOM     25  H   UNL     1       5.775  23.054  18.444  0.00  0.00    -0.082 HD
ATOM     26  C   UNL     1       7.610  24.144  18.628  0.00  0.00    -0.064 C 
ATOM     27  C   UNL     1       8.370  23.299  17.568  0.00  0.00    +0.066 C 
ENDBRANCH  19  20
ENDBRANCH  18  19
ENDBRANCH  14  15
ENDBRANCH  12  13
TORSDOF 6
ENDMDL
