MODEL 1
REMARK VINA RESULT:      -8.6      0.000      0.000
REMARK  Name = C:\Users\Docking\Desktop\test protocol\1iep_ligandH.pdb
REMARK  8 active torsions:
REMARK  status: ('A' for Active; 'I' for Inactive)
REMARK    1  A    between atoms: _5  and  _11
REMARK    2  A    between atoms: _19  and  _21
REMARK    3  A    between atoms: _22  and  _66
REMARK    4  A    between atoms: _27  and  _30
REMARK    5  A    between atoms: _32  and  _33
REMARK    6  A    between atoms: _38  and  _43
REMARK    7  A    between atoms: _43  and  _46
REMARK    8  A    between atoms: _53  and  _55
REMARK                            x       y       z     vdW  Elec       q    Type
REMARK                         _______ _______ _______ _____ _____    ______ ____
ROOT
ATOM     10  C   UNL     1       6.759  18.717  19.303  0.00  0.00    +0.038 A 
ATOM     11  C   UNL     1       5.462  18.789  19.874  0.00  0.00    +0.047 A 
ATOM     12  C   UNL     1       4.457  17.778  19.587  0.00  0.00    +0.035 A 
ATOM     32  C   UNL     1       4.806  16.705  18.716  0.00  0.00    +0.024 A 
ATOM     33  C   UNL     1       6.119  16.617  18.126  0.00  0.00    +0.007 A 
ATOM     34  C   UNL     1       7.114  17.612  18.404  0.00  0.00    -0.029 A 
ATOM     35  C   UNL     1       8.503  17.471  17.738  0.00  0.00    +0.045 C 
ENDROOT
BRANCH  10   9
ATOM      4  C   UNL     1       9.019  22.840  18.341  0.00  0.00    +0.077 A 
ATOM      5  C   UNL     1       8.313  23.007  17.103  0.00  0.00    +0.048 A 
ATOM      6  C   UNL     1       7.382  22.005  16.747  0.00  0.00    +0.116 A 
ATOM      7  N   UNL     1       7.180  20.922  17.575  0.00  0.00    -0.223 NA
ATOM      8  C   UNL     1       7.878  20.791  18.761  0.00  0.00    +0.220 A 
ATOM      9  N   UNL     1       7.685  19.715  19.613  0.00  0.00    -0.283 N 
ATOM     36  H   UNL     1       8.226  19.651  20.475  0.00  0.00    +0.155 HD
ATOM     37  N   UNL     1       8.774  21.733  19.123  0.00  0.00    -0.214 NA
BRANCH   4   3
ATOM      1  C   UNL     1      11.649  25.728  18.555  0.00  0.00    +0.020 A 
ATOM      2  C   UNL     1      10.677  24.809  18.008  0.00  0.00    +0.013 A 
ATOM      3  C   UNL     1      10.032  23.815  18.856  0.00  0.00    +0.019 A 
ATOM     38  C   UNL     1      10.395  23.776  20.264  0.00  0.00    +0.120 A 
ATOM     39  N   UNL     1      11.335  24.673  20.763  0.00  0.00    -0.263 NA
ATOM     40  C   UNL     1      11.963  25.633  19.956  0.00  0.00    +0.111 A 
ENDBRANCH   4   3
ENDBRANCH  10   9
BRANCH  12  13
ATOM     13  N   UNL     1       3.121  17.803  20.131  0.00  0.00    -0.281 N 
ATOM     14  C   UNL     1       2.576  16.964  21.088  0.00  0.00    +0.248 C 
ATOM     30  O   UNL     1       3.091  15.923  21.470  0.00  0.00    -0.270 OA
ATOM     31  H   UNL     1       2.503  18.527  19.765  0.00  0.00    +0.155 HD
BRANCH  14  15
ATOM     15  C   UNL     1       1.261  17.325  21.700  0.00  0.00    +0.037 A 
ATOM     16  C   UNL     1       0.092  17.622  20.869  0.00  0.00    +0.013 A 
ATOM     17  C   UNL     1      -1.160  17.984  21.484  0.00  0.00    +0.005 A 
ATOM     18  C   UNL     1      -1.249  18.050  22.941  0.00  0.00    -0.033 A 
ATOM     28  C   UNL     1      -0.075  17.745  23.742  0.00  0.00    +0.005 A 
ATOM     29  C   UNL     1       1.154  17.390  23.142  0.00  0.00    +0.013 A 
BRANCH  18  19
ATOM     19  C   UNL     1      -2.539  18.448  23.683  0.00  0.00    +0.119 C 
BRANCH  19  20
ATOM     20  N   UNL     1      -2.632  19.851  24.187  0.00  0.00    -0.302 NA
ATOM     21  C   UNL     1      -3.308  19.924  25.560  0.00  0.00    +0.066 C 
ATOM     22  C   UNL     1      -3.377  21.396  26.082  0.00  0.00    -0.064 C 
ATOM     23  N   UNL     1      -4.123  22.261  25.065  0.00  0.00    +0.379 N 
ATOM     24  C   UNL     1      -4.240  23.633  25.580  0.00  0.00    -0.096 C 
ATOM     25  H   UNL     1      -5.153  21.849  24.962  0.00  0.00    -0.082 HD
ATOM     26  C   UNL     1      -3.459  22.192  23.697  0.00  0.00    -0.064 C 
ATOM     27  C   UNL     1      -3.369  20.722  23.200  0.00  0.00    +0.066 C 
ENDBRANCH  19  20
ENDBRANCH  18  19
ENDBRANCH  14  15
ENDBRANCH  12  13
TORSDOF 6
ENDMDL
MODEL 2
REMARK VINA RESULT:      -8.4      1.792      2.819
REMARK  Name = C:\Users\Docking\Desktop\test protocol\1iep_ligandH.pdb
REMARK  8 active torsions:
REMARK  status: ('A' for Active; 'I' for Inactive)
REMARK    1  A    between atoms: _5  and  _11
REMARK    2  A    between atoms: _19  and  _21
REMARK    3  A    between atoms: _22  and  _66
REMARK    4  A    between atoms: _27  and  _30
REMARK    5  A    between atoms: _32  and  _33
REMARK    6  A    between atoms: _38  and  _43
REMARK    7  A    between atoms: _43  and  _46
REMARK    8  A    between atoms: _53  and  _55
REMARK                            x       y       z     vdW  Elec       q    Type
REMARK                         _______ _______ _______ _____ _____    ______ ____
ROOT
ATOM     10  C   UNL     1       6.831  18.652  19.302  0.00  0.00    +0.038 A 
ATOM     11  C   UNL     1       5.555  18.764  19.910  0.00  0.00    +0.047 A 
ATOM     12  C   UNL     1       4.502  17.800  19.632  0.00  0.00    +0.035 A 
ATOM     32  C   UNL     1       4.784  16.731  18.732  0.00  0.00    +0.024 A 
ATOM     33  C   UNL     1       6.076  16.603  18.104  0.00  0.00    +0.007 A 
ATOM     34  C   UNL     1       7.118  17.553  18.372  0.00  0.00    -0.029 A 
ATOM     35  C   UNL     1       8.481  17.369  17.666  0.00  0.00    +0.045 C 
ENDROOT
BRANCH  10   9
ATOM      4  C   UNL     1       9.147  22.763  18.421  0.00  0.00    +0.077 A 
ATOM      5  C   UNL     1       8.368  23.018  17.244  0.00  0.00    +0.048 A 
ATOM      6  C   UNL     1       7.387  22.063  16.895  0.00  0.00    +0.116 A 
ATOM      7  N   UNL     1       7.206  20.941  17.674  0.00  0.00    -0.223 NA
ATOM      8  C   UNL     1       7.975  20.724  18.802  0.00  0.00    +0.220 A 
ATOM      9  N   UNL     1       7.805  19.606  19.604  0.00  0.00    -0.283 N 
ATOM     36  H   UNL     1       8.398  19.479  20.424  0.00  0.00    +0.155 HD
ATOM     37  N   UNL     1       8.920  21.620  19.156  0.00  0.00    -0.214 NA
BRANCH   4   3
ATOM      1  C   UNL     1      11.863  24.454  20.673  0.00  0.00    +0.020 A 
ATOM      2  C   UNL     1      10.830  23.542  20.238  0.00  0.00    +0.013 A 
ATOM      3  C   UNL     1      10.220  23.680  18.922  0.00  0.00    +0.019 A 
ATOM     38  C   UNL     1      10.682  24.759  18.062  0.00  0.00    +0.120 A 
ATOM     39  N   UNL     1      11.678  25.623  18.508  0.00  0.00    -0.263 NA
ATOM     40  C   UNL     1      12.271  25.501  19.773  0.00  0.00    +0.111 A 
ENDBRANCH   4   3
ENDBRANCH  10   9
BRANCH  12  13
ATOM     13  N   UNL     1       3.184  17.867  20.213  0.00  0.00    -0.281 N 
ATOM     14  C   UNL     1       2.589  16.967  21.082  0.00  0.00    +0.248 C 
ATOM     30  O   UNL     1       3.024  15.851  21.325  0.00  0.00    -0.270 OA
ATOM     31  H   UNL     1       2.621  18.677  19.953  0.00  0.00    +0.155 HD
BRANCH  14  15
ATOM     15  C   UNL     1       1.321  17.357  21.770  0.00  0.00    +0.037 A 
ATOM     16  C   UNL     1       0.113  17.682  21.007  0.00  0.00    +0.013 A 
ATOM     17  C   UNL     1      -1.093  18.072  21.695  0.00  0.00    +0.005 A 
ATOM     18  C   UNL     1      -1.096  18.137  23.154  0.00  0.00    -0.033 A 
ATOM     28  C   UNL     1       0.115  17.803  23.886  0.00  0.00    +0.005 A 
ATOM     29  C   UNL     1       1.299  17.422  23.215  0.00  0.00    +0.013 A 
BRANCH  18  19
ATOM     19  C   UNL     1      -2.331  18.563  23.970  0.00  0.00    +0.119 C 
BRANCH  19  20
ATOM     20  N   UNL     1      -3.164  17.477  24.567  0.00  0.00    -0.302 NA
ATOM     21  C   UNL     1      -2.856  17.268  26.053  0.00  0.00    +0.066 C 
ATOM     22  C   UNL     1      -3.753  16.144  26.667  0.00  0.00    -0.064 C 
ATOM     23  N   UNL     1      -3.547  14.847  25.883  0.00  0.00    +0.379 N 
ATOM     24  C   UNL     1      -4.345  13.773  26.494  0.00  0.00    -0.096 C 
ATOM     25  H   UNL     1      -2.473  14.564  25.974  0.00  0.00    -0.082 HD
ATOM     26  C   UNL     1      -3.849  15.046  24.405  0.00  0.00    -0.064 C 
ATOM     27  C   UNL     1      -2.974  16.186  23.811  0.00  0.00    +0.066 C 
ENDBRANCH  19  20
ENDBRANCH  18  19
ENDBRANCH  14  15
ENDBRANCH  12  13
TORSDOF 6
ENDMDL
MODEL 3
REMARK VINA RESULT:      -7.9      3.849     12.194
REMARK  Name = C:\Users\Docking\Desktop\test protocol\1iep_ligandH.pdb
REMARK  8 active torsions:
REMARK  status: ('A' for Active; 'I' for Inactive)
REMARK    1  A    between atoms: _5  and  _11
REMARK    2  A    between atoms: _19  and  _21
REMARK    3  A    between atoms: _22  and  _66
REMARK    4  A    between atoms: _27  and  _30
REMARK    5  A    between atoms: _32  and  _33
REMARK    6  A    between atoms: _38  and  _43
REMARK    7  A    between atoms: _43  and  _46
REMARK    8  A    between atoms: _53  and  _55
REMARK                            x       y       z     vdW  Elec       q    Type
REMARK                         _______ _______ _______ _____ _____    ______ ____
ROOT
ATOM     10  C   UNL     1       0.039  16.972  23.400  0.00  0.00    +0.038 A 
ATOM     11  C   UNL     1       1.200  17.180  22.613  0.00  0.00    +0.047 A 
ATOM     12  C   UNL     1       1.703  16.145  21.725  0.00  0.00    +0.035 A 
ATOM     32  C   UNL     1       0.996  14.908  21.660  0.00  0.00    +0.024 A 
ATOM     33  C   UNL     1      -0.185  14.679  22.454  0.00  0.00    +0.007 A 
ATOM     34  C   UNL     1      -0.684  15.696  23.334  0.00  0.00    -0.029 A 
ATOM     35  C   UNL     1      -1.952  15.392  24.167  0.00  0.00    +0.045 C 
ENDROOT
BRANCH  10   9
ATOM      4  C   UNL     1      -2.618  20.872  24.277  0.00  0.00    +0.077 A 
ATOM      5  C   UNL     1      -3.157  20.876  22.947  0.00  0.00    +0.048 A 
ATOM      6  C   UNL     1      -2.720  19.861  22.067  0.00  0.00    +0.116 A 
ATOM      7  N   UNL     1      -1.811  18.918  22.495  0.00  0.00    -0.223 NA
ATOM      8  C   UNL     1      -1.309  18.944  23.783  0.00  0.00    +0.220 A 
ATOM      9  N   UNL     1      -0.400  18.001  24.237  0.00  0.00    -0.283 N 
ATOM     36  H   UNL     1      -0.048  18.058  25.192  0.00  0.00    +0.155 HD
ATOM     37  N   UNL     1      -1.710  19.903  24.643  0.00  0.00    -0.214 NA
BRANCH   4   3
ATOM      1  C   UNL     1      -3.911  22.517  27.581  0.00  0.00    +0.020 A 
ATOM      2  C   UNL     1      -3.576  21.507  26.604  0.00  0.00    +0.013 A 
ATOM      3  C   UNL     1      -2.985  21.877  25.324  0.00  0.00    +0.019 A 
ATOM     38  C   UNL     1      -2.744  23.288  25.062  0.00  0.00    +0.120 A 
ATOM     39  N   UNL     1      -3.079  24.238  26.022  0.00  0.00    -0.263 NA
ATOM     40  C   UNL     1      -3.650  23.895  27.256  0.00  0.00    +0.111 A 
ENDBRANCH   4   3
ENDBRANCH  10   9
BRANCH  12  13
ATOM     13  N   UNL     1       2.881  16.297  20.908  0.00  0.00    -0.281 N 
ATOM     14  C   UNL     1       3.188  17.332  20.040  0.00  0.00    +0.248 C 
ATOM     30  O   UNL     1       2.394  18.184  19.672  0.00  0.00    -0.270 OA
ATOM     31  H   UNL     1       3.573  15.550  20.977  0.00  0.00    +0.155 HD
BRANCH  14  15
ATOM     15  C   UNL     1       4.575  17.426  19.490  0.00  0.00    +0.037 A 
ATOM     16  C   UNL     1       5.370  18.647  19.639  0.00  0.00    +0.013 A 
ATOM     17  C   UNL     1       6.699  18.717  19.084  0.00  0.00    +0.005 A 
ATOM     18  C   UNL     1       7.241  17.560  18.376  0.00  0.00    -0.033 A 
ATOM     28  C   UNL     1       6.432  16.359  18.247  0.00  0.00    +0.005 A 
ATOM     29  C   UNL     1       5.129  16.288  18.789  0.00  0.00    +0.013 A 
BRANCH  18  19
ATOM     19  C   UNL     1       8.641  17.553  17.733  0.00  0.00    +0.119 C 
BRANCH  19  20
ATOM     20  N   UNL     1       8.737  17.116  16.309  0.00  0.00    -0.302 NA
ATOM     21  C   UNL     1      10.155  16.670  15.939  0.00  0.00    +0.066 C 
ATOM     22  C   UNL     1      10.233  16.195  14.452  0.00  0.00    -0.064 C 
ATOM     23  N   UNL     1       9.764  17.324  13.533  0.00  0.00    +0.379 N 
ATOM     24  C   UNL     1       9.890  16.900  12.131  0.00  0.00    -0.096 C 
ATOM     25  H   UNL     1      10.447  18.191  13.688  0.00  0.00    -0.082 HD
ATOM     26  C   UNL     1       8.356  17.775  13.895  0.00  0.00    -0.064 C 
ATOM     27  C   UNL     1       8.283  18.218  15.383  0.00  0.00    +0.066 C 
ENDBRANCH  19  20
ENDBRANCH  18  19
ENDBRANCH  14  15
ENDBRANCH  12  13
TORSDOF 6
ENDMDL
MODEL 4
REMARK VINA RESULT:      -7.8      2.116      2.599
REMARK  Name = C:\Users\Docking\Desktop\test protocol\1iep_ligandH.pdb
REMARK  8 active torsions:
REMARK  status: ('A' for Active; 'I' for Inactive)
REMARK    1  A    between atoms: _5  and  _11
REMARK    2  A    between atoms: _19  and  _21
REMARK    3  A    between atoms: _22  and  _66
REMARK    4  A    between atoms: _27  and  _30
REMARK    5  A    between atoms: _32  and  _33
REMARK    6  A    between atoms: _38  and  _43
REMARK    7  A    between atoms: _43  and  _46
REMARK    8  A    between atoms: _53  and  _55
REMARK                            x       y       z     vdW  Elec       q    Type
REMARK                         _______ _______ _______ _____ _____    ______ ____
ROOT
ATOM     10  C   UNL     1       6.879  20.094  18.819  0.00  0.00    +0.038 A 
ATOM     11  C   UNL     1       5.571  20.400  19.275  0.00  0.00    +0.047 A 
ATOM     12  C   UNL     1       4.428  19.591  18.881  0.00  0.00    +0.035 A 
ATOM     32  C   UNL     1       4.654  18.476  18.023  0.00  0.00    +0.024 A 
ATOM     33  C   UNL     1       5.976  18.151  17.549  0.00  0.00    +0.007 A 
ATOM     34  C   UNL     1       7.107  18.947  17.932  0.00  0.00    -0.029 A 
ATOM     35  C   UNL     1       8.501  18.556  17.388  0.00  0.00    +0.045 C 
ENDROOT
BRANCH  10   9
ATOM      4  C   UNL     1       9.823  23.837  18.219  0.00  0.00    +0.077 A 
ATOM      5  C   UNL     1       9.213  24.192  16.970  0.00  0.00    +0.048 A 
ATOM      6  C   UNL     1       8.149  23.382  16.514  0.00  0.00    +0.116 A 
ATOM      7  N   UNL     1       7.734  22.300  17.259  0.00  0.00    -0.223 NA
ATOM      8  C   UNL     1       8.346  21.983  18.459  0.00  0.00    +0.220 A 
ATOM      9  N   UNL     1       7.940  20.904  19.228  0.00  0.00    -0.283 N 
ATOM     36  H   UNL     1       8.422  20.700  20.104  0.00  0.00    +0.155 HD
ATOM     37  N   UNL     1       9.365  22.741  18.915  0.00  0.00    -0.214 NA
BRANCH   4   3
ATOM      1  C   UNL     1      13.140  25.853  18.702  0.00  0.00    +0.020 A 
ATOM      2  C   UNL     1      12.071  25.124  18.058  0.00  0.00    +0.013 A 
ATOM      3  C   UNL     1      10.956  24.597  18.835  0.00  0.00    +0.019 A 
ATOM     38  C   UNL     1      10.952  24.827  20.272  0.00  0.00    +0.120 A 
ATOM     39  N   UNL     1      11.996  25.531  20.864  0.00  0.00    -0.263 NA
ATOM     40  C   UNL     1      13.075  26.041  20.128  0.00  0.00    +0.111 A 
ENDBRANCH   4   3
ENDBRANCH  10   9
BRANCH  12  13
ATOM     13  N   UNL     1       3.076  19.858  19.306  0.00  0.00    -0.281 N 
ATOM     14  C   UNL     1       1.995  20.227  18.524  0.00  0.00    +0.248 C 
ATOM     30  O   UNL     1       2.076  20.593  17.360  0.00  0.00    -0.270 OA
ATOM     31  H   UNL     1       2.895  19.764  20.306  0.00  0.00    +0.155 HD
BRANCH  14  15
ATOM     15  C   UNL     1       0.626  20.199  19.124  0.00  0.00    +0.037 A 
ATOM     16  C   UNL     1      -0.164  18.965  19.159  0.00  0.00    +0.013 A 
ATOM     17  C   UNL     1      -1.488  18.970  19.728  0.00  0.00    +0.005 A 
ATOM     18  C   UNL     1      -2.030  20.214  20.270  0.00  0.00    -0.033 A 
ATOM     28  C   UNL     1      -1.223  21.422  20.227  0.00  0.00    +0.005 A 
ATOM     29  C   UNL     1       0.075  21.422  19.669  0.00  0.00    +0.013 A 
BRANCH  18  19
ATOM     19  C   UNL     1      -3.442  20.316  20.877  0.00  0.00    +0.119 C 
BRANCH  19  20
ATOM     20  N   UNL     1      -3.537  20.575  22.345  0.00  0.00    -0.302 NA
ATOM     21  C   UNL     1      -3.398  22.064  22.676  0.00  0.00    +0.066 C 
ATOM     22  C   UNL     1      -3.523  22.320  24.213  0.00  0.00    -0.064 C 
ATOM     23  N   UNL     1      -2.463  21.500  24.951  0.00  0.00    +0.379 N 
ATOM     24  C   UNL     1      -2.540  21.783  26.392  0.00  0.00    -0.096 C 
ATOM     25  H   UNL     1      -1.464  21.839  24.593  0.00  0.00    -0.082 HD
ATOM     26  C   UNL     1      -2.592  20.019  24.626  0.00  0.00    -0.064 C 
ATOM     27  C   UNL     1      -2.497  19.779  23.093  0.00  0.00    +0.066 C 
ENDBRANCH  19  20
ENDBRANCH  18  19
ENDBRANCH  14  15
ENDBRANCH  12  13
TORSDOF 6
ENDMDL
MODEL 5
REMARK VINA RESULT:      -7.6      2.732     12.481
REMARK  Name = C:\Users\Docking\Desktop\test protocol\1iep_ligandH.pdb
REMARK  8 active torsions:
REMARK  status: ('A' for Active; 'I' for Inactive)
REMARK    1  A    between atoms: _5  and  _11
REMARK    2  A    between atoms: _19  and  _21
REMARK    3  A    between atoms: _22  and  _66
REMARK    4  A    between atoms: _27  and  _30
REMARK    5  A    between atoms: _32  and  _33
REMARK    6  A    between atoms: _38  and  _43
REMARK    7  A    between atoms: _43  and  _46
REMARK    8  A    between atoms: _53  and  _55
REMARK                            x       y       z     vdW  Elec       q    Type
REMARK                         _______ _______ _______ _____ _____    ______ ____
ROOT
ATOM     10  C   UNL     1      -2.201  18.906  24.817  0.00  0.00    +0.038 A 
ATOM     11  C   UNL     1      -1.463  19.282  23.666  0.00  0.00    +0.047 A 
ATOM     12  C   UNL     1      -0.326  18.496  23.211  0.00  0.00    +0.035 A 
ATOM     32  C   UNL     1       0.030  17.332  23.952  0.00  0.00    +0.024 A 
ATOM     33  C   UNL     1      -0.709  16.936  25.126  0.00  0.00    +0.007 A 
ATOM     34  C   UNL     1      -1.830  17.709  25.580  0.00  0.00    -0.029 A 
ATOM     35  C   UNL     1      -2.581  17.241  26.848  0.00  0.00    +0.045 C 
ENDROOT
BRANCH  10   9
ATOM      4  C   UNL     1      -4.058  22.782  26.955  0.00  0.00    +0.077 A 
ATOM      5  C   UNL     1      -2.763  23.258  27.349  0.00  0.00    +0.048 A 
ATOM      6  C   UNL     1      -1.645  22.472  26.988  0.00  0.00    +0.116 A 
ATOM      7  N   UNL     1      -1.821  21.300  26.285  0.00  0.00    -0.223 NA
ATOM      8  C   UNL     1      -3.084  20.869  25.922  0.00  0.00    +0.220 A 
ATOM      9  N   UNL     1      -3.284  19.697  25.208  0.00  0.00    -0.283 N 
ATOM     36  H   UNL     1      -4.232  19.410  24.966  0.00  0.00    +0.155 HD
ATOM     37  N   UNL     1      -4.167  21.600  26.256  0.00  0.00    -0.214 NA
BRANCH   4   3
ATOM      1  C   UNL     1      -6.972  24.573  28.852  0.00  0.00    +0.020 A 
ATOM      2  C   UNL     1      -5.729  23.878  28.612  0.00  0.00    +0.013 A 
ATOM      3  C   UNL     1      -5.334  23.502  27.260  0.00  0.00    +0.019 A 
ATOM     38  C   UNL     1      -6.227  23.848  26.164  0.00  0.00    +0.120 A 
ATOM     39  N   UNL     1      -7.419  24.517  26.426  0.00  0.00    -0.263 NA
ATOM     40  C   UNL     1      -7.810  24.882  27.723  0.00  0.00    +0.111 A 
ENDBRANCH   4   3
ENDBRANCH  10   9
BRANCH  12  13
ATOM     13  N   UNL     1       0.465  18.833  22.054  0.00  0.00    -0.281 N 
ATOM     14  C   UNL     1       0.086  18.795  20.722  0.00  0.00    +0.248 C 
ATOM     30  O   UNL     1      -0.931  18.258  20.308  0.00  0.00    -0.270 OA
ATOM     31  H   UNL     1       1.422  19.136  22.239  0.00  0.00    +0.155 HD
BRANCH  14  15
ATOM     15  C   UNL     1       0.972  19.433  19.701  0.00  0.00    +0.037 A 
ATOM     16  C   UNL     1       2.055  18.683  19.060  0.00  0.00    +0.013 A 
ATOM     17  C   UNL     1       2.906  19.328  18.091  0.00  0.00    +0.005 A 
ATOM     18  C   UNL     1       2.674  20.731  17.755  0.00  0.00    -0.033 A 
ATOM     28  C   UNL     1       1.588  21.449  18.402  0.00  0.00    +0.005 A 
ATOM     29  C   UNL     1       0.753  20.821  19.353  0.00  0.00    +0.013 A 
BRANCH  18  19
ATOM     19  C   UNL     1       3.545  21.504  16.747  0.00  0.00    +0.119 C 
BRANCH  19  20
ATOM     20  N   UNL     1       5.011  21.572  17.022  0.00  0.00    -0.302 NA
ATOM     21  C   UNL     1       5.307  21.845  18.499  0.00  0.00    +0.066 C 
ATOM     22  C   UNL     1       6.846  21.890  18.772  0.00  0.00    -0.064 C 
ATOM     23  N   UNL     1       7.488  22.958  17.884  0.00  0.00    +0.379 N 
ATOM     24  C   UNL     1       8.925  23.043  18.181  0.00  0.00    -0.096 C 
ATOM     25  H   UNL     1       7.029  23.939  18.150  0.00  0.00    -0.082 HD
ATOM     26  C   UNL     1       7.196  22.695  16.414  0.00  0.00    -0.064 C 
ATOM     27  C   UNL     1       5.664  22.623  16.159  0.00  0.00    +0.066 C 
ENDBRANCH  19  20
ENDBRANCH  18  19
ENDBRANCH  14  15
ENDBRANCH  12  13
TORSDOF 6
ENDMDL
