MODEL 1
REMARK VINA RESULT:      -6.4      0.000      0.000
REMARK  Name = C:\Users\Docking\Desktop\test protocol\1iep_ligandH.pdb
REMARK  8 active torsions:
REMARK  status: ('A' for Active; 'I' for Inactive)
REMARK    1  A    between atoms: _5  and  _11
REMARK    2  A    between atoms: _19  and  _21
REMARK    3  A    between atoms: _22  and  _66
REMARK    4  A    between atoms: _27  and  _30
REMARK    5  A    between atoms: _32  and  _33
REMARK    6  A    between atoms: _38  and  _43
REMARK    7  A    between atoms: _43  and  _46
REMARK    8  A    between atoms: _53  and  _55
REMARK                            x       y       z     vdW  Elec       q    Type
REMARK                         _______ _______ _______ _____ _____    ______ ____
ROOT
ATOM     10  C   UNL     1      25.444  38.359 -47.157  0.00  0.00    +0.038 A 
ATOM     11  C   UNL     1      26.832  38.329 -46.868  0.00  0.00    +0.047 A 
ATOM     12  C   UNL     1      27.623  39.549 -46.848  0.00  0.00    +0.035 A 
ATOM     32  C   UNL     1      26.967  40.784 -47.125  0.00  0.00    +0.024 A 
ATOM     33  C   UNL     1      25.557  40.833 -47.422  0.00  0.00    +0.007 A 
ATOM     34  C   UNL     1      24.772  39.632 -47.445  0.00  0.00    -0.029 A 
ATOM     35  C   UNL     1      23.266  39.743 -47.776  0.00  0.00    +0.045 C 
ENDROOT
BRANCH  10   9
ATOM      4  C   UNL     1      22.929  34.919 -44.948  0.00  0.00    +0.077 A 
ATOM      5  C   UNL     1      23.067  35.557 -43.670  0.00  0.00    +0.048 A 
ATOM      6  C   UNL     1      23.798  36.765 -43.623  0.00  0.00    +0.116 A 
ATOM      7  N   UNL     1      24.346  37.287 -44.775  0.00  0.00    -0.223 NA
ATOM      8  C   UNL     1      24.197  36.645 -45.990  0.00  0.00    +0.220 A 
ATOM      9  N   UNL     1      24.733  37.157 -47.162  0.00  0.00    -0.283 N 
ATOM     36  H   UNL     1      24.606  36.649 -48.038  0.00  0.00    +0.155 HD
ATOM     37  N   UNL     1      23.504  35.490 -46.061  0.00  0.00    -0.214 NA
BRANCH   4   3
ATOM      1  C   UNL     1      21.702  31.217 -44.639  0.00  0.00    +0.020 A 
ATOM      2  C   UNL     1      22.453  32.427 -44.395  0.00  0.00    +0.013 A 
ATOM      3  C   UNL     1      22.182  33.639 -45.160  0.00  0.00    +0.019 A 
ATOM     38  C   UNL     1      21.137  33.591 -46.171  0.00  0.00    +0.120 A 
ATOM     39  N   UNL     1      20.432  32.411 -46.385  0.00  0.00    -0.263 NA
ATOM     40  C   UNL     1      20.685  31.239 -45.657  0.00  0.00    +0.111 A 
ENDBRANCH   4   3
ENDBRANCH  10   9
BRANCH  12  13
ATOM     13  N   UNL     1      29.038  39.579 -46.569  0.00  0.00    -0.281 N 
ATOM     14  C   UNL     1      29.673  39.335 -45.363  0.00  0.00    +0.248 C 
ATOM     30  O   UNL     1      29.104  39.262 -44.284  0.00  0.00    -0.270 OA
ATOM     31  H   UNL     1      29.644  39.809 -47.357  0.00  0.00    +0.155 HD
BRANCH  14  15
ATOM     15  C   UNL     1      31.157  39.162 -45.351  0.00  0.00    +0.037 A 
ATOM     16  C   UNL     1      31.853  38.648 -44.168  0.00  0.00    +0.013 A 
ATOM     17  C   UNL     1      33.287  38.506 -44.177  0.00  0.00    +0.005 A 
ATOM     18  C   UNL     1      34.036  38.877 -45.375  0.00  0.00    -0.033 A 
ATOM     28  C   UNL     1      33.320  39.379 -46.537  0.00  0.00    +0.005 A 
ATOM     29  C   UNL     1      31.915  39.521 -46.531  0.00  0.00    +0.013 A 
BRANCH  18  19
ATOM     19  C   UNL     1      35.570  38.779 -45.467  0.00  0.00    +0.119 C 
BRANCH  19  20
ATOM     20  N   UNL     1      36.360  39.957 -45.001  0.00  0.00    -0.302 NA
ATOM     21  C   UNL     1      36.590  40.975 -46.122  0.00  0.00    +0.066 C 
ATOM     22  C   UNL     1      37.398  42.212 -45.611  0.00  0.00    -0.064 C 
ATOM     23  N   UNL     1      38.731  41.741 -45.026  0.00  0.00    +0.379 N 
ATOM     24  C   UNL     1      39.518  42.906 -44.598  0.00  0.00    -0.096 C 
ATOM     25  H   UNL     1      39.296  41.231 -45.841  0.00  0.00    -0.082 HD
ATOM     26  C   UNL     1      38.512  40.727 -43.912  0.00  0.00    -0.064 C 
ATOM     27  C   UNL     1      37.682  39.515 -44.423  0.00  0.00    +0.066 C 
ENDBRANCH  19  20
ENDBRANCH  18  19
ENDBRANCH  14  15
ENDBRANCH  12  13
TORSDOF 6
ENDMDL
MODEL 2
REMARK VINA RESULT:      -6.1      9.728     12.976
REMARK  Name = C:\Users\Docking\Desktop\test protocol\1iep_ligandH.pdb
REMARK  8 active torsions:
REMARK  status: ('A' for Active; 'I' for Inactive)
REMARK    1  A    between atoms: _5  and  _11
REMARK    2  A    between atoms: _19  and  _21
REMARK    3  A    between atoms: _22  and  _66
REMARK    4  A    between atoms: _27  and  _30
REMARK    5  A    between atoms: _32  and  _33
REMARK    6  A    between atoms: _38  and  _43
REMARK    7  A    between atoms: _43  and  _46
REMARK    8  A    between atoms: _53  and  _55
REMARK                            x       y       z     vdW  Elec       q    Type
REMARK                         _______ _______ _______ _____ _____    ______ ____
ROOT
ATOM     10  C   UNL     1      20.173  33.183 -46.564  0.00  0.00    +0.038 A 
ATOM     11  C   UNL     1      20.121  34.356 -47.359  0.00  0.00    +0.047 A 
ATOM     12  C   UNL     1      21.256  35.264 -47.436  0.00  0.00    +0.035 A 
ATOM     32  C   UNL     1      22.428  34.944 -46.692  0.00  0.00    +0.024 A 
ATOM     33  C   UNL     1      22.497  33.757 -45.877  0.00  0.00    +0.007 A 
ATOM     34  C   UNL     1      21.380  32.859 -45.795  0.00  0.00    -0.029 A 
ATOM     35  C   UNL     1      21.508  31.604 -44.900  0.00  0.00    +0.045 C 
ENDROOT
BRANCH  10   9
ATOM      4  C   UNL     1      17.364  29.784 -48.460  0.00  0.00    +0.077 A 
ATOM      5  C   UNL     1      18.179  29.684 -49.636  0.00  0.00    +0.048 A 
ATOM      6  C   UNL     1      19.308  30.530 -49.718  0.00  0.00    +0.116 A 
ATOM      7  N   UNL     1      19.591  31.407 -48.693  0.00  0.00    -0.223 NA
ATOM      8  C   UNL     1      18.784  31.479 -47.573  0.00  0.00    +0.220 A 
ATOM      9  N   UNL     1      19.054  32.348 -46.527  0.00  0.00    -0.283 N 
ATOM     36  H   UNL     1      18.430  32.376 -45.721  0.00  0.00    +0.155 HD
ATOM     37  N   UNL     1      17.699  30.683 -47.472  0.00  0.00    -0.214 NA
BRANCH   4   3
ATOM      1  C   UNL     1      14.613  27.589 -46.754  0.00  0.00    +0.020 A 
ATOM      2  C   UNL     1      15.808  28.382 -46.927  0.00  0.00    +0.013 A 
ATOM      3  C   UNL     1      16.140  28.955 -48.225  0.00  0.00    +0.019 A 
ATOM     38  C   UNL     1      15.234  28.705 -49.337  0.00  0.00    +0.120 A 
ATOM     39  N   UNL     1      14.091  27.936 -49.140  0.00  0.00    -0.263 NA
ATOM     40  C   UNL     1      13.762  27.378 -47.896  0.00  0.00    +0.111 A 
ENDBRANCH   4   3
ENDBRANCH  10   9
BRANCH  12  13
ATOM     13  N   UNL     1      21.259  36.473 -48.221  0.00  0.00    -0.281 N 
ATOM     14  C   UNL     1      20.560  36.733 -49.389  0.00  0.00    +0.248 C 
ATOM     30  O   UNL     1      19.988  35.883 -50.055  0.00  0.00    -0.270 OA
ATOM     31  H   UNL     1      21.848  37.230 -47.874  0.00  0.00    +0.155 HD
BRANCH  14  15
ATOM     15  C   UNL     1      20.500  38.137 -49.897  0.00  0.00    +0.037 A 
ATOM     16  C   UNL     1      21.705  38.967 -49.981  0.00  0.00    +0.013 A 
ATOM     17  C   UNL     1      21.616  40.324 -50.459  0.00  0.00    +0.005 A 
ATOM     18  C   UNL     1      20.317  40.859 -50.859  0.00  0.00    -0.033 A 
ATOM     28  C   UNL     1      19.139  40.012 -50.771  0.00  0.00    +0.005 A 
ATOM     29  C   UNL     1      19.222  38.682 -50.302  0.00  0.00    +0.013 A 
BRANCH  18  19
ATOM     19  C   UNL     1      20.126  42.302 -51.362  0.00  0.00    +0.119 C 
BRANCH  19  20
ATOM     20  N   UNL     1      19.678  42.481 -52.775  0.00  0.00    -0.302 NA
ATOM     21  C   UNL     1      20.113  43.832 -53.349  0.00  0.00    +0.066 C 
ATOM     22  C   UNL     1      19.656  43.992 -54.836  0.00  0.00    -0.064 C 
ATOM     23  N   UNL     1      18.137  43.833 -54.919  0.00  0.00    +0.379 N 
ATOM     24  C   UNL     1      17.697  44.041 -56.306  0.00  0.00    -0.096 C 
ATOM     25  H   UNL     1      17.678  44.634 -54.295  0.00  0.00    -0.082 HD
ATOM     26  C   UNL     1      17.695  42.493 -54.347  0.00  0.00    -0.064 C 
ATOM     27  C   UNL     1      18.180  42.331 -52.880  0.00  0.00    +0.066 C 
ENDBRANCH  19  20
ENDBRANCH  18  19
ENDBRANCH  14  15
ENDBRANCH  12  13
TORSDOF 6
ENDMDL
MODEL 3
REMARK VINA RESULT:      -6.0     26.359     30.213
REMARK  Name = C:\Users\Docking\Desktop\test protocol\1iep_ligandH.pdb
REMARK  8 active torsions:
REMARK  status: ('A' for Active; 'I' for Inactive)
REMARK    1  A    between atoms: _5  and  _11
REMARK    2  A    between atoms: _19  and  _21
REMARK    3  A    between atoms: _22  and  _66
REMARK    4  A    between atoms: _27  and  _30
REMARK    5  A    between atoms: _32  and  _33
REMARK    6  A    between atoms: _38  and  _43
REMARK    7  A    between atoms: _43  and  _46
REMARK    8  A    between atoms: _53  and  _55
REMARK                            x       y       z     vdW  Elec       q    Type
REMARK                         _______ _______ _______ _____ _____    ______ ____
ROOT
ATOM     10  C   UNL     1      19.775  15.209 -65.538  0.00  0.00    +0.038 A 
ATOM     11  C   UNL     1      20.321  15.478 -64.256  0.00  0.00    +0.047 A 
ATOM     12  C   UNL     1      21.493  14.765 -63.773  0.00  0.00    +0.035 A 
ATOM     32  C   UNL     1      22.087  13.787 -64.623  0.00  0.00    +0.024 A 
ATOM     33  C   UNL     1      21.545  13.500 -65.928  0.00  0.00    +0.007 A 
ATOM     34  C   UNL     1      20.386  14.198 -66.408  0.00  0.00    -0.029 A 
ATOM     35  C   UNL     1      19.844  13.844 -67.813  0.00  0.00    +0.045 C 
ENDROOT
BRANCH  10   9
ATOM      4  C   UNL     1      15.030  15.681 -66.084  0.00  0.00    +0.077 A 
ATOM      5  C   UNL     1      14.777  14.385 -65.523  0.00  0.00    +0.048 A 
ATOM      6  C   UNL     1      15.895  13.626 -65.113  0.00  0.00    +0.116 A 
ATOM      7  N   UNL     1      17.168  14.135 -65.257  0.00  0.00    -0.223 NA
ATOM      8  C   UNL     1      17.377  15.388 -65.804  0.00  0.00    +0.220 A 
ATOM      9  N   UNL     1      18.648  15.922 -65.951  0.00  0.00    -0.283 N 
ATOM     36  H   UNL     1      18.761  16.847 -66.365  0.00  0.00    +0.155 HD
ATOM     37  N   UNL     1      16.326  16.132 -66.205  0.00  0.00    -0.214 NA
BRANCH   4   3
ATOM      1  C   UNL     1      12.870  18.063 -68.312  0.00  0.00    +0.020 A 
ATOM      2  C   UNL     1      13.935  17.178 -67.901  0.00  0.00    +0.013 A 
ATOM      3  C   UNL     1      13.952  16.604 -66.561  0.00  0.00    +0.019 A 
ATOM     38  C   UNL     1      12.867  16.949 -65.654  0.00  0.00    +0.120 A 
ATOM     39  N   UNL     1      11.856  17.806 -66.077  0.00  0.00    -0.263 NA
ATOM     40  C   UNL     1      11.830  18.365 -67.363  0.00  0.00    +0.111 A 
ENDBRANCH   4   3
ENDBRANCH  10   9
BRANCH  12  13
ATOM     13  N   UNL     1      22.087  14.990 -62.479  0.00  0.00    -0.281 N 
ATOM     14  C   UNL     1      21.684  14.478 -61.256  0.00  0.00    +0.248 C 
ATOM     30  O   UNL     1      20.617  13.916 -61.061  0.00  0.00    -0.270 OA
ATOM     31  H   UNL     1      22.904  15.601 -62.461  0.00  0.00    +0.155 HD
BRANCH  14  15
ATOM     15  C   UNL     1      22.591  14.624 -60.078  0.00  0.00    +0.037 A 
ATOM     16  C   UNL     1      22.459  15.752 -59.152  0.00  0.00    +0.013 A 
ATOM     17  C   UNL     1      23.358  15.878 -58.032  0.00  0.00    +0.005 A 
ATOM     18  C   UNL     1      24.398  14.871 -57.832  0.00  0.00    -0.033 A 
ATOM     28  C   UNL     1      24.504  13.760 -58.763  0.00  0.00    +0.005 A 
ATOM     29  C   UNL     1      23.625  13.634 -59.862  0.00  0.00    +0.013 A 
BRANCH  18  19
ATOM     19  C   UNL     1      25.414  14.938 -56.677  0.00  0.00    +0.119 C 
BRANCH  19  20
ATOM     20  N   UNL     1      26.730  14.263 -56.885  0.00  0.00    -0.302 NA
ATOM     21  C   UNL     1      26.847  12.968 -56.075  0.00  0.00    +0.066 C 
ATOM     22  C   UNL     1      28.221  12.264 -56.322  0.00  0.00    -0.064 C 
ATOM     23  N   UNL     1      29.355  13.228 -55.968  0.00  0.00    +0.379 N 
ATOM     24  C   UNL     1      30.647  12.549 -56.144  0.00  0.00    -0.096 C 
ATOM     25  H   UNL     1      29.253  13.488 -54.889  0.00  0.00    -0.082 HD
ATOM     26  C   UNL     1      29.245  14.519 -56.767  0.00  0.00    -0.064 C 
ATOM     27  C   UNL     1      27.865  15.195 -56.537  0.00  0.00    +0.066 C 
ENDBRANCH  19  20
ENDBRANCH  18  19
ENDBRANCH  14  15
ENDBRANCH  12  13
TORSDOF 6
ENDMDL
MODEL 4
REMARK VINA RESULT:      -6.0     35.046     37.802
REMARK  Name = C:\Users\Docking\Desktop\test protocol\1iep_ligandH.pdb
REMARK  8 active torsions:
REMARK  status: ('A' for Active; 'I' for Inactive)
REMARK    1  A    between atoms: _5  and  _11
REMARK    2  A    between atoms: _19  and  _21
REMARK    3  A    between atoms: _22  and  _66
REMARK    4  A    between atoms: _27  and  _30
REMARK    5  A    between atoms: _32  and  _33
REMARK    6  A    between atoms: _38  and  _43
REMARK    7  A    between atoms: _43  and  _46
REMARK    8  A    between atoms: _53  and  _55
REMARK                            x       y       z     vdW  Elec       q    Type
REMARK                         _______ _______ _______ _____ _____    ______ ____
ROOT
ATOM     10  C   UNL     1      15.830  20.601 -76.285  0.00  0.00    +0.038 A 
ATOM     11  C   UNL     1      15.661  22.007 -76.363  0.00  0.00    +0.047 A 
ATOM     12  C   UNL     1      15.663  22.695 -77.645  0.00  0.00    +0.035 A 
ATOM     32  C   UNL     1      15.837  21.920 -78.828  0.00  0.00    +0.024 A 
ATOM     33  C   UNL     1      16.011  20.490 -78.767  0.00  0.00    +0.007 A 
ATOM     34  C   UNL     1      16.012  19.805 -77.506  0.00  0.00    -0.029 A 
ATOM     35  C   UNL     1      16.210  18.272 -77.500  0.00  0.00    +0.045 C 
ENDROOT
BRANCH  10   9
ATOM      4  C   UNL     1      13.538  18.813 -72.466  0.00  0.00    +0.077 A 
ATOM      5  C   UNL     1      12.252  19.145 -73.009  0.00  0.00    +0.048 A 
ATOM      6  C   UNL     1      12.224  19.782 -74.270  0.00  0.00    +0.116 A 
ATOM      7  N   UNL     1      13.401  20.060 -74.930  0.00  0.00    -0.223 NA
ATOM      8  C   UNL     1      14.625  19.728 -74.378  0.00  0.00    +0.220 A 
ATOM      9  N   UNL     1      15.820  19.991 -75.029  0.00  0.00    -0.283 N 
ATOM     36  H   UNL     1      16.702  19.737 -74.585  0.00  0.00    +0.155 HD
ATOM     37  N   UNL     1      14.678  19.121 -73.175  0.00  0.00    -0.214 NA
BRANCH   4   3
ATOM      1  C   UNL     1      14.579  16.246 -69.705  0.00  0.00    +0.020 A 
ATOM      2  C   UNL     1      14.419  16.858 -71.004  0.00  0.00    +0.013 A 
ATOM      3  C   UNL     1      13.731  18.135 -71.145  0.00  0.00    +0.019 A 
ATOM     38  C   UNL     1      13.214  18.772 -69.944  0.00  0.00    +0.120 A 
ATOM     39  N   UNL     1      13.383  18.158 -68.706  0.00  0.00    -0.263 NA
ATOM     40  C   UNL     1      14.041  16.929 -68.558  0.00  0.00    +0.111 A 
ENDBRANCH   4   3
ENDBRANCH  10   9
BRANCH  12  13
ATOM     13  N   UNL     1      15.504  24.121 -77.785  0.00  0.00    -0.281 N 
ATOM     14  C   UNL     1      16.371  25.020 -78.385  0.00  0.00    +0.248 C 
ATOM     30  O   UNL     1      17.522  24.761 -78.705  0.00  0.00    -0.270 OA
ATOM     31  H   UNL     1      14.649  24.517 -77.395  0.00  0.00    +0.155 HD
BRANCH  14  15
ATOM     15  C   UNL     1      15.896  26.411 -78.655  0.00  0.00    +0.037 A 
ATOM     16  C   UNL     1      14.880  27.044 -77.811  0.00  0.00    +0.013 A 
ATOM     17  C   UNL     1      14.427  28.381 -78.104  0.00  0.00    +0.005 A 
ATOM     18  C   UNL     1      14.993  29.095 -79.247  0.00  0.00    -0.033 A 
ATOM     28  C   UNL     1      16.003  28.444 -80.064  0.00  0.00    +0.005 A 
ATOM     29  C   UNL     1      16.449  27.134 -79.781  0.00  0.00    +0.013 A 
BRANCH  18  19
ATOM     19  C   UNL     1      14.553  30.516 -79.646  0.00  0.00    +0.119 C 
BRANCH  19  20
ATOM     20  N   UNL     1      15.025  31.032 -80.966  0.00  0.00    -0.302 NA
ATOM     21  C   UNL     1      15.445  32.502 -80.891  0.00  0.00    +0.066 C 
ATOM     22  C   UNL     1      15.957  33.020 -82.274  0.00  0.00    -0.064 C 
ATOM     23  N   UNL     1      14.864  32.821 -83.326  0.00  0.00    +0.379 N 
ATOM     24  C   UNL     1      15.321  33.359 -84.616  0.00  0.00    -0.096 C 
ATOM     25  H   UNL     1      13.976  33.415 -83.007  0.00  0.00    -0.082 HD
ATOM     26  C   UNL     1      14.439  31.362 -83.405  0.00  0.00    -0.064 C 
ATOM     27  C   UNL     1      13.960  30.849 -82.018  0.00  0.00    +0.066 C 
ENDBRANCH  19  20
ENDBRANCH  18  19
ENDBRANCH  14  15
ENDBRANCH  12  13
TORSDOF 6
ENDMDL
MODEL 5
REMARK VINA RESULT:      -5.9     34.920     37.588
REMARK  Name = C:\Users\Docking\Desktop\test protocol\1iep_ligandH.pdb
REMARK  8 active torsions:
REMARK  status: ('A' for Active; 'I' for Inactive)
REMARK    1  A    between atoms: _5  and  _11
REMARK    2  A    between atoms: _19  and  _21
REMARK    3  A    between atoms: _22  and  _66
REMARK    4  A    between atoms: _27  and  _30
REMARK    5  A    between atoms: _32  and  _33
REMARK    6  A    between atoms: _38  and  _43
REMARK    7  A    between atoms: _43  and  _46
REMARK    8  A    between atoms: _53  and  _55
REMARK                            x       y       z     vdW  Elec       q    Type
REMARK                         _______ _______ _______ _____ _____    ______ ____
ROOT
ATOM     10  C   UNL     1      15.853  20.437 -76.204  0.00  0.00    +0.038 A 
ATOM     11  C   UNL     1      15.685  21.842 -76.296  0.00  0.00    +0.047 A 
ATOM     12  C   UNL     1      15.721  22.522 -77.581  0.00  0.00    +0.035 A 
ATOM     32  C   UNL     1      15.927  21.740 -78.754  0.00  0.00    +0.024 A 
ATOM     33  C   UNL     1      16.101  20.310 -78.679  0.00  0.00    +0.007 A 
ATOM     34  C   UNL     1      16.069  19.634 -77.414  0.00  0.00    -0.029 A 
ATOM     35  C   UNL     1      16.268  18.101 -77.393  0.00  0.00    +0.045 C 
ENDROOT
BRANCH  10   9
ATOM      4  C   UNL     1      13.496  19.013 -72.273  0.00  0.00    +0.077 A 
ATOM      5  C   UNL     1      12.251  19.535 -72.759  0.00  0.00    +0.048 A 
ATOM      6  C   UNL     1      12.261  20.169 -74.021  0.00  0.00    +0.116 A 
ATOM      7  N   UNL     1      13.435  20.267 -74.737  0.00  0.00    -0.223 NA
ATOM      8  C   UNL     1      14.619  19.755 -74.239  0.00  0.00    +0.220 A 
ATOM      9  N   UNL     1      15.809  19.835 -74.945  0.00  0.00    -0.283 N 
ATOM     36  H   UNL     1      16.663  19.451 -74.539  0.00  0.00    +0.155 HD
ATOM     37  N   UNL     1      14.635  19.146 -73.035  0.00  0.00    -0.214 NA
BRANCH   4   3
ATOM      1  C   UNL     1      14.416  16.384 -69.527  0.00  0.00    +0.020 A 
ATOM      2  C   UNL     1      14.297  17.017 -70.820  0.00  0.00    +0.013 A 
ATOM      3  C   UNL     1      13.645  18.313 -70.958  0.00  0.00    +0.019 A 
ATOM     38  C   UNL     1      13.121  18.947 -69.758  0.00  0.00    +0.120 A 
ATOM     39  N   UNL     1      13.249  18.313 -68.526  0.00  0.00    -0.263 NA
ATOM     40  C   UNL     1      13.873  17.065 -68.382  0.00  0.00    +0.111 A 
ENDBRANCH   4   3
ENDBRANCH  10   9
BRANCH  12  13
ATOM     13  N   UNL     1      15.564  23.947 -77.735  0.00  0.00    -0.281 N 
ATOM     14  C   UNL     1      16.385  24.825 -78.425  0.00  0.00    +0.248 C 
ATOM     30  O   UNL     1      17.500  24.547 -78.838  0.00  0.00    -0.270 OA
ATOM     31  H   UNL     1      14.750  24.360 -77.279  0.00  0.00    +0.155 HD
BRANCH  14  15
ATOM     15  C   UNL     1      15.902  26.216 -78.680  0.00  0.00    +0.037 A 
ATOM     16  C   UNL     1      16.416  27.005 -79.802  0.00  0.00    +0.013 A 
ATOM     17  C   UNL     1      15.945  28.351 -80.015  0.00  0.00    +0.005 A 
ATOM     18  C   UNL     1      14.953  28.916 -79.103  0.00  0.00    -0.033 A 
ATOM     28  C   UNL     1      14.456  28.109 -78.001  0.00  0.00    +0.005 A 
ATOM     29  C   UNL     1      14.916  26.790 -77.789  0.00  0.00    +0.013 A 
BRANCH  18  19
ATOM     19  C   UNL     1      14.410  30.351 -79.242  0.00  0.00    +0.119 C 
BRANCH  19  20
ATOM     20  N   UNL     1      13.000  30.593 -78.815  0.00  0.00    -0.302 NA
ATOM     21  C   UNL     1      12.006  30.365 -79.958  0.00  0.00    +0.066 C 
ATOM     22  C   UNL     1      10.534  30.601 -79.487  0.00  0.00    -0.064 C 
ATOM     23  N   UNL     1      10.402  32.019 -78.927  0.00  0.00    +0.379 N 
ATOM     24  C   UNL     1       9.005  32.263 -78.538  0.00  0.00    -0.096 C 
ATOM     25  H   UNL     1      10.654  32.731 -79.747  0.00  0.00    -0.082 HD
ATOM     26  C   UNL     1      11.388  32.254 -77.792  0.00  0.00    -0.064 C 
ATOM     27  C   UNL     1      12.845  31.988 -78.263  0.00  0.00    +0.066 C 
ENDBRANCH  19  20
ENDBRANCH  18  19
ENDBRANCH  14  15
ENDBRANCH  12  13
TORSDOF 6
ENDMDL
