MODEL 1
REMARK VINA RESULT:      -7.9      0.000      0.000
REMARK  Name = C:\Users\Docking\Desktop\test protocol\1iep_ligandH.pdb
REMARK  8 active torsions:
REMARK  status: ('A' for Active; 'I' for Inactive)
REMARK    1  A    between atoms: _5  and  _11
REMARK    2  A    between atoms: _19  and  _21
REMARK    3  A    between atoms: _22  and  _66
REMARK    4  A    between atoms: _27  and  _30
REMARK    5  A    between atoms: _32  and  _33
REMARK    6  A    between atoms: _38  and  _43
REMARK    7  A    between atoms: _43  and  _46
REMARK    8  A    between atoms: _53  and  _55
REMARK                            x       y       z     vdW  Elec       q    Type
REMARK                         _______ _______ _______ _____ _____    ______ ____
ROOT
ATOM     10  C   UNL     1     122.583 107.536 129.000  0.00  0.00    +0.038 A 
ATOM     11  C   UNL     1     122.744 106.797 127.801  0.00  0.00    +0.047 A 
ATOM     12  C   UNL     1     123.130 107.450 126.560  0.00  0.00    +0.035 A 
ATOM     32  C   UNL     1     123.346 108.859 126.577  0.00  0.00    +0.024 A 
ATOM     33  C   UNL     1     123.185 109.626 127.787  0.00  0.00    +0.007 A 
ATOM     34  C   UNL     1     122.803 108.988 129.014  0.00  0.00    -0.029 A 
ATOM     35  C   UNL     1     122.639 109.862 130.279  0.00  0.00    +0.045 C 
ENDROOT
BRANCH  10   9
ATOM      4  C   UNL     1     119.291 106.016 132.145  0.00  0.00    +0.077 A 
ATOM      5  C   UNL     1     118.224 106.649 131.424  0.00  0.00    +0.048 A 
ATOM      6  C   UNL     1     118.566 107.362 130.253  0.00  0.00    +0.116 A 
ATOM      7  N   UNL     1     119.879 107.430 129.843  0.00  0.00    -0.223 NA
ATOM      8  C   UNL     1     120.884 106.809 130.562  0.00  0.00    +0.220 A 
ATOM      9  N   UNL     1     122.211 106.858 130.163  0.00  0.00    -0.283 N 
ATOM     36  H   UNL     1     122.924 106.393 130.725  0.00  0.00    +0.155 HD
ATOM     37  N   UNL     1     120.584 106.123 131.684  0.00  0.00    -0.214 NA
BRANCH   4   3
ATOM      1  C   UNL     1     118.604 103.077 134.634  0.00  0.00    +0.020 A 
ATOM      2  C   UNL     1     118.790 103.796 133.394  0.00  0.00    +0.013 A 
ATOM      3  C   UNL     1     119.089 105.223 133.398  0.00  0.00    +0.019 A 
ATOM     38  C   UNL     1     119.195 105.897 134.684  0.00  0.00    +0.120 A 
ATOM     39  N   UNL     1     119.010 105.179 135.861  0.00  0.00    -0.263 NA
ATOM     40  C   UNL     1     118.720 103.806 135.869  0.00  0.00    +0.111 A 
ENDBRANCH   4   3
ENDBRANCH  10   9
BRANCH  12  13
ATOM     13  N   UNL     1     123.301 106.752 125.310  0.00  0.00    -0.281 N 
ATOM     14  C   UNL     1     124.463 106.201 124.794  0.00  0.00    +0.248 C 
ATOM     30  O   UNL     1     125.583 106.413 125.235  0.00  0.00    -0.270 OA
ATOM     31  H   UNL     1     122.464 106.652 124.735  0.00  0.00    +0.155 HD
BRANCH  14  15
ATOM     15  C   UNL     1     124.368 105.295 123.609  0.00  0.00    +0.037 A 
ATOM     16  C   UNL     1     125.505 104.471 123.190  0.00  0.00    +0.013 A 
ATOM     17  C   UNL     1     125.392 103.619 122.033  0.00  0.00    +0.005 A 
ATOM     18  C   UNL     1     124.136 103.586 121.287  0.00  0.00    -0.033 A 
ATOM     28  C   UNL     1     123.023 104.410 121.728  0.00  0.00    +0.005 A 
ATOM     29  C   UNL     1     123.130 105.248 122.861  0.00  0.00    +0.013 A 
BRANCH  18  19
ATOM     19  C   UNL     1     123.934 102.723 120.028  0.00  0.00    +0.119 C 
BRANCH  19  20
ATOM     20  N   UNL     1     124.408 103.286 118.729  0.00  0.00    -0.302 NA
ATOM     21  C   UNL     1     125.010 104.684 118.894  0.00  0.00    +0.066 C 
ATOM     22  C   UNL     1     125.521 105.250 117.529  0.00  0.00    -0.064 C 
ATOM     23  N   UNL     1     124.367 105.272 116.525  0.00  0.00    +0.379 N 
ATOM     24  C   UNL     1     124.830 105.857 115.259  0.00  0.00    -0.096 C 
ATOM     25  H   UNL     1     123.574 105.940 116.937  0.00  0.00    -0.082 HD
ATOM     26  C   UNL     1     123.761 103.886 116.357  0.00  0.00    -0.064 C 
ATOM     27  C   UNL     1     123.283 103.322 117.724  0.00  0.00    +0.066 C 
ENDBRANCH  19  20
ENDBRANCH  18  19
ENDBRANCH  14  15
ENDBRANCH  12  13
TORSDOF 6
ENDMDL
MODEL 2
REMARK VINA RESULT:      -7.8     22.875     25.711
REMARK  Name = C:\Users\Docking\Desktop\test protocol\1iep_ligandH.pdb
REMARK  8 active torsions:
REMARK  status: ('A' for Active; 'I' for Inactive)
REMARK    1  A    between atoms: _5  and  _11
REMARK    2  A    between atoms: _19  and  _21
REMARK    3  A    between atoms: _22  and  _66
REMARK    4  A    between atoms: _27  and  _30
REMARK    5  A    between atoms: _32  and  _33
REMARK    6  A    between atoms: _38  and  _43
REMARK    7  A    between atoms: _43  and  _46
REMARK    8  A    between atoms: _53  and  _55
REMARK                            x       y       z     vdW  Elec       q    Type
REMARK                         _______ _______ _______ _____ _____    ______ ____
ROOT
ATOM     10  C   UNL     1     118.492 104.776 150.742  0.00  0.00    +0.038 A 
ATOM     11  C   UNL     1     117.371 105.145 149.956  0.00  0.00    +0.047 A 
ATOM     12  C   UNL     1     117.127 106.534 149.600  0.00  0.00    +0.035 A 
ATOM     32  C   UNL     1     118.046 107.522 150.060  0.00  0.00    +0.024 A 
ATOM     33  C   UNL     1     119.191 107.164 150.861  0.00  0.00    +0.007 A 
ATOM     34  C   UNL     1     119.435 105.795 151.217  0.00  0.00    -0.029 A 
ATOM     35  C   UNL     1     120.674 105.470 152.084  0.00  0.00    +0.045 C 
ENDROOT
BRANCH  10   9
ATOM      4  C   UNL     1     117.707 100.920 153.490  0.00  0.00    +0.077 A 
ATOM      5  C   UNL     1     116.877 101.661 154.396  0.00  0.00    +0.048 A 
ATOM      6  C   UNL     1     116.683 103.034 154.123  0.00  0.00    +0.116 A 
ATOM      7  N   UNL     1     117.279 103.612 153.023  0.00  0.00    -0.223 NA
ATOM      8  C   UNL     1     118.075 102.869 152.171  0.00  0.00    +0.220 A 
ATOM      9  N   UNL     1     118.678 103.427 151.054  0.00  0.00    -0.283 N 
ATOM     36  H   UNL     1     119.264 102.847 150.455  0.00  0.00    +0.155 HD
ATOM     37  N   UNL     1     118.277 101.556 152.411  0.00  0.00    -0.214 NA
BRANCH   4   3
ATOM      1  C   UNL     1     117.374  97.023 153.487  0.00  0.00    +0.020 A 
ATOM      2  C   UNL     1     117.037  98.418 153.323  0.00  0.00    +0.013 A 
ATOM      3  C   UNL     1     118.004  99.461 153.643  0.00  0.00    +0.019 A 
ATOM     38  C   UNL     1     119.313  99.055 154.130  0.00  0.00    +0.120 A 
ATOM     39  N   UNL     1     119.609  97.704 154.280  0.00  0.00    -0.263 NA
ATOM     40  C   UNL     1     118.687  96.691 153.977  0.00  0.00    +0.111 A 
ENDBRANCH   4   3
ENDBRANCH  10   9
BRANCH  12  13
ATOM     13  N   UNL     1     116.001 106.971 148.811  0.00  0.00    -0.281 N 
ATOM     14  C   UNL     1     115.242 106.224 147.924  0.00  0.00    +0.248 C 
ATOM     30  O   UNL     1     115.552 105.116 147.513  0.00  0.00    -0.270 OA
ATOM     31  H   UNL     1     115.731 107.948 148.919  0.00  0.00    +0.155 HD
BRANCH  14  15
ATOM     15  C   UNL     1     113.962 106.798 147.409  0.00  0.00    +0.037 A 
ATOM     16  C   UNL     1     113.778 107.088 145.985  0.00  0.00    +0.013 A 
ATOM     17  C   UNL     1     112.539 107.657 145.517  0.00  0.00    +0.005 A 
ATOM     18  C   UNL     1     111.473 107.938 146.476  0.00  0.00    -0.033 A 
ATOM     28  C   UNL     1     111.680 107.635 147.882  0.00  0.00    +0.005 A 
ATOM     29  C   UNL     1     112.894 107.078 148.344  0.00  0.00    +0.013 A 
BRANCH  18  19
ATOM     19  C   UNL     1     110.126 108.564 146.069  0.00  0.00    +0.119 C 
BRANCH  19  20
ATOM     20  N   UNL     1     110.133 110.005 145.675  0.00  0.00    -0.302 NA
ATOM     21  C   UNL     1     109.659 110.913 146.812  0.00  0.00    +0.066 C 
ATOM     22  C   UNL     1     109.694 112.419 146.390  0.00  0.00    -0.064 C 
ATOM     23  N   UNL     1     108.830 112.616 145.143  0.00  0.00    +0.379 N 
ATOM     24  C   UNL     1     108.814 114.040 144.778  0.00  0.00    -0.096 C 
ATOM     25  H   UNL     1     107.787 112.322 145.405  0.00  0.00    -0.082 HD
ATOM     26  C   UNL     1     109.292 111.714 144.008  0.00  0.00    -0.064 C 
ATOM     27  C   UNL     1     109.282 110.223 144.448  0.00  0.00    +0.066 C 
ENDBRANCH  19  20
ENDBRANCH  18  19
ENDBRANCH  14  15
ENDBRANCH  12  13
TORSDOF 6
ENDMDL
MODEL 3
REMARK VINA RESULT:      -7.7     24.044     33.264
REMARK  Name = C:\Users\Docking\Desktop\test protocol\1iep_ligandH.pdb
REMARK  8 active torsions:
REMARK  status: ('A' for Active; 'I' for Inactive)
REMARK    1  A    between atoms: _5  and  _11
REMARK    2  A    between atoms: _19  and  _21
REMARK    3  A    between atoms: _22  and  _66
REMARK    4  A    between atoms: _27  and  _30
REMARK    5  A    between atoms: _32  and  _33
REMARK    6  A    between atoms: _38  and  _43
REMARK    7  A    between atoms: _43  and  _46
REMARK    8  A    between atoms: _53  and  _55
REMARK                            x       y       z     vdW  Elec       q    Type
REMARK                         _______ _______ _______ _____ _____    ______ ____
ROOT
ATOM     10  C   UNL     1     135.550 110.987  99.391  0.00  0.00    +0.038 A 
ATOM     11  C   UNL     1     135.162 111.725  98.244  0.00  0.00    +0.047 A 
ATOM     12  C   UNL     1     136.020 111.800  97.071  0.00  0.00    +0.035 A 
ATOM     32  C   UNL     1     137.266 111.109  97.101  0.00  0.00    +0.024 A 
ATOM     33  C   UNL     1     137.677 110.354  98.259  0.00  0.00    +0.007 A 
ATOM     34  C   UNL     1     136.835 110.279  99.419  0.00  0.00    -0.029 A 
ATOM     35  C   UNL     1     137.329 109.460 100.635  0.00  0.00    +0.045 C 
ENDROOT
BRANCH  10   9
ATOM      4  C   UNL     1     133.602 112.949 103.314  0.00  0.00    +0.077 A 
ATOM      5  C   UNL     1     134.390 114.141 103.181  0.00  0.00    +0.048 A 
ATOM      6  C   UNL     1     135.289 114.206 102.093  0.00  0.00    +0.116 A 
ATOM      7  N   UNL     1     135.385 113.152 101.211  0.00  0.00    -0.223 NA
ATOM      8  C   UNL     1     134.612 112.017 101.369  0.00  0.00    +0.220 A 
ATOM      9  N   UNL     1     134.687 110.948 100.488  0.00  0.00    -0.283 N 
ATOM     36  H   UNL     1     134.105 110.125 100.644  0.00  0.00    +0.155 HD
ATOM     37  N   UNL     1     133.747 111.929 102.400  0.00  0.00    -0.214 NA
BRANCH   4   3
ATOM      1  C   UNL     1     130.247 112.654 105.303  0.00  0.00    +0.020 A 
ATOM      2  C   UNL     1     131.168 112.876 104.212  0.00  0.00    +0.013 A 
ATOM      3  C   UNL     1     132.605 112.731 104.409  0.00  0.00    +0.019 A 
ATOM     38  C   UNL     1     133.081 112.358 105.732  0.00  0.00    +0.120 A 
ATOM     39  N   UNL     1     132.171 112.152 106.764  0.00  0.00    -0.263 NA
ATOM     40  C   UNL     1     130.786 112.290 106.587  0.00  0.00    +0.111 A 
ENDBRANCH   4   3
ENDBRANCH  10   9
BRANCH  12  13
ATOM     13  N   UNL     1     135.683 112.541  95.881  0.00  0.00    -0.281 N 
ATOM     14  C   UNL     1     136.147 113.787  95.494  0.00  0.00    +0.248 C 
ATOM     30  O   UNL     1     136.763 114.552  96.221  0.00  0.00    -0.270 OA
ATOM     31  H   UNL     1     135.022 112.092  95.247  0.00  0.00    +0.155 HD
BRANCH  14  15
ATOM     15  C   UNL     1     135.875 114.258  94.101  0.00  0.00    +0.037 A 
ATOM     16  C   UNL     1     135.568 113.312  93.026  0.00  0.00    +0.013 A 
ATOM     17  C   UNL     1     135.326 113.792  91.688  0.00  0.00    +0.005 A 
ATOM     18  C   UNL     1     135.390 115.226  91.419  0.00  0.00    -0.033 A 
ATOM     28  C   UNL     1     135.693 116.143  92.506  0.00  0.00    +0.005 A 
ATOM     29  C   UNL     1     135.931 115.677  93.818  0.00  0.00    +0.013 A 
BRANCH  18  19
ATOM     19  C   UNL     1     135.168 115.825  90.018  0.00  0.00    +0.119 C 
BRANCH  19  20
ATOM     20  N   UNL     1     136.365 116.361  89.304  0.00  0.00    -0.302 NA
ATOM     21  C   UNL     1     136.014 117.545  88.400  0.00  0.00    +0.066 C 
ATOM     22  C   UNL     1     137.282 118.107  87.679  0.00  0.00    -0.064 C 
ATOM     23  N   UNL     1     137.945 116.989  86.873  0.00  0.00    +0.379 N 
ATOM     24  C   UNL     1     139.104 117.528  86.148  0.00  0.00    -0.096 C 
ATOM     25  H   UNL     1     137.207 116.635  86.116  0.00  0.00    -0.082 HD
ATOM     26  C   UNL     1     138.295 115.806  87.764  0.00  0.00    -0.064 C 
ATOM     27  C   UNL     1     137.033 115.274  88.499  0.00  0.00    +0.066 C 
ENDBRANCH  19  20
ENDBRANCH  18  19
ENDBRANCH  14  15
ENDBRANCH  12  13
TORSDOF 6
ENDMDL
