MODEL 1
REMARK VINA RESULT:     -10.7      0.000      0.000
REMARK  Name = C:\Users\Docking\Desktop\test protocol\1iep_ligandH.pdb
REMARK  8 active torsions:
REMARK  status: ('A' for Active; 'I' for Inactive)
REMARK    1  A    between atoms: _5  and  _11
REMARK    2  A    between atoms: _19  and  _21
REMARK    3  A    between atoms: _22  and  _66
REMARK    4  A    between atoms: _27  and  _30
REMARK    5  A    between atoms: _32  and  _33
REMARK    6  A    between atoms: _38  and  _43
REMARK    7  A    between atoms: _43  and  _46
REMARK    8  A    between atoms: _53  and  _55
REMARK                            x       y       z     vdW  Elec       q    Type
REMARK                         _______ _______ _______ _____ _____    ______ ____
ROOT
ATOM     10  C   UNL     1      13.638   1.076   5.982  0.00  0.00    +0.038 A 
ATOM     11  C   UNL     1      13.473   0.308   7.163  0.00  0.00    +0.047 A 
ATOM     12  C   UNL     1      12.227  -0.391   7.438  0.00  0.00    +0.035 A 
ATOM     32  C   UNL     1      11.171  -0.288   6.487  0.00  0.00    +0.024 A 
ATOM     33  C   UNL     1      11.321   0.489   5.282  0.00  0.00    +0.007 A 
ATOM     34  C   UNL     1      12.546   1.183   5.007  0.00  0.00    -0.029 A 
ATOM     35  C   UNL     1      12.649   2.006   3.702  0.00  0.00    +0.045 C 
ENDROOT
BRANCH  10   9
ATOM      4  C   UNL     1      18.283   1.075   4.775  0.00  0.00    +0.077 A 
ATOM      5  C   UNL     1      18.293  -0.346   4.579  0.00  0.00    +0.048 A 
ATOM      6  C   UNL     1      17.083  -1.041   4.806  0.00  0.00    +0.116 A 
ATOM      7  N   UNL     1      15.955  -0.355   5.200  0.00  0.00    -0.223 NA
ATOM      8  C   UNL     1      15.980   1.016   5.381  0.00  0.00    +0.220 A 
ATOM      9  N   UNL     1      14.855   1.727   5.769  0.00  0.00    -0.283 N 
ATOM     36  H   UNL     1      14.917   2.736   5.900  0.00  0.00    +0.155 HD
ATOM     37  N   UNL     1      17.123   1.702   5.172  0.00  0.00    -0.214 NA
BRANCH   4   3
ATOM      1  C   UNL     1      21.943   2.456   4.796  0.00  0.00    +0.020 A 
ATOM      2  C   UNL     1      20.819   1.576   5.018  0.00  0.00    +0.013 A 
ATOM      3  C   UNL     1      19.482   1.948   4.572  0.00  0.00    +0.019 A 
ATOM     38  C   UNL     1      19.316   3.228   3.899  0.00  0.00    +0.120 A 
ATOM     39  N   UNL     1      20.417   4.055   3.701  0.00  0.00    -0.263 NA
ATOM     40  C   UNL     1      21.707   3.708   4.127  0.00  0.00    +0.111 A 
ENDBRANCH   4   3
ENDBRANCH  10   9
BRANCH  12  13
ATOM     13  N   UNL     1      11.999  -1.179   8.624  0.00  0.00    -0.281 N 
ATOM     14  C   UNL     1      11.808  -0.730   9.921  0.00  0.00    +0.248 C 
ATOM     30  O   UNL     1      12.018   0.414  10.295  0.00  0.00    -0.270 OA
ATOM     31  H   UNL     1      11.975  -2.190   8.491  0.00  0.00    +0.155 HD
BRANCH  14  15
ATOM     15  C   UNL     1      11.328  -1.696  10.956  0.00  0.00    +0.037 A 
ATOM     16  C   UNL     1      10.888  -1.239  12.276  0.00  0.00    +0.013 A 
ATOM     17  C   UNL     1      10.445  -2.193  13.262  0.00  0.00    +0.005 A 
ATOM     18  C   UNL     1      10.439  -3.616  12.929  0.00  0.00    -0.033 A 
ATOM     28  C   UNL     1      10.875  -4.041  11.609  0.00  0.00    +0.005 A 
ATOM     29  C   UNL     1      11.311  -3.109  10.641  0.00  0.00    +0.013 A 
BRANCH  18  19
ATOM     19  C   UNL     1      10.003  -4.706  13.925  0.00  0.00    +0.119 C 
BRANCH  19  20
ATOM     20  N   UNL     1       9.026  -4.313  14.984  0.00  0.00    -0.302 NA
ATOM     21  C   UNL     1       9.575  -3.209  15.892  0.00  0.00    +0.066 C 
ATOM     22  C   UNL     1       8.531  -2.794  16.979  0.00  0.00    -0.064 C 
ATOM     23  N   UNL     1       8.138  -4.024  17.800  0.00  0.00    +0.379 N 
ATOM     24  C   UNL     1       7.201  -3.627  18.861  0.00  0.00    -0.096 C 
ATOM     25  H   UNL     1       9.061  -4.411  18.291  0.00  0.00    -0.082 HD
ATOM     26  C   UNL     1       7.593  -5.128  16.905  0.00  0.00    -0.064 C 
ATOM     27  C   UNL     1       8.627  -5.512  15.809  0.00  0.00    +0.066 C 
ENDBRANCH  19  20
ENDBRANCH  18  19
ENDBRANCH  14  15
ENDBRANCH  12  13
TORSDOF 6
ENDMDL
MODEL 2
REMARK VINA RESULT:     -10.1      4.468     15.380
REMARK  Name = C:\Users\Docking\Desktop\test protocol\1iep_ligandH.pdb
REMARK  8 active torsions:
REMARK  status: ('A' for Active; 'I' for Inactive)
REMARK    1  A    between atoms: _5  and  _11
REMARK    2  A    between atoms: _19  and  _21
REMARK    3  A    between atoms: _22  and  _66
REMARK    4  A    between atoms: _27  and  _30
REMARK    5  A    between atoms: _32  and  _33
REMARK    6  A    between atoms: _38  and  _43
REMARK    7  A    between atoms: _43  and  _46
REMARK    8  A    between atoms: _53  and  _55
REMARK                            x       y       z     vdW  Elec       q    Type
REMARK                         _______ _______ _______ _____ _____    ______ ____
ROOT
ATOM     10  C   UNL     1       8.265  -4.733  19.270  0.00  0.00    +0.038 A 
ATOM     11  C   UNL     1       8.694  -4.574  17.928  0.00  0.00    +0.047 A 
ATOM     12  C   UNL     1       8.374  -3.373  17.173  0.00  0.00    +0.035 A 
ATOM     32  C   UNL     1       7.616  -2.352  17.817  0.00  0.00    +0.024 A 
ATOM     33  C   UNL     1       7.170  -2.497  19.180  0.00  0.00    +0.007 A 
ATOM     34  C   UNL     1       7.481  -3.681  19.930  0.00  0.00    -0.029 A 
ATOM     35  C   UNL     1       6.972  -3.786  21.386  0.00  0.00    +0.045 C 
ENDROOT
BRANCH  10   9
ATOM      4  C   UNL     1      11.108  -7.267  22.191  0.00  0.00    +0.077 A 
ATOM      5  C   UNL     1      12.015  -6.169  22.358  0.00  0.00    +0.048 A 
ATOM      6  C   UNL     1      11.718  -4.971  21.670  0.00  0.00    +0.116 A 
ATOM      7  N   UNL     1      10.594  -4.890  20.877  0.00  0.00    -0.223 NA
ATOM      8  C   UNL     1       9.741  -5.969  20.735  0.00  0.00    +0.220 A 
ATOM      9  N   UNL     1       8.601  -5.907  19.949  0.00  0.00    -0.283 N 
ATOM     36  H   UNL     1       8.001  -6.727  19.865  0.00  0.00    +0.155 HD
ATOM     37  N   UNL     1      10.004  -7.124  21.381  0.00  0.00    -0.214 NA
BRANCH   4   3
ATOM      1  C   UNL     1      10.764 -11.052  23.119  0.00  0.00    +0.020 A 
ATOM      2  C   UNL     1      10.557  -9.791  22.444  0.00  0.00    +0.013 A 
ATOM      3  C   UNL     1      11.284  -8.597  22.855  0.00  0.00    +0.019 A 
ATOM     38  C   UNL     1      12.223  -8.714  23.961  0.00  0.00    +0.120 A 
ATOM     39  N   UNL     1      12.401  -9.941  24.593  0.00  0.00    -0.263 NA
ATOM     40  C   UNL     1      11.705 -11.096  24.207  0.00  0.00    +0.111 A 
ENDBRANCH   4   3
ENDBRANCH  10   9
BRANCH  12  13
ATOM     13  N   UNL     1       8.775  -3.159  15.805  0.00  0.00    -0.281 N 
ATOM     14  C   UNL     1       9.930  -2.549  15.341  0.00  0.00    +0.248 C 
ATOM     30  O   UNL     1      10.696  -1.900  16.038  0.00  0.00    -0.270 OA
ATOM     31  H   UNL     1       8.131  -3.499  15.091  0.00  0.00    +0.155 HD
BRANCH  14  15
ATOM     15  C   UNL     1      10.275  -2.664  13.892  0.00  0.00    +0.037 A 
ATOM     16  C   UNL     1      10.341  -3.968  13.228  0.00  0.00    +0.013 A 
ATOM     17  C   UNL     1      10.694  -4.052  11.832  0.00  0.00    +0.005 A 
ATOM     18  C   UNL     1      10.982  -2.827  11.092  0.00  0.00    -0.033 A 
ATOM     28  C   UNL     1      10.904  -1.546  11.774  0.00  0.00    +0.005 A 
ATOM     29  C   UNL     1      10.560  -1.459  13.142  0.00  0.00    +0.013 A 
BRANCH  18  19
ATOM     19  C   UNL     1      11.387  -2.823   9.606  0.00  0.00    +0.119 C 
BRANCH  19  20
ATOM     20  N   UNL     1      11.883  -1.535   9.035  0.00  0.00    -0.302 NA
ATOM     21  C   UNL     1      10.914  -0.954   8.002  0.00  0.00    +0.066 C 
ATOM     22  C   UNL     1      11.437   0.405   7.432  0.00  0.00    -0.064 C 
ATOM     23  N   UNL     1      12.823   0.197   6.818  0.00  0.00    +0.379 N 
ATOM     24  C   UNL     1      13.293   1.459   6.229  0.00  0.00    -0.096 C 
ATOM     25  H   UNL     1      12.718  -0.544   5.991  0.00  0.00    -0.082 HD
ATOM     26  C   UNL     1      13.792  -0.384   7.837  0.00  0.00    -0.064 C 
ATOM     27  C   UNL     1      13.249  -1.718   8.419  0.00  0.00    +0.066 C 
ENDBRANCH  19  20
ENDBRANCH  18  19
ENDBRANCH  14  15
ENDBRANCH  12  13
TORSDOF 6
ENDMDL
MODEL 3
REMARK VINA RESULT:      -9.5      6.572     12.942
REMARK  Name = C:\Users\Docking\Desktop\test protocol\1iep_ligandH.pdb
REMARK  8 active torsions:
REMARK  status: ('A' for Active; 'I' for Inactive)
REMARK    1  A    between atoms: _5  and  _11
REMARK    2  A    between atoms: _19  and  _21
REMARK    3  A    between atoms: _22  and  _66
REMARK    4  A    between atoms: _27  and  _30
REMARK    5  A    between atoms: _32  and  _33
REMARK    6  A    between atoms: _38  and  _43
REMARK    7  A    between atoms: _43  and  _46
REMARK    8  A    between atoms: _53  and  _55
REMARK                            x       y       z     vdW  Elec       q    Type
REMARK                         _______ _______ _______ _____ _____    ______ ____
ROOT
ATOM     10  C   UNL     1      10.872   0.770  19.536  0.00  0.00    +0.038 A 
ATOM     11  C   UNL     1      11.000   0.426  18.166  0.00  0.00    +0.047 A 
ATOM     12  C   UNL     1      11.023  -0.965  17.739  0.00  0.00    +0.035 A 
ATOM     32  C   UNL     1      10.913  -1.979  18.735  0.00  0.00    +0.024 A 
ATOM     33  C   UNL     1      10.783  -1.647  20.132  0.00  0.00    +0.007 A 
ATOM     34  C   UNL     1      10.762  -0.277  20.559  0.00  0.00    -0.029 A 
ATOM     35  C   UNL     1      10.627   0.021  22.071  0.00  0.00    +0.045 C 
ENDROOT
BRANCH  10   9
ATOM      4  C   UNL     1      12.700   5.206  19.397  0.00  0.00    +0.077 A 
ATOM      5  C   UNL     1      13.798   4.792  18.572  0.00  0.00    +0.048 A 
ATOM      6  C   UNL     1      13.859   3.427  18.211  0.00  0.00    +0.116 A 
ATOM      7  N   UNL     1      12.889   2.551  18.649  0.00  0.00    -0.223 NA
ATOM      8  C   UNL     1      11.845   2.983  19.445  0.00  0.00    +0.220 A 
ATOM      9  N   UNL     1      10.855   2.121  19.890  0.00  0.00    -0.283 N 
ATOM     36  H   UNL     1      10.105   2.478  20.482  0.00  0.00    +0.155 HD
ATOM     37  N   UNL     1      11.765   4.281  19.805  0.00  0.00    -0.214 NA
BRANCH   4   3
ATOM      1  C   UNL     1      11.946   9.044  19.454  0.00  0.00    +0.020 A 
ATOM      2  C   UNL     1      12.132   7.700  18.957  0.00  0.00    +0.013 A 
ATOM      3  C   UNL     1      12.495   6.615  19.859  0.00  0.00    +0.019 A 
ATOM     38  C   UNL     1      12.663   6.926  21.271  0.00  0.00    +0.120 A 
ATOM     39  N   UNL     1      12.479   8.229  21.721  0.00  0.00    -0.263 NA
ATOM     40  C   UNL     1      12.130   9.282  20.862  0.00  0.00    +0.111 A 
ENDBRANCH   4   3
ENDBRANCH  10   9
BRANCH  12  13
ATOM     13  N   UNL     1      11.159  -1.375  16.364  0.00  0.00    -0.281 N 
ATOM     14  C   UNL     1      10.209  -1.983  15.559  0.00  0.00    +0.248 C 
ATOM     30  O   UNL     1       9.162  -2.463  15.968  0.00  0.00    -0.270 OA
ATOM     31  H   UNL     1      12.065  -1.196  15.931  0.00  0.00    +0.155 HD
BRANCH  14  15
ATOM     15  C   UNL     1      10.467  -2.087  14.091  0.00  0.00    +0.037 A 
ATOM     16  C   UNL     1      10.293  -0.932  13.205  0.00  0.00    +0.013 A 
ATOM     17  C   UNL     1      10.531  -1.064  11.790  0.00  0.00    +0.005 A 
ATOM     18  C   UNL     1      10.948  -2.356  11.251  0.00  0.00    -0.033 A 
ATOM     28  C   UNL     1      11.118  -3.483  12.152  0.00  0.00    +0.005 A 
ATOM     29  C   UNL     1      10.884  -3.359  13.540  0.00  0.00    +0.013 A 
BRANCH  18  19
ATOM     19  C   UNL     1      11.205  -2.593   9.751  0.00  0.00    +0.119 C 
BRANCH  19  20
ATOM     20  N   UNL     1      11.706  -1.435   8.951  0.00  0.00    -0.302 NA
ATOM     21  C   UNL     1      10.727  -1.036   7.843  0.00  0.00    +0.066 C 
ATOM     22  C   UNL     1      11.257   0.191   7.032  0.00  0.00    -0.064 C 
ATOM     23  N   UNL     1      12.630  -0.142   6.447  0.00  0.00    +0.379 N 
ATOM     24  C   UNL     1      13.105   0.988   5.635  0.00  0.00    -0.096 C 
ATOM     25  H   UNL     1      12.505  -1.018   5.768  0.00  0.00    -0.082 HD
ATOM     26  C   UNL     1      13.609  -0.543   7.541  0.00  0.00    -0.064 C 
ATOM     27  C   UNL     1      13.059  -1.744   8.361  0.00  0.00    +0.066 C 
ENDBRANCH  19  20
ENDBRANCH  18  19
ENDBRANCH  14  15
ENDBRANCH  12  13
TORSDOF 6
ENDMDL
MODEL 4
REMARK VINA RESULT:      -9.4      4.343     15.539
REMARK  Name = C:\Users\Docking\Desktop\test protocol\1iep_ligandH.pdb
REMARK  8 active torsions:
REMARK  status: ('A' for Active; 'I' for Inactive)
REMARK    1  A    between atoms: _5  and  _11
REMARK    2  A    between atoms: _19  and  _21
REMARK    3  A    between atoms: _22  and  _66
REMARK    4  A    between atoms: _27  and  _30
REMARK    5  A    between atoms: _32  and  _33
REMARK    6  A    between atoms: _38  and  _43
REMARK    7  A    between atoms: _43  and  _46
REMARK    8  A    between atoms: _53  and  _55
REMARK                            x       y       z     vdW  Elec       q    Type
REMARK                         _______ _______ _______ _____ _____    ______ ____
ROOT
ATOM     10  C   UNL     1       7.395  -2.167  18.980  0.00  0.00    +0.038 A 
ATOM     11  C   UNL     1       7.874  -2.269  17.649  0.00  0.00    +0.047 A 
ATOM     12  C   UNL     1       9.297  -2.388  17.368  0.00  0.00    +0.035 A 
ATOM     32  C   UNL     1      10.203  -2.401  18.468  0.00  0.00    +0.024 A 
ATOM     33  C   UNL     1       9.734  -2.297  19.827  0.00  0.00    +0.007 A 
ATOM     34  C   UNL     1       8.332  -2.178  20.110  0.00  0.00    -0.029 A 
ATOM     35  C   UNL     1       7.886  -2.063  21.586  0.00  0.00    +0.045 C 
ENDROOT
BRANCH  10   9
ATOM      4  C   UNL     1       3.376   0.421  19.418  0.00  0.00    +0.077 A 
ATOM      5  C   UNL     1       4.082   1.656  19.235  0.00  0.00    +0.048 A 
ATOM      6  C   UNL     1       5.479   1.583  19.039  0.00  0.00    +0.116 A 
ATOM      7  N   UNL     1       6.113   0.360  19.027  0.00  0.00    -0.223 NA
ATOM      8  C   UNL     1       5.403  -0.813  19.208  0.00  0.00    +0.220 A 
ATOM      9  N   UNL     1       6.019  -2.055  19.192  0.00  0.00    -0.283 N 
ATOM     36  H   UNL     1       5.461  -2.896  19.336  0.00  0.00    +0.155 HD
ATOM     37  N   UNL     1       4.068  -0.770  19.399  0.00  0.00    -0.214 NA
BRANCH   4   3
ATOM      1  C   UNL     1      -0.462  -0.038  18.821  0.00  0.00    +0.020 A 
ATOM      2  C   UNL     1       0.957   0.035  18.560  0.00  0.00    +0.013 A 
ATOM      3  C   UNL     1       1.897   0.333  19.633  0.00  0.00    +0.019 A 
ATOM     38  C   UNL     1       1.365   0.553  20.969  0.00  0.00    +0.120 A 
ATOM     39  N   UNL     1      -0.007   0.478  21.190  0.00  0.00    -0.263 NA
ATOM     40  C   UNL     1      -0.921   0.193  20.165  0.00  0.00    +0.111 A 
ENDBRANCH   4   3
ENDBRANCH  10   9
BRANCH  12  13
ATOM     13  N   UNL     1       9.843  -2.487  16.037  0.00  0.00    -0.281 N 
ATOM     14  C   UNL     1       9.626  -3.483  15.100  0.00  0.00    +0.248 C 
ATOM     30  O   UNL     1       9.095  -4.557  15.343  0.00  0.00    -0.270 OA
ATOM     31  H   UNL     1      10.464  -1.730  15.752  0.00  0.00    +0.155 HD
BRANCH  14  15
ATOM     15  C   UNL     1      10.077  -3.261  13.692  0.00  0.00    +0.037 A 
ATOM     16  C   UNL     1      10.520  -1.941  13.236  0.00  0.00    +0.013 A 
ATOM     17  C   UNL     1      10.933  -1.750  11.868  0.00  0.00    +0.005 A 
ATOM     18  C   UNL     1      10.908  -2.884  10.947  0.00  0.00    -0.033 A 
ATOM     28  C   UNL     1      10.469  -4.184  11.428  0.00  0.00    +0.005 A 
ATOM     29  C   UNL     1      10.061  -4.374  12.768  0.00  0.00    +0.013 A 
BRANCH  18  19
ATOM     19  C   UNL     1      11.312  -2.768   9.466  0.00  0.00    +0.119 C 
BRANCH  19  20
ATOM     20  N   UNL     1      11.878  -1.463   9.012  0.00  0.00    -0.302 NA
ATOM     21  C   UNL     1      10.967  -0.762   8.000  0.00  0.00    +0.066 C 
ATOM     22  C   UNL     1      11.564   0.612   7.553  0.00  0.00    -0.064 C 
ATOM     23  N   UNL     1      12.959   0.392   6.965  0.00  0.00    +0.379 N 
ATOM     24  C   UNL     1      13.499   1.675   6.491  0.00  0.00    -0.096 C 
ATOM     25  H   UNL     1      12.851  -0.277   6.080  0.00  0.00    -0.082 HD
ATOM     26  C   UNL     1      13.870  -0.306   7.964  0.00  0.00    -0.064 C 
ATOM     27  C   UNL     1      13.254  -1.657   8.424  0.00  0.00    +0.066 C 
ENDBRANCH  19  20
ENDBRANCH  18  19
ENDBRANCH  14  15
ENDBRANCH  12  13
TORSDOF 6
ENDMDL
MODEL 5
REMARK VINA RESULT:      -9.4      4.618     15.530
REMARK  Name = C:\Users\Docking\Desktop\test protocol\1iep_ligandH.pdb
REMARK  8 active torsions:
REMARK  status: ('A' for Active; 'I' for Inactive)
REMARK    1  A    between atoms: _5  and  _11
REMARK    2  A    between atoms: _19  and  _21
REMARK    3  A    between atoms: _22  and  _66
REMARK    4  A    between atoms: _27  and  _30
REMARK    5  A    between atoms: _32  and  _33
REMARK    6  A    between atoms: _38  and  _43
REMARK    7  A    between atoms: _43  and  _46
REMARK    8  A    between atoms: _53  and  _55
REMARK                            x       y       z     vdW  Elec       q    Type
REMARK                         _______ _______ _______ _____ _____    ______ ____
ROOT
ATOM     10  C   UNL     1       9.969  -2.679  20.025  0.00  0.00    +0.038 A 
ATOM     11  C   UNL     1      10.200  -2.988  18.660  0.00  0.00    +0.047 A 
ATOM     12  C   UNL     1      10.593  -1.958  17.711  0.00  0.00    +0.035 A 
ATOM     32  C   UNL     1      10.744  -0.623  18.187  0.00  0.00    +0.024 A 
ATOM     33  C   UNL     1      10.512  -0.291  19.571  0.00  0.00    +0.007 A 
ATOM     34  C   UNL     1      10.122  -1.302  20.511  0.00  0.00    -0.029 A 
ATOM     35  C   UNL     1       9.881  -0.887  21.981  0.00  0.00    +0.045 C 
ENDROOT
BRANCH  10   9
ATOM      4  C   UNL     1      11.004  -6.375  22.907  0.00  0.00    +0.077 A 
ATOM      5  C   UNL     1      12.410  -6.265  22.640  0.00  0.00    +0.048 A 
ATOM      6  C   UNL     1      12.824  -5.249  21.750  0.00  0.00    +0.116 A 
ATOM      7  N   UNL     1      11.894  -4.411  21.176  0.00  0.00    -0.223 NA
ATOM      8  C   UNL     1      10.546  -4.544  21.453  0.00  0.00    +0.220 A 
ATOM      9  N   UNL     1       9.593  -3.707  20.893  0.00  0.00    -0.283 N 
ATOM     36  H   UNL     1       8.608  -3.843  21.117  0.00  0.00    +0.155 HD
ATOM     37  N   UNL     1      10.124  -5.508  22.299  0.00  0.00    -0.214 NA
BRANCH   4   3
ATOM      1  C   UNL     1       8.897  -9.352  24.318  0.00  0.00    +0.020 A 
ATOM      2  C   UNL     1       9.438  -8.388  23.389  0.00  0.00    +0.013 A 
ATOM      3  C   UNL     1      10.411  -7.396  23.828  0.00  0.00    +0.019 A 
ATOM     38  C   UNL     1      10.820  -7.407  25.224  0.00  0.00    +0.120 A 
ATOM     39  N   UNL     1      10.280  -8.347  26.097  0.00  0.00    -0.263 NA
ATOM     40  C   UNL     1       9.341  -9.306  25.686  0.00  0.00    +0.111 A 
ENDBRANCH   4   3
ENDBRANCH  10   9
BRANCH  12  13
ATOM     13  N   UNL     1      10.833  -2.212  16.312  0.00  0.00    -0.281 N 
ATOM     14  C   UNL     1       9.965  -2.767  15.386  0.00  0.00    +0.248 C 
ATOM     30  O   UNL     1       8.919  -3.330  15.671  0.00  0.00    -0.270 OA
ATOM     31  H   UNL     1      11.754  -1.949  15.962  0.00  0.00    +0.155 HD
BRANCH  14  15
ATOM     15  C   UNL     1      10.318  -2.700  13.935  0.00  0.00    +0.037 A 
ATOM     16  C   UNL     1      10.347  -1.423  13.218  0.00  0.00    +0.013 A 
ATOM     17  C   UNL     1      10.674  -1.388  11.815  0.00  0.00    +0.005 A 
ATOM     18  C   UNL     1      10.977  -2.636  11.119  0.00  0.00    -0.033 A 
ATOM     28  C   UNL     1      10.946  -3.889  11.856  0.00  0.00    +0.005 A 
ATOM     29  C   UNL     1      10.625  -3.927  13.231  0.00  0.00    +0.013 A 
BRANCH  18  19
ATOM     19  C   UNL     1      11.315  -2.696   9.618  0.00  0.00    +0.119 C 
BRANCH  19  20
ATOM     20  N   UNL     1      11.826  -1.445   8.982  0.00  0.00    -0.302 NA
ATOM     21  C   UNL     1      10.874  -0.919   7.904  0.00  0.00    +0.066 C 
ATOM     22  C   UNL     1      11.413   0.402   7.265  0.00  0.00    -0.064 C 
ATOM     23  N   UNL     1      12.805   0.153   6.683  0.00  0.00    +0.379 N 
ATOM     24  C   UNL     1      13.290   1.378   6.030  0.00  0.00    -0.096 C 
ATOM     25  H   UNL     1      12.708  -0.633   5.898  0.00  0.00    -0.082 HD
ATOM     26  C   UNL     1      13.757  -0.373   7.747  0.00  0.00    -0.064 C 
ATOM     27  C   UNL     1      13.198  -1.670   8.396  0.00  0.00    +0.066 C 
ENDBRANCH  19  20
ENDBRANCH  18  19
ENDBRANCH  14  15
ENDBRANCH  12  13
TORSDOF 6
ENDMDL
