MODEL 1
REMARK VINA RESULT:      -8.4      0.000      0.000
REMARK  Name = C:\Users\Docking\Desktop\test protocol\1iep_ligandH.pdb
REMARK  8 active torsions:
REMARK  status: ('A' for Active; 'I' for Inactive)
REMARK    1  A    between atoms: _5  and  _11
REMARK    2  A    between atoms: _19  and  _21
REMARK    3  A    between atoms: _22  and  _66
REMARK    4  A    between atoms: _27  and  _30
REMARK    5  A    between atoms: _32  and  _33
REMARK    6  A    between atoms: _38  and  _43
REMARK    7  A    between atoms: _43  and  _46
REMARK    8  A    between atoms: _53  and  _55
REMARK                            x       y       z     vdW  Elec       q    Type
REMARK                         _______ _______ _______ _____ _____    ______ ____
ROOT
ATOM     10  C   UNL     1      -3.388  -1.799 -17.720  0.00  0.00    +0.038 A 
ATOM     11  C   UNL     1      -3.311  -3.022 -17.007  0.00  0.00    +0.047 A 
ATOM     12  C   UNL     1      -2.064  -3.462 -16.400  0.00  0.00    +0.035 A 
ATOM     32  C   UNL     1      -0.916  -2.629 -16.537  0.00  0.00    +0.024 A 
ATOM     33  C   UNL     1      -0.976  -1.383 -17.259  0.00  0.00    +0.007 A 
ATOM     34  C   UNL     1      -2.203  -0.945 -17.862  0.00  0.00    -0.029 A 
ATOM     35  C   UNL     1      -2.208   0.397 -18.630  0.00  0.00    +0.045 C 
ENDROOT
BRANCH  10   9
ATOM      4  C   UNL     1      -6.443  -1.531 -21.413  0.00  0.00    +0.077 A 
ATOM      5  C   UNL     1      -5.514  -2.165 -22.303  0.00  0.00    +0.048 A 
ATOM      6  C   UNL     1      -4.259  -2.538 -21.774  0.00  0.00    +0.116 A 
ATOM      7  N   UNL     1      -3.965  -2.291 -20.450  0.00  0.00    -0.223 NA
ATOM      8  C   UNL     1      -4.882  -1.676 -19.619  0.00  0.00    +0.220 A 
ATOM      9  N   UNL     1      -4.611  -1.425 -18.283  0.00  0.00    -0.283 N 
ATOM     36  H   UNL     1      -5.312  -0.962 -17.704  0.00  0.00    +0.155 HD
ATOM     37  N   UNL     1      -6.088  -1.309 -20.101  0.00  0.00    -0.214 NA
BRANCH   4   3
ATOM      1  C   UNL     1      -9.853  -1.196 -23.299  0.00  0.00    +0.020 A 
ATOM      2  C   UNL     1      -8.534  -1.666 -22.945  0.00  0.00    +0.013 A 
ATOM      3  C   UNL     1      -7.811  -1.081 -21.823  0.00  0.00    +0.019 A 
ATOM     38  C   UNL     1      -8.457  -0.015 -21.072  0.00  0.00    +0.120 A 
ATOM     39  N   UNL     1      -9.728   0.418 -21.438  0.00  0.00    -0.263 NA
ATOM     40  C   UNL     1     -10.432  -0.135 -22.517  0.00  0.00    +0.111 A 
ENDBRANCH   4   3
ENDBRANCH  10   9
BRANCH  12  13
ATOM     13  N   UNL     1      -1.924  -4.698 -15.672  0.00  0.00    -0.281 N 
ATOM     14  C   UNL     1      -1.898  -4.879 -14.299  0.00  0.00    +0.248 C 
ATOM     30  O   UNL     1      -1.777  -3.976 -13.485  0.00  0.00    -0.270 OA
ATOM     31  H   UNL     1      -1.832  -5.543 -16.237  0.00  0.00    +0.155 HD
BRANCH  14  15
ATOM     15  C   UNL     1      -2.007  -6.266 -13.751  0.00  0.00    +0.037 A 
ATOM     16  C   UNL     1      -3.311  -6.866 -13.457  0.00  0.00    +0.013 A 
ATOM     17  C   UNL     1      -3.388  -8.198 -12.913  0.00  0.00    +0.005 A 
ATOM     18  C   UNL     1      -2.156  -8.941 -12.661  0.00  0.00    -0.033 A 
ATOM     28  C   UNL     1      -0.876  -8.324 -12.967  0.00  0.00    +0.005 A 
ATOM     29  C   UNL     1      -0.796  -7.017 -13.499  0.00  0.00    +0.013 A 
BRANCH  18  19
ATOM     19  C   UNL     1      -2.142 -10.360 -12.062  0.00  0.00    +0.119 C 
BRANCH  19  20
ATOM     20  N   UNL     1      -1.420 -11.419 -12.830  0.00  0.00    -0.302 NA
ATOM     21  C   UNL     1      -2.009 -11.618 -14.229  0.00  0.00    +0.066 C 
ATOM     22  C   UNL     1      -1.228 -12.713 -15.025  0.00  0.00    -0.064 C 
ATOM     23  N   UNL     1      -1.248 -14.024 -14.238  0.00  0.00    +0.379 N 
ATOM     24  C   UNL     1      -0.564 -15.071 -15.011  0.00  0.00    -0.096 C 
ATOM     25  H   UNL     1      -2.313 -14.331 -14.120  0.00  0.00    -0.082 HD
ATOM     26  C   UNL     1      -0.665 -13.834 -12.844  0.00  0.00    -0.064 C 
ATOM     27  C   UNL     1      -1.430 -12.724 -12.072  0.00  0.00    +0.066 C 
ENDBRANCH  19  20
ENDBRANCH  18  19
ENDBRANCH  14  15
ENDBRANCH  12  13
TORSDOF 6
ENDMDL
MODEL 2
REMARK VINA RESULT:      -8.2      1.787     12.357
REMARK  Name = C:\Users\Docking\Desktop\test protocol\1iep_ligandH.pdb
REMARK  8 active torsions:
REMARK  status: ('A' for Active; 'I' for Inactive)
REMARK    1  A    between atoms: _5  and  _11
REMARK    2  A    between atoms: _19  and  _21
REMARK    3  A    between atoms: _22  and  _66
REMARK    4  A    between atoms: _27  and  _30
REMARK    5  A    between atoms: _32  and  _33
REMARK    6  A    between atoms: _38  and  _43
REMARK    7  A    between atoms: _43  and  _46
REMARK    8  A    between atoms: _53  and  _55
REMARK                            x       y       z     vdW  Elec       q    Type
REMARK                         _______ _______ _______ _____ _____    ______ ____
ROOT
ATOM     10  C   UNL     1      -0.202  -6.575 -13.298  0.00  0.00    +0.038 A 
ATOM     11  C   UNL     1      -0.987  -5.946 -14.297  0.00  0.00    +0.047 A 
ATOM     12  C   UNL     1      -1.320  -4.533 -14.215  0.00  0.00    +0.035 A 
ATOM     32  C   UNL     1      -0.833  -3.788 -13.101  0.00  0.00    +0.024 A 
ATOM     33  C   UNL     1      -0.034  -4.411 -12.075  0.00  0.00    +0.007 A 
ATOM     34  C   UNL     1       0.295  -5.806 -12.150  0.00  0.00    -0.029 A 
ATOM     35  C   UNL     1       1.149  -6.423 -11.018  0.00  0.00    +0.045 C 
ENDROOT
BRANCH  10   9
ATOM      4  C   UNL     1      -1.439 -11.206 -13.061  0.00  0.00    +0.077 A 
ATOM      5  C   UNL     1      -2.766 -10.890 -12.616  0.00  0.00    +0.048 A 
ATOM      6  C   UNL     1      -3.087  -9.524 -12.453  0.00  0.00    +0.116 A 
ATOM      7  N   UNL     1      -2.145  -8.555 -12.720  0.00  0.00    -0.223 NA
ATOM      8  C   UNL     1      -0.874  -8.894 -13.146  0.00  0.00    +0.220 A 
ATOM      9  N   UNL     1       0.087  -7.935 -13.427  0.00  0.00    -0.283 N 
ATOM     36  H   UNL     1       1.016  -8.226 -13.732  0.00  0.00    +0.155 HD
ATOM     37  N   UNL     1      -0.542 -10.192 -13.307  0.00  0.00    -0.214 NA
BRANCH   4   3
ATOM      1  C   UNL     1      -0.604 -14.651 -14.715  0.00  0.00    +0.020 A 
ATOM      2  C   UNL     1      -1.095 -13.302 -14.553  0.00  0.00    +0.013 A 
ATOM      3  C   UNL     1      -0.949 -12.604 -13.282  0.00  0.00    +0.019 A 
ATOM     38  C   UNL     1      -0.296 -13.304 -12.187  0.00  0.00    +0.120 A 
ATOM     39  N   UNL     1       0.166 -14.603 -12.372  0.00  0.00    -0.263 NA
ATOM     40  C   UNL     1       0.029 -15.286 -13.590  0.00  0.00    +0.111 A 
ENDBRANCH   4   3
ENDBRANCH  10   9
BRANCH  12  13
ATOM     13  N   UNL     1      -2.120  -3.842 -15.196  0.00  0.00    -0.281 N 
ATOM     14  C   UNL     1      -3.420  -4.122 -15.584  0.00  0.00    +0.248 C 
ATOM     30  O   UNL     1      -4.021  -5.147 -15.299  0.00  0.00    -0.270 OA
ATOM     31  H   UNL     1      -1.674  -3.051 -15.660  0.00  0.00    +0.155 HD
BRANCH  14  15
ATOM     15  C   UNL     1      -4.153  -3.126 -16.423  0.00  0.00    +0.037 A 
ATOM     16  C   UNL     1      -5.503  -2.680 -16.068  0.00  0.00    +0.013 A 
ATOM     17  C   UNL     1      -6.195  -1.731 -16.904  0.00  0.00    +0.005 A 
ATOM     18  C   UNL     1      -5.536  -1.220 -18.104  0.00  0.00    -0.033 A 
ATOM     28  C   UNL     1      -4.195  -1.676 -18.430  0.00  0.00    +0.005 A 
ATOM     29  C   UNL     1      -3.514  -2.607 -17.613  0.00  0.00    +0.013 A 
BRANCH  18  19
ATOM     19  C   UNL     1      -6.207  -0.222 -19.065  0.00  0.00    +0.119 C 
BRANCH  19  20
ATOM     20  N   UNL     1      -7.256  -0.756 -19.984  0.00  0.00    -0.302 NA
ATOM     21  C   UNL     1      -6.658  -1.299 -21.285  0.00  0.00    +0.066 C 
ATOM     22  C   UNL     1      -7.768  -1.875 -22.224  0.00  0.00    -0.064 C 
ATOM     23  N   UNL     1      -8.800  -0.785 -22.516  0.00  0.00    +0.379 N 
ATOM     24  C   UNL     1      -9.813  -1.306 -23.446  0.00  0.00    -0.096 C 
ATOM     25  H   UNL     1      -8.272   0.053 -23.027  0.00  0.00    -0.082 HD
ATOM     26  C   UNL     1      -9.398  -0.238 -21.228  0.00  0.00    -0.064 C 
ATOM     27  C   UNL     1      -8.285   0.305 -20.289  0.00  0.00    +0.066 C 
ENDBRANCH  19  20
ENDBRANCH  18  19
ENDBRANCH  14  15
ENDBRANCH  12  13
TORSDOF 6
ENDMDL
MODEL 3
REMARK VINA RESULT:      -8.1      3.064      4.808
REMARK  Name = C:\Users\Docking\Desktop\test protocol\1iep_ligandH.pdb
REMARK  8 active torsions:
REMARK  status: ('A' for Active; 'I' for Inactive)
REMARK    1  A    between atoms: _5  and  _11
REMARK    2  A    between atoms: _19  and  _21
REMARK    3  A    between atoms: _22  and  _66
REMARK    4  A    between atoms: _27  and  _30
REMARK    5  A    between atoms: _32  and  _33
REMARK    6  A    between atoms: _38  and  _43
REMARK    7  A    between atoms: _43  and  _46
REMARK    8  A    between atoms: _53  and  _55
REMARK                            x       y       z     vdW  Elec       q    Type
REMARK                         _______ _______ _______ _____ _____    ______ ____
ROOT
ATOM     10  C   UNL     1      -4.640  -2.237 -18.006  0.00  0.00    +0.038 A 
ATOM     11  C   UNL     1      -4.558  -3.381 -17.171  0.00  0.00    +0.047 A 
ATOM     12  C   UNL     1      -5.540  -3.621 -16.124  0.00  0.00    +0.035 A 
ATOM     32  C   UNL     1      -6.593  -2.675 -15.957  0.00  0.00    +0.024 A 
ATOM     33  C   UNL     1      -6.690  -1.506 -16.796  0.00  0.00    +0.007 A 
ATOM     34  C   UNL     1      -5.724  -1.264 -17.828  0.00  0.00    -0.029 A 
ATOM     35  C   UNL     1      -5.874   0.010 -18.693  0.00  0.00    +0.045 C 
ENDROOT
BRANCH  10   9
ATOM      4  C   UNL     1      -3.151  -2.460 -22.563  0.00  0.00    +0.077 A 
ATOM      5  C   UNL     1      -4.401  -3.007 -23.007  0.00  0.00    +0.048 A 
ATOM      6  C   UNL     1      -5.399  -3.222 -22.029  0.00  0.00    +0.116 A 
ATOM      7  N   UNL     1      -5.153  -2.910 -20.710  0.00  0.00    -0.223 NA
ATOM      8  C   UNL     1      -3.936  -2.386 -20.315  0.00  0.00    +0.220 A 
ATOM      9  N   UNL     1      -3.670  -2.057 -18.995  0.00  0.00    -0.283 N 
ATOM     36  H   UNL     1      -2.757  -1.680 -18.743  0.00  0.00    +0.155 HD
ATOM     37  N   UNL     1      -2.967  -2.172 -21.229  0.00  0.00    -0.214 NA
BRANCH   4   3
ATOM      1  C   UNL     1      -0.433  -0.598 -24.671  0.00  0.00    +0.020 A 
ATOM      2  C   UNL     1      -1.550  -0.821 -23.783  0.00  0.00    +0.013 A 
ATOM      3  C   UNL     1      -2.000  -2.173 -23.477  0.00  0.00    +0.019 A 
ATOM     38  C   UNL     1      -1.293  -3.286 -24.091  0.00  0.00    +0.120 A 
ATOM     39  N   UNL     1      -0.221  -3.041 -24.944  0.00  0.00    -0.263 NA
ATOM     40  C   UNL     1       0.220  -1.744 -25.247  0.00  0.00    +0.111 A 
ENDBRANCH   4   3
ENDBRANCH  10   9
BRANCH  12  13
ATOM     13  N   UNL     1      -5.504  -4.760 -15.242  0.00  0.00    -0.281 N 
ATOM     14  C   UNL     1      -6.343  -5.862 -15.239  0.00  0.00    +0.248 C 
ATOM     30  O   UNL     1      -7.391  -5.935 -15.864  0.00  0.00    -0.270 OA
ATOM     31  H   UNL     1      -4.771  -4.753 -14.532  0.00  0.00    +0.155 HD
BRANCH  14  15
ATOM     15  C   UNL     1      -5.972  -7.050 -14.412  0.00  0.00    +0.037 A 
ATOM     16  C   UNL     1      -5.725  -6.927 -12.973  0.00  0.00    +0.013 A 
ATOM     17  C   UNL     1      -5.351  -8.086 -12.201  0.00  0.00    +0.005 A 
ATOM     18  C   UNL     1      -5.224  -9.380 -12.868  0.00  0.00    -0.033 A 
ATOM     28  C   UNL     1      -5.481  -9.475 -14.296  0.00  0.00    +0.005 A 
ATOM     29  C   UNL     1      -5.846  -8.341 -15.055  0.00  0.00    +0.013 A 
BRANCH  18  19
ATOM     19  C   UNL     1      -4.810 -10.665 -12.128  0.00  0.00    +0.119 C 
BRANCH  19  20
ATOM     20  N   UNL     1      -3.363 -11.034 -12.155  0.00  0.00    -0.302 NA
ATOM     21  C   UNL     1      -2.476  -9.849 -12.546  0.00  0.00    +0.066 C 
ATOM     22  C   UNL     1      -0.964 -10.246 -12.548  0.00  0.00    -0.064 C 
ATOM     23  N   UNL     1      -0.749 -11.422 -13.502  0.00  0.00    +0.379 N 
ATOM     24  C   UNL     1       0.681 -11.761 -13.549  0.00  0.00    -0.096 C 
ATOM     25  H   UNL     1      -1.052 -11.090 -14.522  0.00  0.00    -0.082 HD
ATOM     26  C   UNL     1      -1.630 -12.604 -13.121  0.00  0.00    -0.064 C 
ATOM     27  C   UNL     1      -3.128 -12.191 -13.094  0.00  0.00    +0.066 C 
ENDBRANCH  19  20
ENDBRANCH  18  19
ENDBRANCH  14  15
ENDBRANCH  12  13
TORSDOF 6
ENDMDL
MODEL 4
REMARK VINA RESULT:      -8.1      3.315      6.812
REMARK  Name = C:\Users\Docking\Desktop\test protocol\1iep_ligandH.pdb
REMARK  8 active torsions:
REMARK  status: ('A' for Active; 'I' for Inactive)
REMARK    1  A    between atoms: _5  and  _11
REMARK    2  A    between atoms: _19  and  _21
REMARK    3  A    between atoms: _22  and  _66
REMARK    4  A    between atoms: _27  and  _30
REMARK    5  A    between atoms: _32  and  _33
REMARK    6  A    between atoms: _38  and  _43
REMARK    7  A    between atoms: _43  and  _46
REMARK    8  A    between atoms: _53  and  _55
REMARK                            x       y       z     vdW  Elec       q    Type
REMARK                         _______ _______ _______ _____ _____    ______ ____
ROOT
ATOM     10  C   UNL     1      -0.307  -5.946 -13.162  0.00  0.00    +0.038 A 
ATOM     11  C   UNL     1      -0.374  -7.306 -13.558  0.00  0.00    +0.047 A 
ATOM     12  C   UNL     1       0.138  -8.365 -12.701  0.00  0.00    +0.035 A 
ATOM     32  C   UNL     1       0.708  -8.002 -11.447  0.00  0.00    +0.024 A 
ATOM     33  C   UNL     1       0.785  -6.624 -11.029  0.00  0.00    +0.007 A 
ATOM     34  C   UNL     1       0.285  -5.575 -11.871  0.00  0.00    -0.029 A 
ATOM     35  C   UNL     1       0.400  -4.115 -11.375  0.00  0.00    +0.045 C 
ENDROOT
BRANCH  10   9
ATOM      4  C   UNL     1      -3.869  -3.992 -15.718  0.00  0.00    +0.077 A 
ATOM      5  C   UNL     1      -4.793  -5.016 -15.324  0.00  0.00    +0.048 A 
ATOM      6  C   UNL     1      -4.309  -6.032 -14.469  0.00  0.00    +0.116 A 
ATOM      7  N   UNL     1      -2.998  -6.014 -14.045  0.00  0.00    -0.223 NA
ATOM      8  C   UNL     1      -2.133  -5.012 -14.445  0.00  0.00    +0.220 A 
ATOM      9  N   UNL     1      -0.813  -4.970 -14.024  0.00  0.00    -0.283 N 
ATOM     36  H   UNL     1      -0.205  -4.218 -14.347  0.00  0.00    +0.155 HD
ATOM     37  N   UNL     1      -2.570  -4.032 -15.262  0.00  0.00    -0.214 NA
BRANCH   4   3
ATOM      1  C   UNL     1      -5.839  -1.112 -17.486  0.00  0.00    +0.020 A 
ATOM      2  C   UNL     1      -5.541  -2.213 -16.599  0.00  0.00    +0.013 A 
ATOM      3  C   UNL     1      -4.230  -2.849 -16.615  0.00  0.00    +0.019 A 
ATOM     38  C   UNL     1      -3.234  -2.343 -17.547  0.00  0.00    +0.120 A 
ATOM     39  N   UNL     1      -3.550  -1.282 -18.391  0.00  0.00    -0.263 NA
ATOM     40  C   UNL     1      -4.809  -0.663 -18.385  0.00  0.00    +0.111 A 
ENDBRANCH   4   3
ENDBRANCH  10   9
BRANCH  12  13
ATOM     13  N   UNL     1       0.104  -9.763 -13.054  0.00  0.00    -0.281 N 
ATOM     14  C   UNL     1      -0.832 -10.713 -12.680  0.00  0.00    +0.248 C 
ATOM     30  O   UNL     1      -1.671 -10.550 -11.807  0.00  0.00    -0.270 OA
ATOM     31  H   UNL     1       0.863 -10.092 -13.650  0.00  0.00    +0.155 HD
BRANCH  14  15
ATOM     15  C   UNL     1      -0.826 -12.041 -13.366  0.00  0.00    +0.037 A 
ATOM     16  C   UNL     1      -0.627 -13.283 -12.616  0.00  0.00    +0.013 A 
ATOM     17  C   UNL     1      -0.608 -14.549 -13.304  0.00  0.00    +0.005 A 
ATOM     18  C   UNL     1      -0.792 -14.579 -14.753  0.00  0.00    -0.033 A 
ATOM     28  C   UNL     1      -0.993 -13.332 -15.472  0.00  0.00    +0.005 A 
ATOM     29  C   UNL     1      -1.011 -12.089 -14.801  0.00  0.00    +0.013 A 
BRANCH  18  19
ATOM     19  C   UNL     1      -0.766 -15.883 -15.573  0.00  0.00    +0.119 C 
BRANCH  19  20
ATOM     20  N   UNL     1      -1.246 -15.812 -16.985  0.00  0.00    -0.302 NA
ATOM     21  C   UNL     1      -2.617 -16.471 -17.159  0.00  0.00    +0.066 C 
ATOM     22  C   UNL     1      -3.115 -16.369 -18.638  0.00  0.00    -0.064 C 
ATOM     23  N   UNL     1      -2.083 -17.012 -19.566  0.00  0.00    +0.379 N 
ATOM     24  C   UNL     1      -2.574 -16.969 -20.951  0.00  0.00    -0.096 C 
ATOM     25  H   UNL     1      -1.987 -18.083 -19.274  0.00  0.00    -0.082 HD
ATOM     26  C   UNL     1      -0.716 -16.364 -19.397  0.00  0.00    -0.064 C 
ATOM     27  C   UNL     1      -0.244 -16.446 -17.919  0.00  0.00    +0.066 C 
ENDBRANCH  19  20
ENDBRANCH  18  19
ENDBRANCH  14  15
ENDBRANCH  12  13
TORSDOF 6
ENDMDL
MODEL 5
REMARK VINA RESULT:      -8.0     17.730     20.903
REMARK  Name = C:\Users\Docking\Desktop\test protocol\1iep_ligandH.pdb
REMARK  8 active torsions:
REMARK  status: ('A' for Active; 'I' for Inactive)
REMARK    1  A    between atoms: _5  and  _11
REMARK    2  A    between atoms: _19  and  _21
REMARK    3  A    between atoms: _22  and  _66
REMARK    4  A    between atoms: _27  and  _30
REMARK    5  A    between atoms: _32  and  _33
REMARK    6  A    between atoms: _38  and  _43
REMARK    7  A    between atoms: _43  and  _46
REMARK    8  A    between atoms: _53  and  _55
REMARK                            x       y       z     vdW  Elec       q    Type
REMARK                         _______ _______ _______ _____ _____    ______ ____
ROOT
ATOM     10  C   UNL     1       3.402  10.302 -10.821  0.00  0.00    +0.038 A 
ATOM     11  C   UNL     1       3.703  10.725 -12.141  0.00  0.00    +0.047 A 
ATOM     12  C   UNL     1       5.055  11.107 -12.518  0.00  0.00    +0.035 A 
ATOM     32  C   UNL     1       6.077  11.043 -11.527  0.00  0.00    +0.024 A 
ATOM     33  C   UNL     1       5.788  10.616 -10.180  0.00  0.00    +0.007 A 
ATOM     34  C   UNL     1       4.456  10.240  -9.801  0.00  0.00    -0.029 A 
ATOM     35  C   UNL     1       4.203   9.796  -8.342  0.00  0.00    +0.045 C 
ENDROOT
BRANCH  10   9
ATOM      4  C   UNL     1      -1.128  11.413  -9.689  0.00  0.00    +0.077 A 
ATOM      5  C   UNL     1      -0.844  12.820  -9.683  0.00  0.00    +0.048 A 
ATOM      6  C   UNL     1       0.482  13.215  -9.969  0.00  0.00    +0.116 A 
ATOM      7  N   UNL     1       1.444  12.266 -10.240  0.00  0.00    -0.223 NA
ATOM      8  C   UNL     1       1.137  10.918 -10.236  0.00  0.00    +0.220 A 
ATOM      9  N   UNL     1       2.087   9.947 -10.513  0.00  0.00    -0.283 N 
ATOM     36  H   UNL     1       1.822   8.962 -10.493  0.00  0.00    +0.155 HD
ATOM     37  N   UNL     1      -0.121  10.515  -9.964  0.00  0.00    -0.214 NA
BRANCH   4   3
ATOM      1  C   UNL     1      -4.486   9.435 -10.021  0.00  0.00    +0.020 A 
ATOM      2  C   UNL     1      -3.180   9.963 -10.341  0.00  0.00    +0.013 A 
ATOM      3  C   UNL     1      -2.482  10.839  -9.408  0.00  0.00    +0.019 A 
ATOM     38  C   UNL     1      -3.138  11.163  -8.150  0.00  0.00    +0.120 A 
ATOM     39  N   UNL     1      -4.397  10.641  -7.870  0.00  0.00    -0.263 NA
ATOM     40  C   UNL     1      -5.079   9.798  -8.761  0.00  0.00    +0.111 A 
ENDBRANCH   4   3
ENDBRANCH  10   9
BRANCH  12  13
ATOM     13  N   UNL     1       5.419  11.553 -13.840  0.00  0.00    -0.281 N 
ATOM     14  C   UNL     1       5.786  10.779 -14.929  0.00  0.00    +0.248 C 
ATOM     30  O   UNL     1       6.064   9.591 -14.870  0.00  0.00    -0.270 OA
ATOM     31  H   UNL     1       5.405  12.562 -13.992  0.00  0.00    +0.155 HD
BRANCH  14  15
ATOM     15  C   UNL     1       5.869  11.422 -16.276  0.00  0.00    +0.037 A 
ATOM     16  C   UNL     1       5.745  12.873 -16.435  0.00  0.00    +0.013 A 
ATOM     17  C   UNL     1       5.812  13.465 -17.748  0.00  0.00    +0.005 A 
ATOM     18  C   UNL     1       6.006  12.605 -18.912  0.00  0.00    -0.033 A 
ATOM     28  C   UNL     1       6.131  11.169 -18.726  0.00  0.00    +0.005 A 
ATOM     29  C   UNL     1       6.065  10.585 -17.441  0.00  0.00    +0.013 A 
BRANCH  18  19
ATOM     19  C   UNL     1       6.069  13.148 -20.352  0.00  0.00    +0.119 C 
BRANCH  19  20
ATOM     20  N   UNL     1       7.062  12.524 -21.276  0.00  0.00    -0.302 NA
ATOM     21  C   UNL     1       8.500  12.915 -20.923  0.00  0.00    +0.066 C 
ATOM     22  C   UNL     1       9.527  12.235 -21.886  0.00  0.00    -0.064 C 
ATOM     23  N   UNL     1       9.201  12.619 -23.330  0.00  0.00    +0.379 N 
ATOM     24  C   UNL     1      10.199  12.029 -24.232  0.00  0.00    -0.096 C 
ATOM     25  H   UNL     1       9.284  13.728 -23.411  0.00  0.00    -0.082 HD
ATOM     26  C   UNL     1       7.772  12.237 -23.688  0.00  0.00    -0.064 C 
ATOM     27  C   UNL     1       6.761  12.894 -22.708  0.00  0.00    +0.066 C 
ENDBRANCH  19  20
ENDBRANCH  18  19
ENDBRANCH  14  15
ENDBRANCH  12  13
TORSDOF 6
ENDMDL
