MODEL 1
REMARK VINA RESULT:      -8.5      0.000      0.000
REMARK  Name = C:\Users\Docking\Desktop\test protocol\1iep_ligandH.pdb
REMARK  8 active torsions:
REMARK  status: ('A' for Active; 'I' for Inactive)
REMARK    1  A    between atoms: _5  and  _11
REMARK    2  A    between atoms: _19  and  _21
REMARK    3  A    between atoms: _22  and  _66
REMARK    4  A    between atoms: _27  and  _30
REMARK    5  A    between atoms: _32  and  _33
REMARK    6  A    between atoms: _38  and  _43
REMARK    7  A    between atoms: _43  and  _46
REMARK    8  A    between atoms: _53  and  _55
REMARK                            x       y       z     vdW  Elec       q    Type
REMARK                         _______ _______ _______ _____ _____    ______ ____
ROOT
ATOM     10  C   UNL     1      13.842   9.068  10.235  0.00  0.00    +0.038 A 
ATOM     11  C   UNL     1      14.543   9.701  11.293  0.00  0.00    +0.047 A 
ATOM     12  C   UNL     1      14.935  11.099  11.205  0.00  0.00    +0.035 A 
ATOM     32  C   UNL     1      14.595  11.823  10.025  0.00  0.00    +0.024 A 
ATOM     33  C   UNL     1      13.884  11.195   8.940  0.00  0.00    +0.007 A 
ATOM     34  C   UNL     1      13.496   9.816   9.020  0.00  0.00    -0.029 A 
ATOM     35  C   UNL     1      12.740   9.192   7.823  0.00  0.00    +0.045 C 
ENDROOT
BRANCH  10   9
ATOM      4  C   UNL     1      14.699   4.384   9.633  0.00  0.00    +0.077 A 
ATOM      5  C   UNL     1      15.942   4.637   8.963  0.00  0.00    +0.048 A 
ATOM      6  C   UNL     1      16.321   5.987   8.787  0.00  0.00    +0.116 A 
ATOM      7  N   UNL     1      15.510   7.000   9.251  0.00  0.00    -0.223 NA
ATOM      8  C   UNL     1      14.317   6.721   9.891  0.00  0.00    +0.220 A 
ATOM      9  N   UNL     1      13.489   7.724  10.373  0.00  0.00    -0.283 N 
ATOM     36  H   UNL     1      12.613   7.477  10.833  0.00  0.00    +0.155 HD
ATOM     37  N   UNL     1      13.932   5.440  10.070  0.00  0.00    -0.214 NA
BRANCH   4   3
ATOM      1  C   UNL     1      14.453   0.537  10.299  0.00  0.00    +0.020 A 
ATOM      2  C   UNL     1      15.021   1.841  10.044  0.00  0.00    +0.013 A 
ATOM      3  C   UNL     1      14.164   3.011   9.897  0.00  0.00    +0.019 A 
ATOM     38  C   UNL     1      12.725   2.826  10.015  0.00  0.00    +0.120 A 
ATOM     39  N   UNL     1      12.207   1.558  10.259  0.00  0.00    -0.263 NA
ATOM     40  C   UNL     1      13.022   0.425  10.401  0.00  0.00    +0.111 A 
ENDBRANCH   4   3
ENDBRANCH  10   9
BRANCH  12  13
ATOM     13  N   UNL     1      15.656  11.793  12.243  0.00  0.00    -0.281 N 
ATOM     14  C   UNL     1      15.135  12.507  13.310  0.00  0.00    +0.248 C 
ATOM     30  O   UNL     1      13.963  12.838  13.413  0.00  0.00    -0.270 OA
ATOM     31  H   UNL     1      16.673  11.753  12.185  0.00  0.00    +0.155 HD
BRANCH  14  15
ATOM     15  C   UNL     1      16.050  12.927  14.414  0.00  0.00    +0.037 A 
ATOM     16  C   UNL     1      16.059  12.226  15.701  0.00  0.00    +0.013 A 
ATOM     17  C   UNL     1      16.940  12.662  16.755  0.00  0.00    +0.005 A 
ATOM     18  C   UNL     1      17.822  13.805  16.526  0.00  0.00    -0.033 A 
ATOM     28  C   UNL     1      17.796  14.478  15.238  0.00  0.00    +0.005 A 
ATOM     29  C   UNL     1      16.933  14.054  14.202  0.00  0.00    +0.013 A 
BRANCH  18  19
ATOM     19  C   UNL     1      18.779  14.352  17.601  0.00  0.00    +0.119 C 
BRANCH  19  20
ATOM     20  N   UNL     1      18.166  14.908  18.844  0.00  0.00    -0.302 NA
ATOM     21  C   UNL     1      17.828  13.812  19.858  0.00  0.00    +0.066 C 
ATOM     22  C   UNL     1      17.208  14.413  21.161  0.00  0.00    -0.064 C 
ATOM     23  N   UNL     1      15.960  15.222  20.803  0.00  0.00    +0.379 N 
ATOM     24  C   UNL     1      15.342  15.741  22.032  0.00  0.00    -0.096 C 
ATOM     25  H   UNL     1      15.232  14.525  20.325  0.00  0.00    -0.082 HD
ATOM     26  C   UNL     1      16.286  16.312  19.792  0.00  0.00    -0.064 C 
ATOM     27  C   UNL     1      16.929  15.707  18.513  0.00  0.00    +0.066 C 
ENDBRANCH  19  20
ENDBRANCH  18  19
ENDBRANCH  14  15
ENDBRANCH  12  13
TORSDOF 6
ENDMDL
MODEL 2
REMARK VINA RESULT:      -8.5      6.794     11.841
REMARK  Name = C:\Users\Docking\Desktop\test protocol\1iep_ligandH.pdb
REMARK  8 active torsions:
REMARK  status: ('A' for Active; 'I' for Inactive)
REMARK    1  A    between atoms: _5  and  _11
REMARK    2  A    between atoms: _19  and  _21
REMARK    3  A    between atoms: _22  and  _66
REMARK    4  A    between atoms: _27  and  _30
REMARK    5  A    between atoms: _32  and  _33
REMARK    6  A    between atoms: _38  and  _43
REMARK    7  A    between atoms: _43  and  _46
REMARK    8  A    between atoms: _53  and  _55
REMARK                            x       y       z     vdW  Elec       q    Type
REMARK                         _______ _______ _______ _____ _____    ______ ____
ROOT
ATOM     10  C   UNL     1      14.316   5.012   9.931  0.00  0.00    +0.038 A 
ATOM     11  C   UNL     1      12.905   5.160   9.948  0.00  0.00    +0.047 A 
ATOM     12  C   UNL     1      12.028   4.002  10.020  0.00  0.00    +0.035 A 
ATOM     32  C   UNL     1      12.621   2.708  10.076  0.00  0.00    +0.024 A 
ATOM     33  C   UNL     1      14.053   2.539  10.059  0.00  0.00    +0.007 A 
ATOM     34  C   UNL     1      14.923   3.677   9.986  0.00  0.00    -0.029 A 
ATOM     35  C   UNL     1      16.451   3.437   9.964  0.00  0.00    +0.045 C 
ENDROOT
BRANCH  10   9
ATOM      4  C   UNL     1      15.933   8.908   7.640  0.00  0.00    +0.077 A 
ATOM      5  C   UNL     1      15.149   8.620   6.474  0.00  0.00    +0.048 A 
ATOM      6  C   UNL     1      14.348   7.456   6.501  0.00  0.00    +0.116 A 
ATOM      7  N   UNL     1      14.340   6.648   7.617  0.00  0.00    -0.223 NA
ATOM      8  C   UNL     1      15.109   6.953   8.725  0.00  0.00    +0.220 A 
ATOM      9  N   UNL     1      15.110   6.159   9.861  0.00  0.00    -0.283 N 
ATOM     36  H   UNL     1      15.698   6.414  10.654  0.00  0.00    +0.155 HD
ATOM     37  N   UNL     1      15.884   8.058   8.723  0.00  0.00    -0.214 NA
BRANCH   4   3
ATOM      1  C   UNL     1      17.683  12.137   8.986  0.00  0.00    +0.020 A 
ATOM      2  C   UNL     1      16.797  10.997   8.914  0.00  0.00    +0.013 A 
ATOM      3  C   UNL     1      16.827  10.102   7.765  0.00  0.00    +0.019 A 
ATOM     38  C   UNL     1      17.773  10.389   6.697  0.00  0.00    +0.120 A 
ATOM     39  N   UNL     1      18.612  11.495   6.792  0.00  0.00    -0.263 NA
ATOM     40  C   UNL     1      18.591  12.365   7.893  0.00  0.00    +0.111 A 
ENDBRANCH   4   3
ENDBRANCH  10   9
BRANCH  12  13
ATOM     13  N   UNL     1      10.589   4.090  10.032  0.00  0.00    -0.281 N 
ATOM     14  C   UNL     1       9.675   3.069  10.234  0.00  0.00    +0.248 C 
ATOM     30  O   UNL     1       9.954   1.880  10.223  0.00  0.00    -0.270 OA
ATOM     31  H   UNL     1      10.196   5.018   9.872  0.00  0.00    +0.155 HD
BRANCH  14  15
ATOM     15  C   UNL     1       8.241   3.420  10.468  0.00  0.00    +0.037 A 
ATOM     16  C   UNL     1       7.321   2.473  11.103  0.00  0.00    +0.013 A 
ATOM     17  C   UNL     1       5.938   2.830  11.302  0.00  0.00    +0.005 A 
ATOM     18  C   UNL     1       5.468   4.142  10.864  0.00  0.00    -0.033 A 
ATOM     28  C   UNL     1       6.403   5.064  10.241  0.00  0.00    +0.005 A 
ATOM     29  C   UNL     1       7.758   4.717  10.044  0.00  0.00    +0.013 A 
BRANCH  18  19
ATOM     19  C   UNL     1       4.005   4.599  11.016  0.00  0.00    +0.119 C 
BRANCH  19  20
ATOM     20  N   UNL     1       3.675   5.455  12.195  0.00  0.00    -0.302 NA
ATOM     21  C   UNL     1       4.067   6.918  11.970  0.00  0.00    +0.066 C 
ATOM     22  C   UNL     1       3.694   7.803  13.204  0.00  0.00    -0.064 C 
ATOM     23  N   UNL     1       4.377   7.245  14.453  0.00  0.00    +0.379 N 
ATOM     24  C   UNL     1       4.076   8.108  15.605  0.00  0.00    -0.096 C 
ATOM     25  H   UNL     1       5.478   7.282  14.282  0.00  0.00    -0.082 HD
ATOM     26  C   UNL     1       3.995   5.789  14.683  0.00  0.00    -0.064 C 
ATOM     27  C   UNL     1       4.343   4.924  13.439  0.00  0.00    +0.066 C 
ENDBRANCH  19  20
ENDBRANCH  18  19
ENDBRANCH  14  15
ENDBRANCH  12  13
TORSDOF 6
ENDMDL
MODEL 3
REMARK VINA RESULT:      -8.4      2.762      3.901
REMARK  Name = C:\Users\Docking\Desktop\test protocol\1iep_ligandH.pdb
REMARK  8 active torsions:
REMARK  status: ('A' for Active; 'I' for Inactive)
REMARK    1  A    between atoms: _5  and  _11
REMARK    2  A    between atoms: _19  and  _21
REMARK    3  A    between atoms: _22  and  _66
REMARK    4  A    between atoms: _27  and  _30
REMARK    5  A    between atoms: _32  and  _33
REMARK    6  A    between atoms: _38  and  _43
REMARK    7  A    between atoms: _43  and  _46
REMARK    8  A    between atoms: _53  and  _55
REMARK                            x       y       z     vdW  Elec       q    Type
REMARK                         _______ _______ _______ _____ _____    ______ ____
ROOT
ATOM     10  C   UNL     1      16.045   8.785   7.350  0.00  0.00    +0.038 A 
ATOM     11  C   UNL     1      15.700   9.498   8.526  0.00  0.00    +0.047 A 
ATOM     12  C   UNL     1      14.952  10.744   8.459  0.00  0.00    +0.035 A 
ATOM     32  C   UNL     1      14.569  11.234   7.176  0.00  0.00    +0.024 A 
ATOM     33  C   UNL     1      14.913  10.523   5.970  0.00  0.00    +0.007 A 
ATOM     34  C   UNL     1      15.652   9.294   6.030  0.00  0.00    -0.029 A 
ATOM     35  C   UNL     1      15.998   8.577   4.704  0.00  0.00    +0.045 C 
ENDROOT
BRANCH  10   9
ATOM      4  C   UNL     1      16.638   4.363   9.118  0.00  0.00    +0.077 A 
ATOM      5  C   UNL     1      15.427   4.442   9.883  0.00  0.00    +0.048 A 
ATOM      6  C   UNL     1      14.684   5.641   9.799  0.00  0.00    +0.116 A 
ATOM      7  N   UNL     1      15.128   6.677   9.006  0.00  0.00    -0.223 NA
ATOM      8  C   UNL     1      16.302   6.568   8.283  0.00  0.00    +0.220 A 
ATOM      9  N   UNL     1      16.764   7.594   7.473  0.00  0.00    -0.283 N 
ATOM     36  H   UNL     1      17.638   7.478   6.961  0.00  0.00    +0.155 HD
ATOM     37  N   UNL     1      17.030   5.434   8.347  0.00  0.00    -0.214 NA
BRANCH   4   3
ATOM      1  C   UNL     1      19.616   1.935   8.385  0.00  0.00    +0.020 A 
ATOM      2  C   UNL     1      18.791   3.121   8.369  0.00  0.00    +0.013 A 
ATOM      3  C   UNL     1      17.530   3.161   9.100  0.00  0.00    +0.019 A 
ATOM     38  C   UNL     1      17.131   1.975   9.843  0.00  0.00    +0.120 A 
ATOM     39  N   UNL     1      17.946   0.847   9.839  0.00  0.00    -0.263 NA
ATOM     40  C   UNL     1      19.160   0.796   9.138  0.00  0.00    +0.111 A 
ENDBRANCH   4   3
ENDBRANCH  10   9
BRANCH  12  13
ATOM     13  N   UNL     1      14.580  11.516   9.619  0.00  0.00    -0.281 N 
ATOM     14  C   UNL     1      13.493  11.326  10.455  0.00  0.00    +0.248 C 
ATOM     30  O   UNL     1      12.550  10.588  10.207  0.00  0.00    -0.270 OA
ATOM     31  H   UNL     1      15.193  12.298   9.851  0.00  0.00    +0.155 HD
BRANCH  14  15
ATOM     15  C   UNL     1      13.437  12.074  11.748  0.00  0.00    +0.037 A 
ATOM     16  C   UNL     1      12.180  12.641  12.244  0.00  0.00    +0.013 A 
ATOM     17  C   UNL     1      12.157  13.373  13.486  0.00  0.00    +0.005 A 
ATOM     18  C   UNL     1      13.396  13.540  14.241  0.00  0.00    -0.033 A 
ATOM     28  C   UNL     1      14.628  12.963  13.729  0.00  0.00    +0.005 A 
ATOM     29  C   UNL     1      14.654  12.246  12.512  0.00  0.00    +0.013 A 
BRANCH  18  19
ATOM     19  C   UNL     1      13.469  14.324  15.565  0.00  0.00    +0.119 C 
BRANCH  19  20
ATOM     20  N   UNL     1      14.566  13.965  16.513  0.00  0.00    -0.302 NA
ATOM     21  C   UNL     1      14.120  12.920  17.540  0.00  0.00    +0.066 C 
ATOM     22  C   UNL     1      15.286  12.540  18.509  0.00  0.00    -0.064 C 
ATOM     23  N   UNL     1      15.797  13.801  19.207  0.00  0.00    +0.379 N 
ATOM     24  C   UNL     1      16.855  13.438  20.162  0.00  0.00    -0.096 C 
ATOM     25  H   UNL     1      14.950  14.233  19.788  0.00  0.00    -0.082 HD
ATOM     26  C   UNL     1      16.241  14.846  18.193  0.00  0.00    -0.064 C 
ATOM     27  C   UNL     1      15.084  15.195  17.216  0.00  0.00    +0.066 C 
ENDBRANCH  19  20
ENDBRANCH  18  19
ENDBRANCH  14  15
ENDBRANCH  12  13
TORSDOF 6
ENDMDL
MODEL 4
REMARK VINA RESULT:      -8.3     22.478     24.689
REMARK  Name = C:\Users\Docking\Desktop\test protocol\1iep_ligandH.pdb
REMARK  8 active torsions:
REMARK  status: ('A' for Active; 'I' for Inactive)
REMARK    1  A    between atoms: _5  and  _11
REMARK    2  A    between atoms: _19  and  _21
REMARK    3  A    between atoms: _22  and  _66
REMARK    4  A    between atoms: _27  and  _30
REMARK    5  A    between atoms: _32  and  _33
REMARK    6  A    between atoms: _38  and  _43
REMARK    7  A    between atoms: _43  and  _46
REMARK    8  A    between atoms: _53  and  _55
REMARK                            x       y       z     vdW  Elec       q    Type
REMARK                         _______ _______ _______ _____ _____    ______ ____
ROOT
ATOM     10  C   UNL     1      23.245  -4.096  -2.176  0.00  0.00    +0.038 A 
ATOM     11  C   UNL     1      21.837  -4.205  -2.306  0.00  0.00    +0.047 A 
ATOM     12  C   UNL     1      21.123  -3.517  -3.370  0.00  0.00    +0.035 A 
ATOM     32  C   UNL     1      21.876  -2.727  -4.287  0.00  0.00    +0.024 A 
ATOM     33  C   UNL     1      23.308  -2.603  -4.170  0.00  0.00    +0.007 A 
ATOM     34  C   UNL     1      24.017  -3.278  -3.120  0.00  0.00    -0.029 A 
ATOM     35  C   UNL     1      25.552  -3.105  -3.039  0.00  0.00    +0.045 C 
ENDROOT
BRANCH  10   9
ATOM      4  C   UNL     1      25.740  -7.819  -0.458  0.00  0.00    +0.077 A 
ATOM      5  C   UNL     1      25.758  -8.472  -1.735  0.00  0.00    +0.048 A 
ATOM      6  C   UNL     1      25.108  -7.820  -2.806  0.00  0.00    +0.116 A 
ATOM      7  N   UNL     1      24.489  -6.605  -2.605  0.00  0.00    -0.223 NA
ATOM      8  C   UNL     1      24.489  -6.003  -1.360  0.00  0.00    +0.220 A 
ATOM      9  N   UNL     1      23.880  -4.778  -1.136  0.00  0.00    -0.283 N 
ATOM     36  H   UNL     1      23.895  -4.371  -0.201  0.00  0.00    +0.155 HD
ATOM     37  N   UNL     1      25.101  -6.606  -0.320  0.00  0.00    -0.214 NA
BRANCH   4   3
ATOM      1  C   UNL     1      27.162 -10.301   2.210  0.00  0.00    +0.020 A 
ATOM      2  C   UNL     1      26.530  -9.811   1.007  0.00  0.00    +0.013 A 
ATOM      3  C   UNL     1      26.386  -8.380   0.771  0.00  0.00    +0.019 A 
ATOM     38  C   UNL     1      26.897  -7.464   1.780  0.00  0.00    +0.120 A 
ATOM     39  N   UNL     1      27.500  -7.965   2.929  0.00  0.00    -0.263 NA
ATOM     40  C   UNL     1      27.642  -9.341   3.168  0.00  0.00    +0.111 A 
ENDBRANCH   4   3
ENDBRANCH  10   9
BRANCH  12  13
ATOM     13  N   UNL     1      19.694  -3.585  -3.546  0.00  0.00    -0.281 N 
ATOM     14  C   UNL     1      18.903  -4.716  -3.665  0.00  0.00    +0.248 C 
ATOM     30  O   UNL     1      19.334  -5.844  -3.852  0.00  0.00    -0.270 OA
ATOM     31  H   UNL     1      19.206  -2.690  -3.589  0.00  0.00    +0.155 HD
BRANCH  14  15
ATOM     15  C   UNL     1      17.418  -4.571  -3.577  0.00  0.00    +0.037 A 
ATOM     16  C   UNL     1      16.724  -3.453  -4.222  0.00  0.00    +0.013 A 
ATOM     17  C   UNL     1      15.293  -3.328  -4.108  0.00  0.00    +0.005 A 
ATOM     18  C   UNL     1      14.545  -4.325  -3.345  0.00  0.00    -0.033 A 
ATOM     28  C   UNL     1      15.258  -5.426  -2.720  0.00  0.00    +0.005 A 
ATOM     29  C   UNL     1      16.661  -5.552  -2.829  0.00  0.00    +0.013 A 
BRANCH  18  19
ATOM     19  C   UNL     1      13.018  -4.258  -3.153  0.00  0.00    +0.119 C 
BRANCH  19  20
ATOM     20  N   UNL     1      12.165  -4.678  -4.305  0.00  0.00    -0.302 NA
ATOM     21  C   UNL     1      12.873  -5.695  -5.203  0.00  0.00    +0.066 C 
ATOM     22  C   UNL     1      11.958  -6.140  -6.390  0.00  0.00    -0.064 C 
ATOM     23  N   UNL     1      11.536  -4.909  -7.194  0.00  0.00    +0.379 N 
ATOM     24  C   UNL     1      10.723  -5.329  -8.345  0.00  0.00    -0.096 C 
ATOM     25  H   UNL     1      12.462  -4.431  -7.591  0.00  0.00    -0.082 HD
ATOM     26  C   UNL     1      10.834  -3.890  -6.308  0.00  0.00    -0.064 C 
ATOM     27  C   UNL     1      11.741  -3.478  -5.115  0.00  0.00    +0.066 C 
ENDBRANCH  19  20
ENDBRANCH  18  19
ENDBRANCH  14  15
ENDBRANCH  12  13
TORSDOF 6
ENDMDL
MODEL 5
REMARK VINA RESULT:      -8.3      5.614     11.352
REMARK  Name = C:\Users\Docking\Desktop\test protocol\1iep_ligandH.pdb
REMARK  8 active torsions:
REMARK  status: ('A' for Active; 'I' for Inactive)
REMARK    1  A    between atoms: _5  and  _11
REMARK    2  A    between atoms: _19  and  _21
REMARK    3  A    between atoms: _22  and  _66
REMARK    4  A    between atoms: _27  and  _30
REMARK    5  A    between atoms: _32  and  _33
REMARK    6  A    between atoms: _38  and  _43
REMARK    7  A    between atoms: _43  and  _46
REMARK    8  A    between atoms: _53  and  _55
REMARK                            x       y       z     vdW  Elec       q    Type
REMARK                         _______ _______ _______ _____ _____    ______ ____
ROOT
ATOM     10  C   UNL     1      13.987  10.218  10.306  0.00  0.00    +0.038 A 
ATOM     11  C   UNL     1      14.425   8.877  10.453  0.00  0.00    +0.047 A 
ATOM     12  C   UNL     1      13.496   7.764  10.335  0.00  0.00    +0.035 A 
ATOM     32  C   UNL     1      12.127   8.053  10.063  0.00  0.00    +0.024 A 
ATOM     33  C   UNL     1      11.664   9.410   9.912  0.00  0.00    +0.007 A 
ATOM     34  C   UNL     1      12.576  10.512  10.030  0.00  0.00    -0.029 A 
ATOM     35  C   UNL     1      12.023  11.947   9.865  0.00  0.00    +0.045 C 
ENDROOT
BRANCH  10   9
ATOM      4  C   UNL     1      17.904  12.576   8.846  0.00  0.00    +0.077 A 
ATOM      5  C   UNL     1      18.121  11.664   7.760  0.00  0.00    +0.048 A 
ATOM      6  C   UNL     1      17.206  10.597   7.617  0.00  0.00    +0.116 A 
ATOM      7  N   UNL     1      16.155  10.462   8.499  0.00  0.00    -0.223 NA
ATOM      8  C   UNL     1      15.976  11.359   9.536  0.00  0.00    +0.220 A 
ATOM      9  N   UNL     1      14.922  11.248  10.430  0.00  0.00    -0.283 N 
ATOM     36  H   UNL     1      14.829  11.925  11.186  0.00  0.00    +0.155 HD
ATOM     37  N   UNL     1      16.837  12.386   9.695  0.00  0.00    -0.214 NA
BRANCH   4   3
ATOM      1  C   UNL     1      20.200  15.173  10.657  0.00  0.00    +0.020 A 
ATOM      2  C   UNL     1      19.358  14.020  10.439  0.00  0.00    +0.013 A 
ATOM      3  C   UNL     1      18.783  13.755   9.126  0.00  0.00    +0.019 A 
ATOM     38  C   UNL     1      19.083  14.684   8.047  0.00  0.00    +0.120 A 
ATOM     39  N   UNL     1      19.897  15.786   8.287  0.00  0.00    -0.263 NA
ATOM     40  C   UNL     1      20.454  16.052   9.546  0.00  0.00    +0.111 A 
ENDBRANCH   4   3
ENDBRANCH  10   9
BRANCH  12  13
ATOM     13  N   UNL     1      13.882   6.383  10.482  0.00  0.00    -0.281 N 
ATOM     14  C   UNL     1      14.158   5.464   9.483  0.00  0.00    +0.248 C 
ATOM     30  O   UNL     1      13.906   5.634   8.299  0.00  0.00    -0.270 OA
ATOM     31  H   UNL     1      13.961   6.040  11.440  0.00  0.00    +0.155 HD
BRANCH  14  15
ATOM     15  C   UNL     1      14.792   4.163   9.854  0.00  0.00    +0.037 A 
ATOM     16  C   UNL     1      16.195   4.092  10.269  0.00  0.00    +0.013 A 
ATOM     17  C   UNL     1      16.787   2.821  10.605  0.00  0.00    +0.005 A 
ATOM     18  C   UNL     1      15.974   1.610  10.528  0.00  0.00    -0.033 A 
ATOM     28  C   UNL     1      14.583   1.709  10.118  0.00  0.00    +0.005 A 
ATOM     29  C   UNL     1      14.000   2.953   9.787  0.00  0.00    +0.013 A 
BRANCH  18  19
ATOM     19  C   UNL     1      16.528   0.209  10.848  0.00  0.00    +0.119 C 
BRANCH  19  20
ATOM     20  N   UNL     1      16.784  -0.114  12.283  0.00  0.00    -0.302 NA
ATOM     21  C   UNL     1      15.768   0.555  13.212  0.00  0.00    +0.066 C 
ATOM     22  C   UNL     1      16.037   0.188  14.708  0.00  0.00    -0.064 C 
ATOM     23  N   UNL     1      17.463   0.596  15.082  0.00  0.00    +0.379 N 
ATOM     24  C   UNL     1      17.699   0.306  16.504  0.00  0.00    -0.096 C 
ATOM     25  H   UNL     1      17.546   1.699  14.943  0.00  0.00    -0.082 HD
ATOM     26  C   UNL     1      18.480  -0.062  14.161  0.00  0.00    -0.064 C 
ATOM     27  C   UNL     1      18.186   0.284  12.675  0.00  0.00    +0.066 C 
ENDBRANCH  19  20
ENDBRANCH  18  19
ENDBRANCH  14  15
ENDBRANCH  12  13
TORSDOF 6
ENDMDL
