MODEL 1
REMARK VINA RESULT:     -10.4      0.000      0.000
REMARK  Name = C:\Users\Docking\Desktop\test protocol\1iep_ligandH.pdb
REMARK  8 active torsions:
REMARK  status: ('A' for Active; 'I' for Inactive)
REMARK    1  A    between atoms: _5  and  _11
REMARK    2  A    between atoms: _19  and  _21
REMARK    3  A    between atoms: _22  and  _66
REMARK    4  A    between atoms: _27  and  _30
REMARK    5  A    between atoms: _32  and  _33
REMARK    6  A    between atoms: _38  and  _43
REMARK    7  A    between atoms: _43  and  _46
REMARK    8  A    between atoms: _53  and  _55
REMARK                            x       y       z     vdW  Elec       q    Type
REMARK                         _______ _______ _______ _____ _____    ______ ____
ROOT
ATOM     10  C   UNL     1     -14.905  43.756  -8.768  0.00  0.00    +0.038 A 
ATOM     11  C   UNL     1     -15.464  42.617  -8.135  0.00  0.00    +0.047 A 
ATOM     12  C   UNL     1     -15.697  42.593  -6.699  0.00  0.00    +0.035 A 
ATOM     32  C   UNL     1     -15.353  43.749  -5.939  0.00  0.00    +0.024 A 
ATOM     33  C   UNL     1     -14.783  44.916  -6.567  0.00  0.00    +0.007 A 
ATOM     34  C   UNL     1     -14.548  44.944  -7.983  0.00  0.00    -0.029 A 
ATOM     35  C   UNL     1     -13.929  46.219  -8.601  0.00  0.00    +0.045 C 
ENDROOT
BRANCH  10   9
ATOM      4  C   UNL     1     -16.337  44.573 -13.276  0.00  0.00    +0.077 A 
ATOM      5  C   UNL     1     -17.607  45.081 -12.844  0.00  0.00    +0.048 A 
ATOM      6  C   UNL     1     -17.855  45.108 -11.453  0.00  0.00    +0.116 A 
ATOM      7  N   UNL     1     -16.897  44.659 -10.570  0.00  0.00    -0.223 NA
ATOM      8  C   UNL     1     -15.683  44.174 -11.021  0.00  0.00    +0.220 A 
ATOM      9  N   UNL     1     -14.703  43.725 -10.150  0.00  0.00    -0.283 N 
ATOM     36  H   UNL     1     -13.823  43.367 -10.522  0.00  0.00    +0.155 HD
ATOM     37  N   UNL     1     -15.423  44.136 -12.344  0.00  0.00    -0.214 NA
BRANCH   4   3
ATOM      1  C   UNL     1     -16.424  44.473 -17.186  0.00  0.00    +0.020 A 
ATOM      2  C   UNL     1     -16.874  44.565 -15.816  0.00  0.00    +0.013 A 
ATOM      3  C   UNL     1     -15.925  44.483 -14.713  0.00  0.00    +0.019 A 
ATOM     38  C   UNL     1     -14.516  44.306 -15.033  0.00  0.00    +0.120 A 
ATOM     39  N   UNL     1     -14.113  44.219 -16.361  0.00  0.00    -0.263 NA
ATOM     40  C   UNL     1     -15.017  44.296 -17.431  0.00  0.00    +0.111 A 
ENDBRANCH   4   3
ENDBRANCH  10   9
BRANCH  12  13
ATOM     13  N   UNL     1     -16.254  41.462  -5.999  0.00  0.00    -0.281 N 
ATOM     14  C   UNL     1     -17.338  40.683  -6.367  0.00  0.00    +0.248 C 
ATOM     30  O   UNL     1     -18.131  40.974  -7.250  0.00  0.00    -0.270 OA
ATOM     31  H   UNL     1     -15.792  41.205  -5.127  0.00  0.00    +0.155 HD
BRANCH  14  15
ATOM     15  C   UNL     1     -17.587  39.402  -5.638  0.00  0.00    +0.037 A 
ATOM     16  C   UNL     1     -18.584  38.438  -6.113  0.00  0.00    +0.013 A 
ATOM     17  C   UNL     1     -18.816  37.218  -5.381  0.00  0.00    +0.005 A 
ATOM     18  C   UNL     1     -18.048  36.954  -4.167  0.00  0.00    -0.033 A 
ATOM     28  C   UNL     1     -17.062  37.925  -3.721  0.00  0.00    +0.005 A 
ATOM     29  C   UNL     1     -16.833  39.122  -4.435  0.00  0.00    +0.013 A 
BRANCH  18  19
ATOM     19  C   UNL     1     -18.245  35.688  -3.312  0.00  0.00    +0.119 C 
BRANCH  19  20
ATOM     20  N   UNL     1     -17.816  34.388  -3.907  0.00  0.00    -0.302 NA
ATOM     21  C   UNL     1     -18.986  33.413  -4.061  0.00  0.00    +0.066 C 
ATOM     22  C   UNL     1     -18.524  32.066  -4.706  0.00  0.00    -0.064 C 
ATOM     23  N   UNL     1     -17.415  31.449  -3.852  0.00  0.00    +0.379 N 
ATOM     24  C   UNL     1     -17.018  30.154  -4.424  0.00  0.00    -0.096 C 
ATOM     25  H   UNL     1     -17.836  31.256  -2.838  0.00  0.00    -0.082 HD
ATOM     26  C   UNL     1     -16.248  32.413  -3.691  0.00  0.00    -0.064 C 
ATOM     27  C   UNL     1     -16.724  33.759  -3.077  0.00  0.00    +0.066 C 
ENDBRANCH  19  20
ENDBRANCH  18  19
ENDBRANCH  14  15
ENDBRANCH  12  13
TORSDOF 6
ENDMDL
MODEL 2
REMARK VINA RESULT:     -10.3      1.844      2.817
REMARK  Name = C:\Users\Docking\Desktop\test protocol\1iep_ligandH.pdb
REMARK  8 active torsions:
REMARK  status: ('A' for Active; 'I' for Inactive)
REMARK    1  A    between atoms: _5  and  _11
REMARK    2  A    between atoms: _19  and  _21
REMARK    3  A    between atoms: _22  and  _66
REMARK    4  A    between atoms: _27  and  _30
REMARK    5  A    between atoms: _32  and  _33
REMARK    6  A    between atoms: _38  and  _43
REMARK    7  A    between atoms: _43  and  _46
REMARK    8  A    between atoms: _53  and  _55
REMARK                            x       y       z     vdW  Elec       q    Type
REMARK                         _______ _______ _______ _____ _____    ______ ____
ROOT
ATOM     10  C   UNL     1     -16.244  42.781  -6.548  0.00  0.00    +0.038 A 
ATOM     11  C   UNL     1     -16.544  41.416  -6.308  0.00  0.00    +0.047 A 
ATOM     12  C   UNL     1     -17.021  40.967  -5.009  0.00  0.00    +0.035 A 
ATOM     32  C   UNL     1     -17.183  41.937  -3.977  0.00  0.00    +0.024 A 
ATOM     33  C   UNL     1     -16.883  43.328  -4.203  0.00  0.00    +0.007 A 
ATOM     34  C   UNL     1     -16.410  43.777  -5.482  0.00  0.00    -0.029 A 
ATOM     35  C   UNL     1     -16.097  45.280  -5.665  0.00  0.00    +0.045 C 
ENDROOT
BRANCH  10   9
ATOM      4  C   UNL     1     -17.005  44.012 -11.124  0.00  0.00    +0.077 A 
ATOM      5  C   UNL     1     -18.426  43.869 -10.988  0.00  0.00    +0.048 A 
ATOM      6  C   UNL     1     -18.920  43.470  -9.726  0.00  0.00    +0.116 A 
ATOM      7  N   UNL     1     -18.049  43.235  -8.685  0.00  0.00    -0.223 NA
ATOM      8  C   UNL     1     -16.684  43.380  -8.850  0.00  0.00    +0.220 A 
ATOM      9  N   UNL     1     -15.790  43.157  -7.814  0.00  0.00    -0.283 N 
ATOM     36  H   UNL     1     -14.790  43.268  -7.978  0.00  0.00    +0.155 HD
ATOM     37  N   UNL     1     -16.187  43.759 -10.046  0.00  0.00    -0.214 NA
BRANCH   4   3
ATOM      1  C   UNL     1     -16.197  44.585 -14.908  0.00  0.00    +0.020 A 
ATOM      2  C   UNL     1     -16.888  44.159 -13.713  0.00  0.00    +0.013 A 
ATOM      3  C   UNL     1     -16.331  44.430 -12.394  0.00  0.00    +0.019 A 
ATOM     38  C   UNL     1     -15.063  45.141 -12.318  0.00  0.00    +0.120 A 
ATOM     39  N   UNL     1     -14.420  45.537 -13.486  0.00  0.00    -0.263 NA
ATOM     40  C   UNL     1     -14.945  45.280 -14.761  0.00  0.00    +0.111 A 
ENDBRANCH   4   3
ENDBRANCH  10   9
BRANCH  12  13
ATOM     13  N   UNL     1     -17.333  39.593  -4.704  0.00  0.00    -0.281 N 
ATOM     14  C   UNL     1     -18.421  38.851  -5.135  0.00  0.00    +0.248 C 
ATOM     30  O   UNL     1     -19.409  39.324  -5.677  0.00  0.00    -0.270 OA
ATOM     31  H   UNL     1     -16.672  39.107  -4.098  0.00  0.00    +0.155 HD
BRANCH  14  15
ATOM     15  C   UNL     1     -18.419  37.372  -4.918  0.00  0.00    +0.037 A 
ATOM     16  C   UNL     1     -19.215  36.479  -5.763  0.00  0.00    +0.013 A 
ATOM     17  C   UNL     1     -19.207  35.058  -5.522  0.00  0.00    +0.005 A 
ATOM     18  C   UNL     1     -18.399  34.521  -4.429  0.00  0.00    -0.033 A 
ATOM     28  C   UNL     1     -17.615  35.430  -3.609  0.00  0.00    +0.005 A 
ATOM     29  C   UNL     1     -17.621  36.823  -3.842  0.00  0.00    +0.013 A 
BRANCH  18  19
ATOM     19  C   UNL     1     -18.348  33.021  -4.086  0.00  0.00    +0.119 C 
BRANCH  19  20
ATOM     20  N   UNL     1     -17.111  32.275  -4.464  0.00  0.00    -0.302 NA
ATOM     21  C   UNL     1     -16.007  32.423  -3.414  0.00  0.00    +0.066 C 
ATOM     22  C   UNL     1     -14.728  31.618  -3.814  0.00  0.00    -0.064 C 
ATOM     23  N   UNL     1     -14.239  32.091  -5.185  0.00  0.00    +0.379 N 
ATOM     24  C   UNL     1     -13.004  31.377  -5.538  0.00  0.00    -0.096 C 
ATOM     25  H   UNL     1     -13.991  33.174  -5.099  0.00  0.00    -0.082 HD
ATOM     26  C   UNL     1     -15.332  31.949  -6.235  0.00  0.00    -0.064 C 
ATOM     27  C   UNL     1     -16.609  32.729  -5.812  0.00  0.00    +0.066 C 
ENDBRANCH  19  20
ENDBRANCH  18  19
ENDBRANCH  14  15
ENDBRANCH  12  13
TORSDOF 6
ENDMDL
MODEL 3
REMARK VINA RESULT:     -10.2      2.554      4.261
REMARK  Name = C:\Users\Docking\Desktop\test protocol\1iep_ligandH.pdb
REMARK  8 active torsions:
REMARK  status: ('A' for Active; 'I' for Inactive)
REMARK    1  A    between atoms: _5  and  _11
REMARK    2  A    between atoms: _19  and  _21
REMARK    3  A    between atoms: _22  and  _66
REMARK    4  A    between atoms: _27  and  _30
REMARK    5  A    between atoms: _32  and  _33
REMARK    6  A    between atoms: _38  and  _43
REMARK    7  A    between atoms: _43  and  _46
REMARK    8  A    between atoms: _53  and  _55
REMARK                            x       y       z     vdW  Elec       q    Type
REMARK                         _______ _______ _______ _____ _____    ______ ____
ROOT
ATOM     10  C   UNL     1     -15.778  43.501 -10.039  0.00  0.00    +0.038 A 
ATOM     11  C   UNL     1     -15.770  42.443  -9.095  0.00  0.00    +0.047 A 
ATOM     12  C   UNL     1     -17.011  41.900  -8.563  0.00  0.00    +0.035 A 
ATOM     32  C   UNL     1     -18.241  42.457  -9.017  0.00  0.00    +0.024 A 
ATOM     33  C   UNL     1     -18.267  43.534  -9.976  0.00  0.00    +0.007 A 
ATOM     34  C   UNL     1     -17.047  44.076 -10.502  0.00  0.00    -0.029 A 
ATOM     35  C   UNL     1     -17.135  45.234 -11.522  0.00  0.00    +0.045 C 
ENDROOT
BRANCH  10   9
ATOM      4  C   UNL     1     -11.947  46.376  -9.722  0.00  0.00    +0.077 A 
ATOM      5  C   UNL     1     -12.431  46.987  -8.518  0.00  0.00    +0.048 A 
ATOM      6  C   UNL     1     -13.674  46.538  -8.016  0.00  0.00    +0.116 A 
ATOM      7  N   UNL     1     -14.371  45.550  -8.678  0.00  0.00    -0.223 NA
ATOM      8  C   UNL     1     -13.877  44.984  -9.839  0.00  0.00    +0.220 A 
ATOM      9  N   UNL     1     -14.557  43.984 -10.517  0.00  0.00    -0.283 N 
ATOM     36  H   UNL     1     -14.162  43.597 -11.373  0.00  0.00    +0.155 HD
ATOM     37  N   UNL     1     -12.693  45.397 -10.339  0.00  0.00    -0.214 NA
BRANCH   4   3
ATOM      1  C   UNL     1      -9.270  48.054 -12.028  0.00  0.00    +0.020 A 
ATOM      2  C   UNL     1     -10.547  47.738 -11.432  0.00  0.00    +0.013 A 
ATOM      3  C   UNL     1     -10.650  46.741 -10.374  0.00  0.00    +0.019 A 
ATOM     38  C   UNL     1      -9.430  46.078  -9.937  0.00  0.00    +0.120 A 
ATOM     39  N   UNL     1      -8.214  46.402 -10.530  0.00  0.00    -0.263 NA
ATOM     40  C   UNL     1      -8.104  47.358 -11.550  0.00  0.00    +0.111 A 
ENDBRANCH   4   3
ENDBRANCH  10   9
BRANCH  12  13
ATOM     13  N   UNL     1     -17.065  40.831  -7.597  0.00  0.00    -0.281 N 
ATOM     14  C   UNL     1     -17.664  40.842  -6.348  0.00  0.00    +0.248 C 
ATOM     30  O   UNL     1     -18.062  41.849  -5.781  0.00  0.00    -0.270 OA
ATOM     31  H   UNL     1     -16.606  39.961  -7.867  0.00  0.00    +0.155 HD
BRANCH  14  15
ATOM     15  C   UNL     1     -17.831  39.550  -5.616  0.00  0.00    +0.037 A 
ATOM     16  C   UNL     1     -18.806  38.548  -6.056  0.00  0.00    +0.013 A 
ATOM     17  C   UNL     1     -18.959  37.317  -5.322  0.00  0.00    +0.005 A 
ATOM     18  C   UNL     1     -18.134  37.080  -4.140  0.00  0.00    -0.033 A 
ATOM     28  C   UNL     1     -17.172  38.089  -3.729  0.00  0.00    +0.005 A 
ATOM     29  C   UNL     1     -17.019  39.297  -4.445  0.00  0.00    +0.013 A 
BRANCH  18  19
ATOM     19  C   UNL     1     -18.245  35.805  -3.284  0.00  0.00    +0.119 C 
BRANCH  19  20
ATOM     20  N   UNL     1     -17.861  34.513  -3.929  0.00  0.00    -0.302 NA
ATOM     21  C   UNL     1     -19.057  33.571  -4.086  0.00  0.00    +0.066 C 
ATOM     22  C   UNL     1     -18.641  32.234  -4.782  0.00  0.00    -0.064 C 
ATOM     23  N   UNL     1     -17.528  31.566  -3.973  0.00  0.00    +0.379 N 
ATOM     24  C   UNL     1     -17.175  30.280  -4.592  0.00  0.00    -0.096 C 
ATOM     25  H   UNL     1     -17.932  31.352  -2.956  0.00  0.00    -0.082 HD
ATOM     26  C   UNL     1     -16.336  32.497  -3.809  0.00  0.00    -0.064 C 
ATOM     27  C   UNL     1     -16.766  33.834  -3.143  0.00  0.00    +0.066 C 
ENDBRANCH  19  20
ENDBRANCH  18  19
ENDBRANCH  14  15
ENDBRANCH  12  13
TORSDOF 6
ENDMDL
MODEL 4
REMARK VINA RESULT:     -10.2      3.585     12.792
REMARK  Name = C:\Users\Docking\Desktop\test protocol\1iep_ligandH.pdb
REMARK  8 active torsions:
REMARK  status: ('A' for Active; 'I' for Inactive)
REMARK    1  A    between atoms: _5  and  _11
REMARK    2  A    between atoms: _19  and  _21
REMARK    3  A    between atoms: _22  and  _66
REMARK    4  A    between atoms: _27  and  _30
REMARK    5  A    between atoms: _32  and  _33
REMARK    6  A    between atoms: _38  and  _43
REMARK    7  A    between atoms: _43  and  _46
REMARK    8  A    between atoms: _53  and  _55
REMARK                            x       y       z     vdW  Elec       q    Type
REMARK                         _______ _______ _______ _____ _____    ______ ____
ROOT
ATOM     10  C   UNL     1     -17.733  35.665  -4.812  0.00  0.00    +0.038 A 
ATOM     11  C   UNL     1     -17.281  36.989  -5.046  0.00  0.00    +0.047 A 
ATOM     12  C   UNL     1     -18.151  37.985  -5.651  0.00  0.00    +0.035 A 
ATOM     32  C   UNL     1     -19.477  37.599  -6.004  0.00  0.00    +0.024 A 
ATOM     33  C   UNL     1     -19.952  36.257  -5.774  0.00  0.00    +0.007 A 
ATOM     34  C   UNL     1     -19.098  35.270  -5.180  0.00  0.00    -0.029 A 
ATOM     35  C   UNL     1     -19.658  33.845  -4.963  0.00  0.00    +0.045 C 
ENDROOT
BRANCH  10   9
ATOM      4  C   UNL     1     -14.360  32.262  -5.095  0.00  0.00    +0.077 A 
ATOM      5  C   UNL     1     -14.366  32.292  -6.529  0.00  0.00    +0.048 A 
ATOM      6  C   UNL     1     -15.257  33.193  -7.156  0.00  0.00    +0.116 A 
ATOM      7  N   UNL     1     -16.076  33.998  -6.394  0.00  0.00    -0.223 NA
ATOM      8  C   UNL     1     -16.046  33.943  -5.013  0.00  0.00    +0.220 A 
ATOM      9  N   UNL     1     -16.855  34.749  -4.228  0.00  0.00    -0.283 N 
ATOM     36  H   UNL     1     -16.808  34.673  -3.212  0.00  0.00    +0.155 HD
ATOM     37  N   UNL     1     -15.205  33.091  -4.391  0.00  0.00    -0.214 NA
BRANCH   4   3
ATOM      1  C   UNL     1     -11.411  29.943  -3.986  0.00  0.00    +0.020 A 
ATOM      2  C   UNL     1     -12.233  30.802  -4.808  0.00  0.00    +0.013 A 
ATOM      3  C   UNL     1     -13.472  31.367  -4.288  0.00  0.00    +0.019 A 
ATOM     38  C   UNL     1     -13.853  31.041  -2.922  0.00  0.00    +0.120 A 
ATOM     39  N   UNL     1     -13.043  30.210  -2.155  0.00  0.00    -0.263 NA
ATOM     40  C   UNL     1     -11.849  29.659  -2.645  0.00  0.00    +0.111 A 
ENDBRANCH   4   3
ENDBRANCH  10   9
BRANCH  12  13
ATOM     13  N   UNL     1     -17.745  39.342  -5.920  0.00  0.00    -0.281 N 
ATOM     14  C   UNL     1     -17.657  40.398  -5.027  0.00  0.00    +0.248 C 
ATOM     30  O   UNL     1     -18.121  40.387  -3.897  0.00  0.00    -0.270 OA
ATOM     31  H   UNL     1     -17.493  39.550  -6.887  0.00  0.00    +0.155 HD
BRANCH  14  15
ATOM     15  C   UNL     1     -16.966  41.651  -5.457  0.00  0.00    +0.037 A 
ATOM     16  C   UNL     1     -16.188  41.703  -6.698  0.00  0.00    +0.013 A 
ATOM     17  C   UNL     1     -15.517  42.920  -7.081  0.00  0.00    +0.005 A 
ATOM     18  C   UNL     1     -15.623  44.097  -6.221  0.00  0.00    -0.033 A 
ATOM     28  C   UNL     1     -16.405  44.019  -4.998  0.00  0.00    +0.005 A 
ATOM     29  C   UNL     1     -17.063  42.828  -4.620  0.00  0.00    +0.013 A 
BRANCH  18  19
ATOM     19  C   UNL     1     -14.923  45.431  -6.540  0.00  0.00    +0.119 C 
BRANCH  19  20
ATOM     20  N   UNL     1     -14.392  45.611  -7.924  0.00  0.00    -0.302 NA
ATOM     21  C   UNL     1     -12.884  45.356  -7.999  0.00  0.00    +0.066 C 
ATOM     22  C   UNL     1     -12.349  45.527  -9.458  0.00  0.00    -0.064 C 
ATOM     23  N   UNL     1     -12.687  46.931  -9.961  0.00  0.00    +0.379 N 
ATOM     24  C   UNL     1     -12.134  47.114 -11.311  0.00  0.00    -0.096 C 
ATOM     25  H   UNL     1     -12.182  47.662  -9.287  0.00  0.00    -0.082 HD
ATOM     26  C   UNL     1     -14.184  47.194  -9.888  0.00  0.00    -0.064 C 
ATOM     27  C   UNL     1     -14.710  46.993  -8.440  0.00  0.00    +0.066 C 
ENDBRANCH  19  20
ENDBRANCH  18  19
ENDBRANCH  14  15
ENDBRANCH  12  13
TORSDOF 6
ENDMDL
MODEL 5
REMARK VINA RESULT:     -10.1      4.543     12.961
REMARK  Name = C:\Users\Docking\Desktop\test protocol\1iep_ligandH.pdb
REMARK  8 active torsions:
REMARK  status: ('A' for Active; 'I' for Inactive)
REMARK    1  A    between atoms: _5  and  _11
REMARK    2  A    between atoms: _19  and  _21
REMARK    3  A    between atoms: _22  and  _66
REMARK    4  A    between atoms: _27  and  _30
REMARK    5  A    between atoms: _32  and  _33
REMARK    6  A    between atoms: _38  and  _43
REMARK    7  A    between atoms: _43  and  _46
REMARK    8  A    between atoms: _53  and  _55
REMARK                            x       y       z     vdW  Elec       q    Type
REMARK                         _______ _______ _______ _____ _____    ______ ____
ROOT
ATOM     10  C   UNL     1     -15.062  31.892  -4.215  0.00  0.00    +0.038 A 
ATOM     11  C   UNL     1     -15.469  33.224  -4.486  0.00  0.00    +0.047 A 
ATOM     12  C   UNL     1     -16.877  33.577  -4.574  0.00  0.00    +0.035 A 
ATOM     32  C   UNL     1     -17.845  32.549  -4.377  0.00  0.00    +0.024 A 
ATOM     33  C   UNL     1     -17.449  31.191  -4.102  0.00  0.00    +0.007 A 
ATOM     34  C   UNL     1     -16.062  30.836  -4.016  0.00  0.00    -0.029 A 
ATOM     35  C   UNL     1     -15.695  29.362  -3.725  0.00  0.00    +0.045 C 
ENDROOT
BRANCH  10   9
ATOM      4  C   UNL     1     -10.891  30.616  -6.217  0.00  0.00    +0.077 A 
ATOM      5  C   UNL     1     -11.489  30.475  -7.514  0.00  0.00    +0.048 A 
ATOM      6  C   UNL     1     -12.874  30.734  -7.622  0.00  0.00    +0.116 A 
ATOM      7  N   UNL     1     -13.597  31.105  -6.509  0.00  0.00    -0.223 NA
ATOM      8  C   UNL     1     -12.990  31.230  -5.273  0.00  0.00    +0.220 A 
ATOM      9  N   UNL     1     -13.696  31.609  -4.142  0.00  0.00    -0.283 N 
ATOM     36  H   UNL     1     -13.214  31.682  -3.247  0.00  0.00    +0.155 HD
ATOM     37  N   UNL     1     -11.669  30.987  -5.143  0.00  0.00    -0.214 NA
BRANCH   4   3
ATOM      1  C   UNL     1      -7.226  29.264  -6.416  0.00  0.00    +0.020 A 
ATOM      2  C   UNL     1      -8.625  29.454  -6.722  0.00  0.00    +0.013 A 
ATOM      3  C   UNL     1      -9.438  30.380  -5.944  0.00  0.00    +0.019 A 
ATOM     38  C   UNL     1      -8.799  31.105  -4.855  0.00  0.00    +0.120 A 
ATOM     39  N   UNL     1      -7.450  30.900  -4.584  0.00  0.00    -0.263 NA
ATOM     40  C   UNL     1      -6.658  30.010  -5.324  0.00  0.00    +0.111 A 
ENDBRANCH   4   3
ENDBRANCH  10   9
BRANCH  12  13
ATOM     13  N   UNL     1     -17.350  34.910  -4.854  0.00  0.00    -0.281 N 
ATOM     14  C   UNL     1     -17.819  35.854  -3.956  0.00  0.00    +0.248 C 
ATOM     30  O   UNL     1     -18.105  35.618  -2.791  0.00  0.00    -0.270 OA
ATOM     31  H   UNL     1     -17.337  35.192  -5.835  0.00  0.00    +0.155 HD
BRANCH  14  15
ATOM     15  C   UNL     1     -18.013  37.261  -4.422  0.00  0.00    +0.037 A 
ATOM     16  C   UNL     1     -18.959  37.584  -5.492  0.00  0.00    +0.013 A 
ATOM     17  C   UNL     1     -19.114  38.947  -5.934  0.00  0.00    +0.005 A 
ATOM     18  C   UNL     1     -18.320  39.999  -5.303  0.00  0.00    -0.033 A 
ATOM     28  C   UNL     1     -17.392  39.651  -4.240  0.00  0.00    +0.005 A 
ATOM     29  C   UNL     1     -17.237  38.316  -3.805  0.00  0.00    +0.013 A 
BRANCH  18  19
ATOM     19  C   UNL     1     -18.404  41.478  -5.726  0.00  0.00    +0.119 C 
BRANCH  19  20
ATOM     20  N   UNL     1     -17.186  42.084  -6.341  0.00  0.00    -0.302 NA
ATOM     21  C   UNL     1     -17.143  43.603  -6.154  0.00  0.00    +0.066 C 
ATOM     22  C   UNL     1     -15.851  44.218  -6.784  0.00  0.00    -0.064 C 
ATOM     23  N   UNL     1     -15.787  43.852  -8.268  0.00  0.00    +0.379 N 
ATOM     24  C   UNL     1     -14.603  44.477  -8.877  0.00  0.00    -0.096 C 
ATOM     25  H   UNL     1     -16.689  44.284  -8.762  0.00  0.00    -0.082 HD
ATOM     26  C   UNL     1     -15.831  42.344  -8.463  0.00  0.00    -0.064 C 
ATOM     27  C   UNL     1     -17.105  41.739  -7.808  0.00  0.00    +0.066 C 
ENDBRANCH  19  20
ENDBRANCH  18  19
ENDBRANCH  14  15
ENDBRANCH  12  13
TORSDOF 6
ENDMDL
