MODEL 1
REMARK VINA RESULT:      -8.1      0.000      0.000
REMARK  Name = C:\Users\Docking\Desktop\test protocol\1iep_ligandH.pdb
REMARK  8 active torsions:
REMARK  status: ('A' for Active; 'I' for Inactive)
REMARK    1  A    between atoms: _5  and  _11
REMARK    2  A    between atoms: _19  and  _21
REMARK    3  A    between atoms: _22  and  _66
REMARK    4  A    between atoms: _27  and  _30
REMARK    5  A    between atoms: _32  and  _33
REMARK    6  A    between atoms: _38  and  _43
REMARK    7  A    between atoms: _43  and  _46
REMARK    8  A    between atoms: _53  and  _55
REMARK                            x       y       z     vdW  Elec       q    Type
REMARK                         _______ _______ _______ _____ _____    ______ ____
ROOT
ATOM     10  C   UNL     1     -10.665  23.885  25.177  0.00  0.00    +0.038 A 
ATOM     11  C   UNL     1     -10.464  22.764  26.022  0.00  0.00    +0.047 A 
ATOM     12  C   UNL     1     -10.250  21.435  25.470  0.00  0.00    +0.035 A 
ATOM     32  C   UNL     1     -10.244  21.285  24.053  0.00  0.00    +0.024 A 
ATOM     33  C   UNL     1     -10.448  22.414  23.179  0.00  0.00    +0.007 A 
ATOM     34  C   UNL     1     -10.662  23.727  23.718  0.00  0.00    -0.029 A 
ATOM     35  C   UNL     1     -10.882  24.900  22.734  0.00  0.00    +0.045 C 
ENDROOT
BRANCH  10   9
ATOM      4  C   UNL     1     -13.504  27.479  26.615  0.00  0.00    +0.077 A 
ATOM      5  C   UNL     1     -14.684  26.816  26.139  0.00  0.00    +0.048 A 
ATOM      6  C   UNL     1     -14.516  25.555  25.524  0.00  0.00    +0.116 A 
ATOM      7  N   UNL     1     -13.258  25.007  25.400  0.00  0.00    -0.223 NA
ATOM      8  C   UNL     1     -12.141  25.674  25.868  0.00  0.00    +0.220 A 
ATOM      9  N   UNL     1     -10.866  25.138  25.761  0.00  0.00    -0.283 N 
ATOM     36  H   UNL     1     -10.067  25.665  26.112  0.00  0.00    +0.155 HD
ATOM     37  N   UNL     1     -12.274  26.880  26.458  0.00  0.00    -0.214 NA
BRANCH   4   3
ATOM      1  C   UNL     1     -12.536  30.549  28.837  0.00  0.00    +0.020 A 
ATOM      2  C   UNL     1     -12.475  29.248  28.212  0.00  0.00    +0.013 A 
ATOM      3  C   UNL     1     -13.518  28.815  27.291  0.00  0.00    +0.019 A 
ATOM     38  C   UNL     1     -14.617  29.730  27.021  0.00  0.00    +0.120 A 
ATOM     39  N   UNL     1     -14.650  30.976  27.639  0.00  0.00    -0.263 NA
ATOM     40  C   UNL     1     -13.653  31.403  28.528  0.00  0.00    +0.111 A 
ENDBRANCH   4   3
ENDBRANCH  10   9
BRANCH  12  13
ATOM     13  N   UNL     1     -10.049  20.258  26.278  0.00  0.00    -0.281 N 
ATOM     14  C   UNL     1      -8.935  19.435  26.321  0.00  0.00    +0.248 C 
ATOM     30  O   UNL     1      -8.022  19.465  25.509  0.00  0.00    -0.270 OA
ATOM     31  H   UNL     1     -10.821  20.000  26.893  0.00  0.00    +0.155 HD
BRANCH  14  15
ATOM     15  C   UNL     1      -8.827  18.423  27.415  0.00  0.00    +0.037 A 
ATOM     16  C   UNL     1      -9.391  17.078  27.265  0.00  0.00    +0.013 A 
ATOM     17  C   UNL     1      -9.288  16.127  28.343  0.00  0.00    +0.005 A 
ATOM     18  C   UNL     1      -8.617  16.516  29.580  0.00  0.00    -0.033 A 
ATOM     28  C   UNL     1      -8.062  17.854  29.701  0.00  0.00    +0.005 A 
ATOM     29  C   UNL     1      -8.162  18.790  28.647  0.00  0.00    +0.013 A 
BRANCH  18  19
ATOM     19  C   UNL     1      -8.479  15.572  30.790  0.00  0.00    +0.119 C 
BRANCH  19  20
ATOM     20  N   UNL     1      -7.178  14.858  30.955  0.00  0.00    -0.302 NA
ATOM     21  C   UNL     1      -6.238  15.592  31.915  0.00  0.00    +0.066 C 
ATOM     22  C   UNL     1      -4.890  14.820  32.094  0.00  0.00    -0.064 C 
ATOM     23  N   UNL     1      -4.229  14.629  30.728  0.00  0.00    +0.379 N 
ATOM     24  C   UNL     1      -2.935  13.954  30.899  0.00  0.00    -0.096 C 
ATOM     25  H   UNL     1      -4.030  15.641  30.305  0.00  0.00    -0.082 HD
ATOM     26  C   UNL     1      -5.159  13.902  29.766  0.00  0.00    -0.064 C 
ATOM     27  C   UNL     1      -6.506  14.663  29.618  0.00  0.00    +0.066 C 
ENDBRANCH  19  20
ENDBRANCH  18  19
ENDBRANCH  14  15
ENDBRANCH  12  13
TORSDOF 6
ENDMDL
MODEL 2
REMARK VINA RESULT:      -8.1      1.957      3.053
REMARK  Name = C:\Users\Docking\Desktop\test protocol\1iep_ligandH.pdb
REMARK  8 active torsions:
REMARK  status: ('A' for Active; 'I' for Inactive)
REMARK    1  A    between atoms: _5  and  _11
REMARK    2  A    between atoms: _19  and  _21
REMARK    3  A    between atoms: _22  and  _66
REMARK    4  A    between atoms: _27  and  _30
REMARK    5  A    between atoms: _32  and  _33
REMARK    6  A    between atoms: _38  and  _43
REMARK    7  A    between atoms: _43  and  _46
REMARK    8  A    between atoms: _53  and  _55
REMARK                            x       y       z     vdW  Elec       q    Type
REMARK                         _______ _______ _______ _____ _____    ______ ____
ROOT
ATOM     10  C   UNL     1     -10.732  24.076  25.205  0.00  0.00    +0.038 A 
ATOM     11  C   UNL     1     -10.513  22.962  26.055  0.00  0.00    +0.047 A 
ATOM     12  C   UNL     1     -10.291  21.632  25.510  0.00  0.00    +0.035 A 
ATOM     32  C   UNL     1     -10.296  21.472  24.094  0.00  0.00    +0.024 A 
ATOM     33  C   UNL     1     -10.519  22.593  23.215  0.00  0.00    +0.007 A 
ATOM     34  C   UNL     1     -10.741  23.907  23.747  0.00  0.00    -0.029 A 
ATOM     35  C   UNL     1     -10.981  25.072  22.758  0.00  0.00    +0.045 C 
ENDROOT
BRANCH  10   9
ATOM      4  C   UNL     1     -13.596  27.634  26.679  0.00  0.00    +0.077 A 
ATOM      5  C   UNL     1     -14.776  26.947  26.239  0.00  0.00    +0.048 A 
ATOM      6  C   UNL     1     -14.602  25.684  25.631  0.00  0.00    +0.116 A 
ATOM      7  N   UNL     1     -13.337  25.156  25.481  0.00  0.00    -0.223 NA
ATOM      8  C   UNL     1     -12.221  25.846  25.916  0.00  0.00    +0.220 A 
ATOM      9  N   UNL     1     -10.940  25.331  25.782  0.00  0.00    -0.283 N 
ATOM     36  H   UNL     1     -10.142  25.874  26.109  0.00  0.00    +0.155 HD
ATOM     37  N   UNL     1     -12.360  27.055  26.498  0.00  0.00    -0.214 NA
BRANCH   4   3
ATOM      1  C   UNL     1     -14.522  31.313  27.634  0.00  0.00    +0.020 A 
ATOM      2  C   UNL     1     -14.543  30.035  26.961  0.00  0.00    +0.013 A 
ATOM      3  C   UNL     1     -13.617  28.976  27.343  0.00  0.00    +0.019 A 
ATOM     38  C   UNL     1     -12.675  29.246  28.419  0.00  0.00    +0.120 A 
ATOM     39  N   UNL     1     -12.676  30.487  29.048  0.00  0.00    -0.263 NA
ATOM     40  C   UNL     1     -13.562  31.513  28.688  0.00  0.00    +0.111 A 
ENDBRANCH   4   3
ENDBRANCH  10   9
BRANCH  12  13
ATOM     13  N   UNL     1     -10.070  20.462  26.324  0.00  0.00    -0.281 N 
ATOM     14  C   UNL     1      -8.879  19.791  26.547  0.00  0.00    +0.248 C 
ATOM     30  O   UNL     1      -7.854  19.971  25.905  0.00  0.00    -0.270 OA
ATOM     31  H   UNL     1     -10.893  20.082  26.794  0.00  0.00    +0.155 HD
BRANCH  14  15
ATOM     15  C   UNL     1      -8.821  18.762  27.629  0.00  0.00    +0.037 A 
ATOM     16  C   UNL     1      -7.579  18.497  28.359  0.00  0.00    +0.013 A 
ATOM     17  C   UNL     1      -7.546  17.487  29.387  0.00  0.00    +0.005 A 
ATOM     18  C   UNL     1      -8.761  16.735  29.691  0.00  0.00    -0.033 A 
ATOM     28  C   UNL     1      -9.980  17.022  28.955  0.00  0.00    +0.005 A 
ATOM     29  C   UNL     1     -10.016  18.011  27.946  0.00  0.00    +0.013 A 
BRANCH  18  19
ATOM     19  C   UNL     1      -8.812  15.624  30.757  0.00  0.00    +0.119 C 
BRANCH  19  20
ATOM     20  N   UNL     1      -9.666  15.868  31.958  0.00  0.00    -0.302 NA
ATOM     21  C   UNL     1      -8.923  15.564  33.262  0.00  0.00    +0.066 C 
ATOM     22  C   UNL     1      -9.823  15.846  34.509  0.00  0.00    -0.064 C 
ATOM     23  N   UNL     1     -11.104  15.014  34.408  0.00  0.00    +0.379 N 
ATOM     24  C   UNL     1     -11.926  15.233  35.607  0.00  0.00    -0.096 C 
ATOM     25  H   UNL     1     -10.808  13.940  34.392  0.00  0.00    -0.082 HD
ATOM     26  C   UNL     1     -11.847  15.308  33.113  0.00  0.00    -0.064 C 
ATOM     27  C   UNL     1     -10.934  15.053  31.881  0.00  0.00    +0.066 C 
ENDBRANCH  19  20
ENDBRANCH  18  19
ENDBRANCH  14  15
ENDBRANCH  12  13
TORSDOF 6
ENDMDL
MODEL 3
REMARK VINA RESULT:      -7.8      3.877     14.520
REMARK  Name = C:\Users\Docking\Desktop\test protocol\1iep_ligandH.pdb
REMARK  8 active torsions:
REMARK  status: ('A' for Active; 'I' for Inactive)
REMARK    1  A    between atoms: _5  and  _11
REMARK    2  A    between atoms: _19  and  _21
REMARK    3  A    between atoms: _22  and  _66
REMARK    4  A    between atoms: _27  and  _30
REMARK    5  A    between atoms: _32  and  _33
REMARK    6  A    between atoms: _38  and  _43
REMARK    7  A    between atoms: _43  and  _46
REMARK    8  A    between atoms: _53  and  _55
REMARK                            x       y       z     vdW  Elec       q    Type
REMARK                         _______ _______ _______ _____ _____    ______ ____
ROOT
ATOM     10  C   UNL     1      -7.149  15.316  29.565  0.00  0.00    +0.038 A 
ATOM     11  C   UNL     1      -7.132  16.309  28.552  0.00  0.00    +0.047 A 
ATOM     12  C   UNL     1      -7.659  17.643  28.798  0.00  0.00    +0.035 A 
ATOM     32  C   UNL     1      -8.193  17.931  30.087  0.00  0.00    +0.024 A 
ATOM     33  C   UNL     1      -8.219  16.933  31.127  0.00  0.00    +0.007 A 
ATOM     34  C   UNL     1      -7.704  15.615  30.890  0.00  0.00    -0.029 A 
ATOM     35  C   UNL     1      -7.763  14.583  32.040  0.00  0.00    +0.045 C 
ENDROOT
BRANCH  10   9
ATOM      4  C   UNL     1      -3.623  12.061  29.672  0.00  0.00    +0.077 A 
ATOM      5  C   UNL     1      -2.730  12.964  30.339  0.00  0.00    +0.048 A 
ATOM      6  C   UNL     1      -3.214  14.259  30.630  0.00  0.00    +0.116 A 
ATOM      7  N   UNL     1      -4.498  14.614  30.276  0.00  0.00    -0.223 NA
ATOM      8  C   UNL     1      -5.333  13.719  29.632  0.00  0.00    +0.220 A 
ATOM      9  N   UNL     1      -6.631  14.052  29.274  0.00  0.00    -0.283 N 
ATOM     36  H   UNL     1      -7.212  13.366  28.794  0.00  0.00    +0.155 HD
ATOM     37  N   UNL     1      -4.894  12.477  29.342  0.00  0.00    -0.214 NA
BRANCH   4   3
ATOM      1  C   UNL     1      -2.578   8.892  27.631  0.00  0.00    +0.020 A 
ATOM      2  C   UNL     1      -2.923  10.261  27.938  0.00  0.00    +0.013 A 
ATOM      3  C   UNL     1      -3.259  10.657  29.300  0.00  0.00    +0.019 A 
ATOM     38  C   UNL     1      -3.235   9.637  30.336  0.00  0.00    +0.120 A 
ATOM     39  N   UNL     1      -2.900   8.326  30.011  0.00  0.00    -0.263 NA
ATOM     40  C   UNL     1      -2.577   7.932  28.704  0.00  0.00    +0.111 A 
ENDBRANCH   4   3
ENDBRANCH  10   9
BRANCH  12  13
ATOM     13  N   UNL     1      -7.676  18.689  27.806  0.00  0.00    -0.281 N 
ATOM     14  C   UNL     1      -8.468  18.776  26.673  0.00  0.00    +0.248 C 
ATOM     30  O   UNL     1      -9.135  17.856  26.224  0.00  0.00    -0.270 OA
ATOM     31  H   UNL     1      -7.025  19.460  27.958  0.00  0.00    +0.155 HD
BRANCH  14  15
ATOM     15  C   UNL     1      -8.513  20.067  25.921  0.00  0.00    +0.037 A 
ATOM     16  C   UNL     1      -7.465  20.426  24.963  0.00  0.00    +0.013 A 
ATOM     17  C   UNL     1      -7.524  21.685  24.264  0.00  0.00    +0.005 A 
ATOM     18  C   UNL     1      -8.639  22.595  24.520  0.00  0.00    -0.033 A 
ATOM     28  C   UNL     1      -9.668  22.211  25.471  0.00  0.00    +0.005 A 
ATOM     29  C   UNL     1      -9.613  20.978  26.159  0.00  0.00    +0.013 A 
BRANCH  18  19
ATOM     19  C   UNL     1      -8.772  23.968  23.835  0.00  0.00    +0.119 C 
BRANCH  19  20
ATOM     20  N   UNL     1      -9.810  24.103  22.770  0.00  0.00    -0.302 NA
ATOM     21  C   UNL     1      -9.207  24.538  21.432  0.00  0.00    +0.066 C 
ATOM     22  C   UNL     1     -10.304  24.653  20.324  0.00  0.00    -0.064 C 
ATOM     23  N   UNL     1     -11.383  25.638  20.778  0.00  0.00    +0.379 N 
ATOM     24  C   UNL     1     -12.386  25.792  19.714  0.00  0.00    -0.096 C 
ATOM     25  H   UNL     1     -10.894  26.629  20.928  0.00  0.00    -0.082 HD
ATOM     26  C   UNL     1     -11.986  25.214  22.110  0.00  0.00    -0.064 C 
ATOM     27  C   UNL     1     -10.883  25.074  23.196  0.00  0.00    +0.066 C 
ENDBRANCH  19  20
ENDBRANCH  18  19
ENDBRANCH  14  15
ENDBRANCH  12  13
TORSDOF 6
ENDMDL
MODEL 4
REMARK VINA RESULT:      -7.8      6.193     16.642
REMARK  Name = C:\Users\Docking\Desktop\test protocol\1iep_ligandH.pdb
REMARK  8 active torsions:
REMARK  status: ('A' for Active; 'I' for Inactive)
REMARK    1  A    between atoms: _5  and  _11
REMARK    2  A    between atoms: _19  and  _21
REMARK    3  A    between atoms: _22  and  _66
REMARK    4  A    between atoms: _27  and  _30
REMARK    5  A    between atoms: _32  and  _33
REMARK    6  A    between atoms: _38  and  _43
REMARK    7  A    between atoms: _43  and  _46
REMARK    8  A    between atoms: _53  and  _55
REMARK                            x       y       z     vdW  Elec       q    Type
REMARK                         _______ _______ _______ _____ _____    ______ ____
ROOT
ATOM     10  C   UNL     1     -13.556  28.862  27.529  0.00  0.00    +0.038 A 
ATOM     11  C   UNL     1     -14.097  29.785  26.598  0.00  0.00    +0.047 A 
ATOM     12  C   UNL     1     -15.142  30.719  26.985  0.00  0.00    +0.035 A 
ATOM     32  C   UNL     1     -15.611  30.689  28.331  0.00  0.00    +0.024 A 
ATOM     33  C   UNL     1     -15.072  29.757  29.291  0.00  0.00    +0.007 A 
ATOM     34  C   UNL     1     -14.043  28.831  28.913  0.00  0.00    -0.029 A 
ATOM     35  C   UNL     1     -13.507  27.849  29.982  0.00  0.00    +0.045 C 
ENDROOT
BRANCH  10   9
ATOM      4  C   UNL     1     -12.078  24.916  25.230  0.00  0.00    +0.077 A 
ATOM      5  C   UNL     1     -13.418  24.553  24.870  0.00  0.00    +0.048 A 
ATOM      6  C   UNL     1     -14.460  25.404  25.302  0.00  0.00    +0.116 A 
ATOM      7  N   UNL     1     -14.171  26.532  26.038  0.00  0.00    -0.223 NA
ATOM      8  C   UNL     1     -12.868  26.853  26.370  0.00  0.00    +0.220 A 
ATOM      9  N   UNL     1     -12.554  27.987  27.103  0.00  0.00    -0.283 N 
ATOM     36  H   UNL     1     -11.580  28.185  27.333  0.00  0.00    +0.155 HD
ATOM     37  N   UNL     1     -11.855  26.056  25.970  0.00  0.00    -0.214 NA
BRANCH   4   3
ATOM      1  C   UNL     1      -8.884  23.646  23.364  0.00  0.00    +0.020 A 
ATOM      2  C   UNL     1     -10.040  24.448  23.692  0.00  0.00    +0.013 A 
ATOM      3  C   UNL     1     -10.870  24.120  24.844  0.00  0.00    +0.019 A 
ATOM     38  C   UNL     1     -10.500  22.966  25.650  0.00  0.00    +0.120 A 
ATOM     39  N   UNL     1      -9.382  22.212  25.308  0.00  0.00    -0.263 NA
ATOM     40  C   UNL     1      -8.576  22.517  24.201  0.00  0.00    +0.111 A 
ENDBRANCH   4   3
ENDBRANCH  10   9
BRANCH  12  13
ATOM     13  N   UNL     1     -15.735  31.673  26.082  0.00  0.00    -0.281 N 
ATOM     14  C   UNL     1     -16.667  31.436  25.084  0.00  0.00    +0.248 C 
ATOM     30  O   UNL     1     -16.974  30.326  24.675  0.00  0.00    -0.270 OA
ATOM     31  H   UNL     1     -15.432  32.641  26.190  0.00  0.00    +0.155 HD
BRANCH  14  15
ATOM     15  C   UNL     1     -17.346  32.600  24.438  0.00  0.00    +0.037 A 
ATOM     16  C   UNL     1     -17.798  32.539  23.046  0.00  0.00    +0.013 A 
ATOM     17  C   UNL     1     -18.435  33.683  22.442  0.00  0.00    +0.005 A 
ATOM     18  C   UNL     1     -18.624  34.898  23.231  0.00  0.00    -0.033 A 
ATOM     28  C   UNL     1     -18.169  34.929  24.611  0.00  0.00    +0.005 A 
ATOM     29  C   UNL     1     -17.544  33.810  25.207  0.00  0.00    +0.013 A 
BRANCH  18  19
ATOM     19  C   UNL     1     -19.274  36.172  22.661  0.00  0.00    +0.119 C 
BRANCH  19  20
ATOM     20  N   UNL     1     -20.721  36.393  22.958  0.00  0.00    -0.302 NA
ATOM     21  C   UNL     1     -20.926  37.347  24.138  0.00  0.00    +0.066 C 
ATOM     22  C   UNL     1     -22.446  37.584  24.420  0.00  0.00    -0.064 C 
ATOM     23  N   UNL     1     -23.128  36.241  24.684  0.00  0.00    +0.379 N 
ATOM     24  C   UNL     1     -24.545  36.466  25.006  0.00  0.00    -0.096 C 
ATOM     25  H   UNL     1     -22.645  35.787  25.580  0.00  0.00    -0.082 HD
ATOM     26  C   UNL     1     -22.926  35.285  23.516  0.00  0.00    -0.064 C 
ATOM     27  C   UNL     1     -21.413  35.080  23.226  0.00  0.00    +0.066 C 
ENDBRANCH  19  20
ENDBRANCH  18  19
ENDBRANCH  14  15
ENDBRANCH  12  13
TORSDOF 6
ENDMDL
MODEL 5
REMARK VINA RESULT:      -7.6      6.424     16.788
REMARK  Name = C:\Users\Docking\Desktop\test protocol\1iep_ligandH.pdb
REMARK  8 active torsions:
REMARK  status: ('A' for Active; 'I' for Inactive)
REMARK    1  A    between atoms: _5  and  _11
REMARK    2  A    between atoms: _19  and  _21
REMARK    3  A    between atoms: _22  and  _66
REMARK    4  A    between atoms: _27  and  _30
REMARK    5  A    between atoms: _32  and  _33
REMARK    6  A    between atoms: _38  and  _43
REMARK    7  A    between atoms: _43  and  _46
REMARK    8  A    between atoms: _53  and  _55
REMARK                            x       y       z     vdW  Elec       q    Type
REMARK                         _______ _______ _______ _____ _____    ______ ____
ROOT
ATOM     10  C   UNL     1     -13.657  28.916  27.513  0.00  0.00    +0.038 A 
ATOM     11  C   UNL     1     -14.110  29.842  26.539  0.00  0.00    +0.047 A 
ATOM     12  C   UNL     1     -15.142  30.819  26.851  0.00  0.00    +0.035 A 
ATOM     32  C   UNL     1     -15.689  30.826  28.167  0.00  0.00    +0.024 A 
ATOM     33  C   UNL     1     -15.242  29.891  29.169  0.00  0.00    +0.007 A 
ATOM     34  C   UNL     1     -14.226  28.924  28.867  0.00  0.00    -0.029 A 
ATOM     35  C   UNL     1     -13.789  27.942  29.978  0.00  0.00    +0.045 C 
ENDROOT
BRANCH  10   9
ATOM      4  C   UNL     1     -12.192  24.879  25.370  0.00  0.00    +0.077 A 
ATOM      5  C   UNL     1     -13.522  24.554  24.942  0.00  0.00    +0.048 A 
ATOM      6  C   UNL     1     -14.556  25.447  25.301  0.00  0.00    +0.116 A 
ATOM      7  N   UNL     1     -14.269  26.580  26.032  0.00  0.00    -0.223 NA
ATOM      8  C   UNL     1     -12.976  26.863  26.430  0.00  0.00    +0.220 A 
ATOM      9  N   UNL     1     -12.664  28.000  27.159  0.00  0.00    -0.283 N 
ATOM     36  H   UNL     1     -11.698  28.170  27.440  0.00  0.00    +0.155 HD
ATOM     37  N   UNL     1     -11.971  26.025  26.102  0.00  0.00    -0.214 NA
BRANCH   4   3
ATOM      1  C   UNL     1      -8.941  23.471  23.712  0.00  0.00    +0.020 A 
ATOM      2  C   UNL     1     -10.085  24.317  23.962  0.00  0.00    +0.013 A 
ATOM      3  C   UNL     1     -10.993  24.036  25.067  0.00  0.00    +0.019 A 
ATOM     38  C   UNL     1     -10.712  22.882  25.907  0.00  0.00    +0.120 A 
ATOM     39  N   UNL     1      -9.603  22.084  25.642  0.00  0.00    -0.263 NA
ATOM     40  C   UNL     1      -8.723  22.344  24.581  0.00  0.00    +0.111 A 
ENDBRANCH   4   3
ENDBRANCH  10   9
BRANCH  12  13
ATOM     13  N   UNL     1     -15.647  31.778  25.901  0.00  0.00    -0.281 N 
ATOM     14  C   UNL     1     -16.954  31.949  25.476  0.00  0.00    +0.248 C 
ATOM     30  O   UNL     1     -17.859  31.157  25.690  0.00  0.00    -0.270 OA
ATOM     31  H   UNL     1     -14.956  32.408  25.491  0.00  0.00    +0.155 HD
BRANCH  14  15
ATOM     15  C   UNL     1     -17.303  33.169  24.686  0.00  0.00    +0.037 A 
ATOM     16  C   UNL     1     -17.226  33.175  23.223  0.00  0.00    +0.013 A 
ATOM     17  C   UNL     1     -17.552  34.370  22.486  0.00  0.00    +0.005 A 
ATOM     18  C   UNL     1     -17.960  35.570  23.212  0.00  0.00    -0.033 A 
ATOM     28  C   UNL     1     -18.033  35.535  24.664  0.00  0.00    +0.005 A 
ATOM     29  C   UNL     1     -17.713  34.366  25.389  0.00  0.00    +0.013 A 
BRANCH  18  19
ATOM     19  C   UNL     1     -18.305  36.897  22.510  0.00  0.00    +0.119 C 
BRANCH  19  20
ATOM     20  N   UNL     1     -17.334  37.407  21.497  0.00  0.00    -0.302 NA
ATOM     21  C   UNL     1     -16.917  38.853  21.778  0.00  0.00    +0.066 C 
ATOM     22  C   UNL     1     -15.883  39.363  20.722  0.00  0.00    -0.064 C 
ATOM     23  N   UNL     1     -16.485  39.236  19.321  0.00  0.00    +0.379 N 
ATOM     24  C   UNL     1     -15.538  39.769  18.330  0.00  0.00    -0.096 C 
ATOM     25  H   UNL     1     -17.401  39.869  19.288  0.00  0.00    -0.082 HD
ATOM     26  C   UNL     1     -16.905  37.801  19.034  0.00  0.00    -0.064 C 
ATOM     27  C   UNL     1     -17.909  37.294  20.106  0.00  0.00    +0.066 C 
ENDBRANCH  19  20
ENDBRANCH  18  19
ENDBRANCH  14  15
ENDBRANCH  12  13
TORSDOF 6
ENDMDL
