MODEL 1
REMARK VINA RESULT:      -6.0      0.000      0.000
REMARK  6 active torsions:
REMARK  status: ('A' for Active; 'I' for Inactive)
REMARK    1  A    between atoms: O_1  and  C_3 
REMARK    2  A    between atoms: O_1  and  C_6 
REMARK    3  A    between atoms: N_2  and  C_7 
REMARK    4  A    between atoms: C_3  and  C_4 
REMARK    5  A    between atoms: C_3  and  C_5 
REMARK    6  A    between atoms: C_6  and  C_7 
ROOT
HETATM    1  C   UNK     0      16.945  47.777  18.252  0.00  0.00     0.187 C 
ENDROOT
BRANCH   1   2
HETATM    2  O   UNK     0      18.207  48.249  18.705  0.00  0.00    -0.375 OA
BRANCH   2   3
HETATM    3  C   UNK     0      19.251  47.341  18.376  0.00  0.00     0.199 C 
BRANCH   3   4
HETATM    4  C   UNK     0      19.743  46.679  19.654  0.00  0.00     0.297 C 
BRANCH   4   5
HETATM    5  N   UNK     0      19.487  47.536  20.811  0.00  0.00     0.082 N 
HETATM    6  C   UNK     0      20.725  48.177  21.256  0.00  0.00     0.309 C 
HETATM    7  C   UNK     0      18.891  46.763  21.899  0.00  0.00     0.309 C 
ENDBRANCH   4   5
ENDBRANCH   3   4
ENDBRANCH   2   3
ENDBRANCH   1   2
BRANCH   1   8
HETATM    8  C   UNK     0      16.101  47.332  19.428  0.00  0.00    -0.025 A 
HETATM    9  C   UNK     0      15.629  46.033  19.467  0.00  0.00     0.010 A 
HETATM   10  C   UNK     0      14.853  45.623  20.550  0.00  0.00     0.001 A 
HETATM   11  C   UNK     0      14.560  46.521  21.577  0.00  0.00     0.000 A 
HETATM   12  C   UNK     0      15.044  47.828  21.521  0.00  0.00     0.001 A 
HETATM   13  C   UNK     0      15.822  48.237  20.437  0.00  0.00     0.010 A 
ENDBRANCH   1   8
BRANCH   1  14
HETATM   14  C   UNK     0      16.246  48.798  17.375  0.00  0.00    -0.025 A 
HETATM   15  C   UNK     0      16.917  49.956  17.027  0.00  0.00     0.010 A 
HETATM   16  C   UNK     0      16.275  50.896  16.220  0.00  0.00     0.001 A 
HETATM   17  C   UNK     0      14.973  50.660  15.776  0.00  0.00     0.000 A 
HETATM   18  C   UNK     0      14.314  49.486  16.138  0.00  0.00     0.001 A 
HETATM   19  C   UNK     0      14.956  48.547  16.946  0.00  0.00     0.010 A 
ENDBRANCH   1  14
TORSDOF 6
ENDMDL
MODEL 2
REMARK VINA RESULT:      -6.0     15.939     19.607
REMARK  6 active torsions:
REMARK  status: ('A' for Active; 'I' for Inactive)
REMARK    1  A    between atoms: O_1  and  C_3 
REMARK    2  A    between atoms: O_1  and  C_6 
REMARK    3  A    between atoms: N_2  and  C_7 
REMARK    4  A    between atoms: C_3  and  C_4 
REMARK    5  A    between atoms: C_3  and  C_5 
REMARK    6  A    between atoms: C_6  and  C_7 
ROOT
HETATM    1  C   UNK     0      11.718  64.763  12.671  0.00  0.00     0.187 C 
ENDROOT
BRANCH   1   2
HETATM    2  O   UNK     0      12.677  65.302  13.572  0.00  0.00    -0.375 OA
BRANCH   2   3
HETATM    3  C   UNK     0      12.081  65.660  14.812  0.00  0.00     0.199 C 
BRANCH   3   4
HETATM    4  C   UNK     0      11.356  66.986  14.640  0.00  0.00     0.297 C 
BRANCH   4   5
HETATM    5  N   UNK     0       9.940  66.848  14.981  0.00  0.00     0.082 N 
HETATM    6  C   UNK     0       9.129  67.757  14.172  0.00  0.00     0.309 C 
HETATM    7  C   UNK     0       9.729  67.103  16.405  0.00  0.00     0.309 C 
ENDBRANCH   4   5
ENDBRANCH   3   4
ENDBRANCH   2   3
ENDBRANCH   1   2
BRANCH   1   8
HETATM    8  C   UNK     0      11.717  65.550  11.377  0.00  0.00    -0.025 A 
HETATM    9  C   UNK     0      12.887  65.646  10.646  0.00  0.00     0.010 A 
HETATM   10  C   UNK     0      12.887  66.371   9.455  0.00  0.00     0.001 A 
HETATM   11  C   UNK     0      11.716  66.988   9.014  0.00  0.00     0.000 A 
HETATM   12  C   UNK     0      10.545  66.880   9.765  0.00  0.00     0.001 A 
HETATM   13  C   UNK     0      10.546  66.155  10.957  0.00  0.00     0.010 A 
ENDBRANCH   1   8
BRANCH   1  14
HETATM   14  C   UNK     0      11.923  63.275  12.458  0.00  0.00    -0.025 A 
HETATM   15  C   UNK     0      10.882  62.520  11.950  0.00  0.00     0.010 A 
HETATM   16  C   UNK     0      11.070  61.152  11.752  0.00  0.00     0.001 A 
HETATM   17  C   UNK     0      12.296  60.564  12.066  0.00  0.00     0.000 A 
HETATM   18  C   UNK     0      13.334  61.344  12.577  0.00  0.00     0.001 A 
HETATM   19  C   UNK     0      13.145  62.712  12.775  0.00  0.00     0.010 A 
ENDBRANCH   1  14
TORSDOF 6
ENDMDL
MODEL 3
REMARK VINA RESULT:      -6.0      1.434      4.430
REMARK  6 active torsions:
REMARK  status: ('A' for Active; 'I' for Inactive)
REMARK    1  A    between atoms: O_1  and  C_3 
REMARK    2  A    between atoms: O_1  and  C_6 
REMARK    3  A    between atoms: N_2  and  C_7 
REMARK    4  A    between atoms: C_3  and  C_4 
REMARK    5  A    between atoms: C_3  and  C_5 
REMARK    6  A    between atoms: C_6  and  C_7 
ROOT
HETATM    1  C   UNK     0      15.420  48.660  18.399  0.00  0.00     0.187 C 
ENDROOT
BRANCH   1   2
HETATM    2  O   UNK     0      16.611  48.371  17.678  0.00  0.00    -0.375 OA
BRANCH   2   3
HETATM    3  C   UNK     0      17.767  48.772  18.402  0.00  0.00     0.199 C 
BRANCH   3   4
HETATM    4  C   UNK     0      18.806  47.665  18.314  0.00  0.00     0.297 C 
BRANCH   4   5
HETATM    5  N   UNK     0      19.546  47.550  19.570  0.00  0.00     0.082 N 
HETATM    6  C   UNK     0      20.475  46.421  19.515  0.00  0.00     0.309 C 
HETATM    7  C   UNK     0      18.625  47.401  20.696  0.00  0.00     0.309 C 
ENDBRANCH   4   5
ENDBRANCH   3   4
ENDBRANCH   2   3
ENDBRANCH   1   2
BRANCH   1   8
HETATM    8  C   UNK     0      14.248  48.770  17.446  0.00  0.00    -0.025 A 
HETATM    9  C   UNK     0      12.990  49.041  17.952  0.00  0.00     0.010 A 
HETATM   10  C   UNK     0      11.911  49.143  17.075  0.00  0.00     0.001 A 
HETATM   11  C   UNK     0      12.108  48.971  15.705  0.00  0.00     0.000 A 
HETATM   12  C   UNK     0      13.384  48.698  15.212  0.00  0.00     0.001 A 
HETATM   13  C   UNK     0      14.463  48.597  16.090  0.00  0.00     0.010 A 
ENDBRANCH   1   8
BRANCH   1  14
HETATM   14  C   UNK     0      15.182  47.661  19.515  0.00  0.00    -0.025 A 
HETATM   15  C   UNK     0      14.923  48.127  20.790  0.00  0.00     0.010 A 
HETATM   16  C   UNK     0      14.703  47.209  21.817  0.00  0.00     0.001 A 
HETATM   17  C   UNK     0      14.746  45.840  21.549  0.00  0.00     0.000 A 
HETATM   18  C   UNK     0      15.009  45.390  20.256  0.00  0.00     0.001 A 
HETATM   19  C   UNK     0      15.229  46.309  19.229  0.00  0.00     0.010 A 
ENDBRANCH   1  14
TORSDOF 6
ENDMDL
