MODEL 1
REMARK VINA RESULT:      -8.4      0.000      0.000
REMARK  6 active torsions:
REMARK  status: ('A' for Active; 'I' for Inactive)
REMARK    1  A    between atoms: O_1  and  C_3 
REMARK    2  A    between atoms: O_1  and  C_6 
REMARK    3  A    between atoms: N_2  and  C_7 
REMARK    4  A    between atoms: C_3  and  C_4 
REMARK    5  A    between atoms: C_3  and  C_5 
REMARK    6  A    between atoms: C_6  and  C_7 
ROOT
HETATM    1  C   UNK     0      53.832 -12.934  30.564  0.00  0.00     0.187 C 
ENDROOT
BRANCH   1   2
HETATM    2  O   UNK     0      53.497 -11.812  29.758  0.00  0.00    -0.375 OA
BRANCH   2   3
HETATM    3  C   UNK     0      54.292 -11.762  28.580  0.00  0.00     0.199 C 
BRANCH   3   4
HETATM    4  C   UNK     0      53.374 -11.837  27.370  0.00  0.00     0.297 C 
BRANCH   4   5
HETATM    5  N   UNK     0      53.157 -10.506  26.803  0.00  0.00     0.082 N 
HETATM    6  C   UNK     0      54.316  -9.650  27.050  0.00  0.00     0.309 C 
HETATM    7  C   UNK     0      51.947  -9.904  27.362  0.00  0.00     0.309 C 
ENDBRANCH   4   5
ENDBRANCH   3   4
ENDBRANCH   2   3
ENDBRANCH   1   2
BRANCH   1   8
HETATM    8  C   UNK     0      54.433 -12.474  31.876  0.00  0.00    -0.025 A 
HETATM    9  C   UNK     0      55.613 -13.045  32.314  0.00  0.00     0.010 A 
HETATM   10  C   UNK     0      56.167 -12.621  33.522  0.00  0.00     0.001 A 
HETATM   11  C   UNK     0      55.530 -11.631  34.271  0.00  0.00     0.000 A 
HETATM   12  C   UNK     0      54.340 -11.066  33.813  0.00  0.00     0.001 A 
HETATM   13  C   UNK     0      53.787 -11.491  32.605  0.00  0.00     0.010 A 
ENDBRANCH   1   8
BRANCH   1  14
HETATM   14  C   UNK     0      52.648 -13.864  30.751  0.00  0.00    -0.025 A 
HETATM   15  C   UNK     0      51.423 -13.506  30.222  0.00  0.00     0.010 A 
HETATM   16  C   UNK     0      50.333 -14.361  30.392  0.00  0.00     0.001 A 
HETATM   17  C   UNK     0      50.491 -15.560  31.088  0.00  0.00     0.000 A 
HETATM   18  C   UNK     0      51.736 -15.904  31.614  0.00  0.00     0.001 A 
HETATM   19  C   UNK     0      52.825 -15.048  31.444  0.00  0.00     0.010 A 
ENDBRANCH   1  14
TORSDOF 6
ENDMDL
MODEL 2
REMARK VINA RESULT:      -8.4      2.064      4.790
REMARK  6 active torsions:
REMARK  status: ('A' for Active; 'I' for Inactive)
REMARK    1  A    between atoms: O_1  and  C_3 
REMARK    2  A    between atoms: O_1  and  C_6 
REMARK    3  A    between atoms: N_2  and  C_7 
REMARK    4  A    between atoms: C_3  and  C_4 
REMARK    5  A    between atoms: C_3  and  C_5 
REMARK    6  A    between atoms: C_6  and  C_7 
ROOT
HETATM    1  C   UNK     0      52.890 -11.567  30.923  0.00  0.00     0.187 C 
ENDROOT
BRANCH   1   2
HETATM    2  O   UNK     0      52.498 -12.855  30.467  0.00  0.00    -0.375 OA
BRANCH   2   3
HETATM    3  C   UNK     0      51.082 -12.983  30.424  0.00  0.00     0.199 C 
BRANCH   3   4
HETATM    4  C   UNK     0      50.621 -13.716  31.674  0.00  0.00     0.297 C 
BRANCH   4   5
HETATM    5  N   UNK     0      50.282 -15.105  31.364  0.00  0.00     0.082 N 
HETATM    6  C   UNK     0      51.419 -15.982  31.636  0.00  0.00     0.309 C 
HETATM    7  C   UNK     0      49.861 -15.229  29.969  0.00  0.00     0.309 C 
ENDBRANCH   4   5
ENDBRANCH   3   4
ENDBRANCH   2   3
ENDBRANCH   1   2
BRANCH   1   8
HETATM    8  C   UNK     0      53.936 -11.695  32.011  0.00  0.00    -0.025 A 
HETATM    9  C   UNK     0      54.929 -12.648  31.881  0.00  0.00     0.010 A 
HETATM   10  C   UNK     0      55.893 -12.767  32.882  0.00  0.00     0.001 A 
HETATM   11  C   UNK     0      55.847 -11.929  33.996  0.00  0.00     0.000 A 
HETATM   12  C   UNK     0      54.838 -10.973  34.110  0.00  0.00     0.001 A 
HETATM   13  C   UNK     0      53.874 -10.856  33.108  0.00  0.00     0.010 A 
ENDBRANCH   1   8
BRANCH   1  14
HETATM   14  C   UNK     0      53.333 -10.677  29.778  0.00  0.00    -0.025 A 
HETATM   15  C   UNK     0      53.168  -9.309  29.888  0.00  0.00     0.010 A 
HETATM   16  C   UNK     0      53.576  -8.489  28.836  0.00  0.00     0.001 A 
HETATM   17  C   UNK     0      54.144  -9.053  27.693  0.00  0.00     0.000 A 
HETATM   18  C   UNK     0      54.302 -10.435  27.601  0.00  0.00     0.001 A 
HETATM   19  C   UNK     0      53.893 -11.255  28.654  0.00  0.00     0.010 A 
ENDBRANCH   1  14
TORSDOF 6
ENDMDL
MODEL 3
REMARK VINA RESULT:      -8.4      2.040      4.368
REMARK  6 active torsions:
REMARK  status: ('A' for Active; 'I' for Inactive)
REMARK    1  A    between atoms: O_1  and  C_3 
REMARK    2  A    between atoms: O_1  and  C_6 
REMARK    3  A    between atoms: N_2  and  C_7 
REMARK    4  A    between atoms: C_3  and  C_4 
REMARK    5  A    between atoms: C_3  and  C_5 
REMARK    6  A    between atoms: C_6  and  C_7 
ROOT
HETATM    1  C   UNK     0      53.231 -13.434  30.953  0.00  0.00     0.187 C 
ENDROOT
BRANCH   1   2
HETATM    2  O   UNK     0      53.682 -14.748  30.651  0.00  0.00    -0.375 OA
BRANCH   2   3
HETATM    3  C   UNK     0      52.598 -15.606  30.314  0.00  0.00     0.199 C 
BRANCH   3   4
HETATM    4  C   UNK     0      51.750 -15.830  31.557  0.00  0.00     0.297 C 
BRANCH   4   5
HETATM    5  N   UNK     0      50.360 -15.446  31.310  0.00  0.00     0.082 N 
HETATM    6  C   UNK     0      50.100 -15.364  29.873  0.00  0.00     0.309 C 
HETATM    7  C   UNK     0      50.059 -14.171  31.959  0.00  0.00     0.309 C 
ENDBRANCH   4   5
ENDBRANCH   3   4
ENDBRANCH   2   3
ENDBRANCH   1   2
BRANCH   1   8
HETATM    8  C   UNK     0      54.107 -12.817  32.024  0.00  0.00    -0.025 A 
HETATM    9  C   UNK     0      53.756 -11.590  32.556  0.00  0.00     0.010 A 
HETATM   10  C   UNK     0      54.562 -11.021  33.541  0.00  0.00     0.001 A 
HETATM   11  C   UNK     0      55.706 -11.689  33.978  0.00  0.00     0.000 A 
HETATM   12  C   UNK     0      56.044 -12.926  33.430  0.00  0.00     0.001 A 
HETATM   13  C   UNK     0      55.237 -13.495  32.444  0.00  0.00     0.010 A 
ENDBRANCH   1   8
BRANCH   1  14
HETATM   14  C   UNK     0      53.126 -12.576  29.708  0.00  0.00    -0.025 A 
HETATM   15  C   UNK     0      51.875 -12.209  29.248  0.00  0.00     0.010 A 
HETATM   16  C   UNK     0      51.777 -11.419  28.102  0.00  0.00     0.001 A 
HETATM   17  C   UNK     0      52.934 -11.009  27.438  0.00  0.00     0.000 A 
HETATM   18  C   UNK     0      54.187 -11.389  27.918  0.00  0.00     0.001 A 
HETATM   19  C   UNK     0      54.284 -12.180  29.063  0.00  0.00     0.010 A 
ENDBRANCH   1  14
TORSDOF 6
ENDMDL
