MODEL 1
REMARK VINA RESULT:      -7.5      0.000      0.000
REMARK  6 active torsions:
REMARK  status: ('A' for Active; 'I' for Inactive)
REMARK    1  A    between atoms: O_1  and  C_3 
REMARK    2  A    between atoms: O_1  and  C_6 
REMARK    3  A    between atoms: N_2  and  C_7 
REMARK    4  A    between atoms: C_3  and  C_4 
REMARK    5  A    between atoms: C_3  and  C_5 
REMARK    6  A    between atoms: C_6  and  C_7 
ROOT
HETATM    1  C   UNK     0     -19.166  11.389  17.518  0.00  0.00     0.187 C 
ENDROOT
BRANCH   1   2
HETATM    2  O   UNK     0     -18.832  11.305  18.897  0.00  0.00    -0.375 OA
BRANCH   2   3
HETATM    3  C   UNK     0     -19.992  11.155  19.705  0.00  0.00     0.199 C 
BRANCH   3   4
HETATM    4  C   UNK     0     -19.559  10.801  21.120  0.00  0.00     0.297 C 
BRANCH   4   5
HETATM    5  N   UNK     0     -20.257   9.604  21.589  0.00  0.00     0.082 N 
HETATM    6  C   UNK     0     -19.594   9.058  22.773  0.00  0.00     0.309 C 
HETATM    7  C   UNK     0     -20.321   8.600  20.529  0.00  0.00     0.309 C 
ENDBRANCH   4   5
ENDBRANCH   3   4
ENDBRANCH   2   3
ENDBRANCH   1   2
BRANCH   1   8
HETATM    8  C   UNK     0     -19.284  12.839  17.097  0.00  0.00    -0.025 A 
HETATM    9  C   UNK     0     -18.152  13.633  17.091  0.00  0.00     0.010 A 
HETATM   10  C   UNK     0     -18.260  14.968  16.703  0.00  0.00     0.001 A 
HETATM   11  C   UNK     0     -19.499  15.487  16.328  0.00  0.00     0.000 A 
HETATM   12  C   UNK     0     -20.630  14.671  16.340  0.00  0.00     0.001 A 
HETATM   13  C   UNK     0     -20.521  13.335  16.728  0.00  0.00     0.010 A 
ENDBRANCH   1   8
BRANCH   1  14
HETATM   14  C   UNK     0     -18.198  10.600  16.657  0.00  0.00    -0.025 A 
HETATM   15  C   UNK     0     -17.146   9.939  17.262  0.00  0.00     0.010 A 
HETATM   16  C   UNK     0     -16.255   9.213  16.472  0.00  0.00     0.001 A 
HETATM   17  C   UNK     0     -16.434   9.161  15.089  0.00  0.00     0.000 A 
HETATM   18  C   UNK     0     -17.502   9.834  14.497  0.00  0.00     0.001 A 
HETATM   19  C   UNK     0     -18.392  10.561  15.288  0.00  0.00     0.010 A 
ENDBRANCH   1  14
TORSDOF 6
ENDMDL
MODEL 2
REMARK VINA RESULT:      -7.1      1.293      4.576
REMARK  6 active torsions:
REMARK  status: ('A' for Active; 'I' for Inactive)
REMARK    1  A    between atoms: O_1  and  C_3 
REMARK    2  A    between atoms: O_1  and  C_6 
REMARK    3  A    between atoms: N_2  and  C_7 
REMARK    4  A    between atoms: C_3  and  C_4 
REMARK    5  A    between atoms: C_3  and  C_5 
REMARK    6  A    between atoms: C_6  and  C_7 
ROOT
HETATM    1  C   UNK     0     -18.649  11.533  17.880  0.00  0.00     0.187 C 
ENDROOT
BRANCH   1   2
HETATM    2  O   UNK     0     -19.726  10.799  18.448  0.00  0.00    -0.375 OA
BRANCH   2   3
HETATM    3  C   UNK     0     -19.613  10.721  19.863  0.00  0.00     0.199 C 
BRANCH   3   4
HETATM    4  C   UNK     0     -20.988  10.435  20.447  0.00  0.00     0.297 C 
BRANCH   4   5
HETATM    5  N   UNK     0     -21.941  11.474  20.057  0.00  0.00     0.082 N 
HETATM    6  C   UNK     0     -21.590  12.750  20.680  0.00  0.00     0.309 C 
HETATM    7  C   UNK     0     -23.302  11.083  20.422  0.00  0.00     0.309 C 
ENDBRANCH   4   5
ENDBRANCH   3   4
ENDBRANCH   2   3
ENDBRANCH   1   2
BRANCH   1   8
HETATM    8  C   UNK     0     -17.937  10.693  16.840  0.00  0.00    -0.025 A 
HETATM    9  C   UNK     0     -18.405  10.691  15.539  0.00  0.00     0.010 A 
HETATM   10  C   UNK     0     -17.749   9.918  14.582  0.00  0.00     0.001 A 
HETATM   11  C   UNK     0     -16.636   9.159  14.942  0.00  0.00     0.000 A 
HETATM   12  C   UNK     0     -16.178   9.173  16.259  0.00  0.00     0.001 A 
HETATM   13  C   UNK     0     -16.835   9.947  17.217  0.00  0.00     0.010 A 
ENDBRANCH   1   8
BRANCH   1  14
HETATM   14  C   UNK     0     -19.107  12.875  17.343  0.00  0.00    -0.025 A 
HETATM   15  C   UNK     0     -20.456  13.089  17.128  0.00  0.00     0.010 A 
HETATM   16  C   UNK     0     -20.878  14.324  16.634  0.00  0.00     0.001 A 
HETATM   17  C   UNK     0     -19.942  15.323  16.366  0.00  0.00     0.000 A 
HETATM   18  C   UNK     0     -18.586  15.089  16.590  0.00  0.00     0.001 A 
HETATM   19  C   UNK     0     -18.164  13.853  17.083  0.00  0.00     0.010 A 
ENDBRANCH   1  14
TORSDOF 6
ENDMDL
MODEL 3
REMARK VINA RESULT:      -7.1      0.622      4.259
REMARK  6 active torsions:
REMARK  status: ('A' for Active; 'I' for Inactive)
REMARK    1  A    between atoms: O_1  and  C_3 
REMARK    2  A    between atoms: O_1  and  C_6 
REMARK    3  A    between atoms: N_2  and  C_7 
REMARK    4  A    between atoms: C_3  and  C_4 
REMARK    5  A    between atoms: C_3  and  C_5 
REMARK    6  A    between atoms: C_6  and  C_7 
ROOT
HETATM    1  C   UNK     0     -18.604  11.511  17.901  0.00  0.00     0.187 C 
ENDROOT
BRANCH   1   2
HETATM    2  O   UNK     0     -19.660  10.782  18.513  0.00  0.00    -0.375 OA
BRANCH   2   3
HETATM    3  C   UNK     0     -19.575  10.835  19.932  0.00  0.00     0.199 C 
BRANCH   3   4
HETATM    4  C   UNK     0     -20.971  10.661  20.511  0.00  0.00     0.297 C 
BRANCH   4   5
HETATM    5  N   UNK     0     -20.984   9.600  21.517  0.00  0.00     0.082 N 
HETATM    6  C   UNK     0     -20.051   9.909  22.599  0.00  0.00     0.309 C 
HETATM    7  C   UNK     0     -20.653   8.313  20.906  0.00  0.00     0.309 C 
ENDBRANCH   4   5
ENDBRANCH   3   4
ENDBRANCH   2   3
ENDBRANCH   1   2
BRANCH   1   8
HETATM    8  C   UNK     0     -17.936  10.666  16.837  0.00  0.00    -0.025 A 
HETATM    9  C   UNK     0     -18.429  10.695  15.545  0.00  0.00     0.010 A 
HETATM   10  C   UNK     0     -17.814   9.917  14.565  0.00  0.00     0.001 A 
HETATM   11  C   UNK     0     -16.715   9.123  14.893  0.00  0.00     0.000 A 
HETATM   12  C   UNK     0     -16.231   9.106  16.201  0.00  0.00     0.001 A 
HETATM   13  C   UNK     0     -16.847   9.885  17.181  0.00  0.00     0.010 A 
ENDBRANCH   1   8
BRANCH   1  14
HETATM   14  C   UNK     0     -19.078  12.854  17.379  0.00  0.00    -0.025 A 
HETATM   15  C   UNK     0     -18.143  13.830  17.090  0.00  0.00     0.010 A 
HETATM   16  C   UNK     0     -18.578  15.065  16.609  0.00  0.00     0.001 A 
HETATM   17  C   UNK     0     -19.941  15.300  16.424  0.00  0.00     0.000 A 
HETATM   18  C   UNK     0     -20.869  14.302  16.720  0.00  0.00     0.001 A 
HETATM   19  C   UNK     0     -20.433  13.067  17.202  0.00  0.00     0.010 A 
ENDBRANCH   1  14
TORSDOF 6
ENDMDL
