MODEL 1
REMARK VINA RESULT:      -6.8      0.000      0.000
REMARK  6 active torsions:
REMARK  status: ('A' for Active; 'I' for Inactive)
REMARK    1  A    between atoms: O_1  and  C_3 
REMARK    2  A    between atoms: O_1  and  C_6 
REMARK    3  A    between atoms: N_2  and  C_7 
REMARK    4  A    between atoms: C_3  and  C_4 
REMARK    5  A    between atoms: C_3  and  C_5 
REMARK    6  A    between atoms: C_6  and  C_7 
ROOT
HETATM    1  C   UNK     0     -38.450  50.560  15.510  0.00  0.00     0.187 C 
ENDROOT
BRANCH   1   2
HETATM    2  O   UNK     0     -37.842  49.279  15.615  0.00  0.00    -0.375 OA
BRANCH   2   3
HETATM    3  C   UNK     0     -38.088  48.688  16.885  0.00  0.00     0.199 C 
BRANCH   3   4
HETATM    4  C   UNK     0     -38.635  47.285  16.673  0.00  0.00     0.297 C 
BRANCH   4   5
HETATM    5  N   UNK     0     -39.986  47.169  17.220  0.00  0.00     0.082 N 
HETATM    6  C   UNK     0     -40.947  46.888  16.154  0.00  0.00     0.309 C 
HETATM    7  C   UNK     0     -40.355  48.390  17.934  0.00  0.00     0.309 C 
ENDBRANCH   4   5
ENDBRANCH   3   4
ENDBRANCH   2   3
ENDBRANCH   1   2
BRANCH   1   8
HETATM    8  C   UNK     0     -37.388  51.639  15.477  0.00  0.00    -0.025 A 
HETATM    9  C   UNK     0     -37.767  52.961  15.622  0.00  0.00     0.010 A 
HETATM   10  C   UNK     0     -36.790  53.956  15.592  0.00  0.00     0.001 A 
HETATM   11  C   UNK     0     -35.449  53.611  15.418  0.00  0.00     0.000 A 
HETATM   12  C   UNK     0     -35.086  52.272  15.274  0.00  0.00     0.001 A 
HETATM   13  C   UNK     0     -36.064  51.278  15.304  0.00  0.00     0.010 A 
ENDBRANCH   1   8
BRANCH   1  14
HETATM   14  C   UNK     0     -39.404  50.633  14.334  0.00  0.00    -0.025 A 
HETATM   15  C   UNK     0     -38.935  51.087  13.115  0.00  0.00     0.010 A 
HETATM   16  C   UNK     0     -39.811  51.154  12.032  0.00  0.00     0.001 A 
HETATM   17  C   UNK     0     -41.142  50.765  12.188  0.00  0.00     0.000 A 
HETATM   18  C   UNK     0     -41.597  50.310  13.425  0.00  0.00     0.001 A 
HETATM   19  C   UNK     0     -40.719  50.243  14.508  0.00  0.00     0.010 A 
ENDBRANCH   1  14
TORSDOF 6
ENDMDL
MODEL 2
REMARK VINA RESULT:      -6.8      0.070      1.569
REMARK  6 active torsions:
REMARK  status: ('A' for Active; 'I' for Inactive)
REMARK    1  A    between atoms: O_1  and  C_3 
REMARK    2  A    between atoms: O_1  and  C_6 
REMARK    3  A    between atoms: N_2  and  C_7 
REMARK    4  A    between atoms: C_3  and  C_4 
REMARK    5  A    between atoms: C_3  and  C_5 
REMARK    6  A    between atoms: C_6  and  C_7 
ROOT
HETATM    1  C   UNK     0     -38.464  50.573  15.519  0.00  0.00     0.187 C 
ENDROOT
BRANCH   1   2
HETATM    2  O   UNK     0     -37.878  49.283  15.648  0.00  0.00    -0.375 OA
BRANCH   2   3
HETATM    3  C   UNK     0     -38.172  48.703  16.913  0.00  0.00     0.199 C 
BRANCH   3   4
HETATM    4  C   UNK     0     -38.735  47.308  16.690  0.00  0.00     0.297 C 
BRANCH   4   5
HETATM    5  N   UNK     0     -40.101  47.214  17.202  0.00  0.00     0.082 N 
HETATM    6  C   UNK     0     -41.036  46.921  16.116  0.00  0.00     0.309 C 
HETATM    7  C   UNK     0     -40.479  48.451  17.883  0.00  0.00     0.309 C 
ENDBRANCH   4   5
ENDBRANCH   3   4
ENDBRANCH   2   3
ENDBRANCH   1   2
BRANCH   1   8
HETATM    8  C   UNK     0     -37.384  51.635  15.492  0.00  0.00    -0.025 A 
HETATM    9  C   UNK     0     -36.065  51.251  15.341  0.00  0.00     0.010 A 
HETATM   10  C   UNK     0     -35.070  52.228  15.317  0.00  0.00     0.001 A 
HETATM   11  C   UNK     0     -35.413  53.574  15.444  0.00  0.00     0.000 A 
HETATM   12  C   UNK     0     -36.750  53.943  15.596  0.00  0.00     0.001 A 
HETATM   13  C   UNK     0     -37.744  52.964  15.620  0.00  0.00     0.010 A 
ENDBRANCH   1   8
BRANCH   1  14
HETATM   14  C   UNK     0     -39.396  50.648  14.325  0.00  0.00    -0.025 A 
HETATM   15  C   UNK     0     -40.715  50.263  14.477  0.00  0.00     0.010 A 
HETATM   16  C   UNK     0     -41.574  50.333  13.380  0.00  0.00     0.001 A 
HETATM   17  C   UNK     0     -41.097  50.788  12.150  0.00  0.00     0.000 A 
HETATM   18  C   UNK     0     -39.764  51.173  12.017  0.00  0.00     0.001 A 
HETATM   19  C   UNK     0     -38.905  51.102  13.115  0.00  0.00     0.010 A 
ENDBRANCH   1  14
TORSDOF 6
ENDMDL
MODEL 3
REMARK VINA RESULT:      -6.6      0.764      4.342
REMARK  6 active torsions:
REMARK  status: ('A' for Active; 'I' for Inactive)
REMARK    1  A    between atoms: O_1  and  C_3 
REMARK    2  A    between atoms: O_1  and  C_6 
REMARK    3  A    between atoms: N_2  and  C_7 
REMARK    4  A    between atoms: C_3  and  C_4 
REMARK    5  A    between atoms: C_3  and  C_5 
REMARK    6  A    between atoms: C_6  and  C_7 
ROOT
HETATM    1  C   UNK     0     -38.510  49.940  15.254  0.00  0.00     0.187 C 
ENDROOT
BRANCH   1   2
HETATM    2  O   UNK     0     -38.911  49.547  16.560  0.00  0.00    -0.375 OA
BRANCH   2   3
HETATM    3  C   UNK     0     -37.978  48.644  17.141  0.00  0.00     0.199 C 
BRANCH   3   4
HETATM    4  C   UNK     0     -38.646  47.286  17.296  0.00  0.00     0.297 C 
BRANCH   4   5
HETATM    5  N   UNK     0     -40.079  47.440  17.542  0.00  0.00     0.082 N 
HETATM    6  C   UNK     0     -40.380  47.235  18.959  0.00  0.00     0.309 C 
HETATM    7  C   UNK     0     -40.844  46.507  16.716  0.00  0.00     0.309 C 
ENDBRANCH   4   5
ENDBRANCH   3   4
ENDBRANCH   2   3
ENDBRANCH   1   2
BRANCH   1   8
HETATM    8  C   UNK     0     -39.727  50.171  14.383  0.00  0.00    -0.025 A 
HETATM    9  C   UNK     0     -40.969  49.770  14.839  0.00  0.00     0.010 A 
HETATM   10  C   UNK     0     -42.090  49.984  14.038  0.00  0.00     0.001 A 
HETATM   11  C   UNK     0     -41.950  50.595  12.792  0.00  0.00     0.000 A 
HETATM   12  C   UNK     0     -40.689  50.993  12.347  0.00  0.00     0.001 A 
HETATM   13  C   UNK     0     -39.568  50.779  13.150  0.00  0.00     0.010 A 
ENDBRANCH   1   8
BRANCH   1  14
HETATM   14  C   UNK     0     -37.573  51.132  15.289  0.00  0.00    -0.025 A 
HETATM   15  C   UNK     0     -38.061  52.358  15.700  0.00  0.00     0.010 A 
HETATM   16  C   UNK     0     -37.200  53.455  15.734  0.00  0.00     0.001 A 
HETATM   17  C   UNK     0     -35.865  53.304  15.356  0.00  0.00     0.000 A 
HETATM   18  C   UNK     0     -35.391  52.059  14.946  0.00  0.00     0.001 A 
HETATM   19  C   UNK     0     -36.254  50.962  14.911  0.00  0.00     0.010 A 
ENDBRANCH   1  14
TORSDOF 6
ENDMDL
