MODEL 1
REMARK VINA RESULT:      -8.2      0.000      0.000
REMARK  6 active torsions:
REMARK  status: ('A' for Active; 'I' for Inactive)
REMARK    1  A    between atoms: O_1  and  C_3 
REMARK    2  A    between atoms: O_1  and  C_6 
REMARK    3  A    between atoms: N_2  and  C_7 
REMARK    4  A    between atoms: C_3  and  C_4 
REMARK    5  A    between atoms: C_3  and  C_5 
REMARK    6  A    between atoms: C_6  and  C_7 
ROOT
HETATM    1  C   UNK     0      -3.748  17.632 -26.438  0.00  0.00     0.187 C 
ENDROOT
BRANCH   1   2
HETATM    2  O   UNK     0      -4.910  17.002 -25.915  0.00  0.00    -0.375 OA
BRANCH   2   3
HETATM    3  C   UNK     0      -5.062  15.684 -26.427  0.00  0.00     0.199 C 
BRANCH   3   4
HETATM    4  C   UNK     0      -6.218  15.010 -25.704  0.00  0.00     0.297 C 
BRANCH   4   5
HETATM    5  N   UNK     0      -6.312  13.601 -26.081  0.00  0.00     0.082 N 
HETATM    6  C   UNK     0      -5.137  13.198 -26.853  0.00  0.00     0.309 C 
HETATM    7  C   UNK     0      -7.535  13.356 -26.845  0.00  0.00     0.309 C 
ENDBRANCH   4   5
ENDBRANCH   3   4
ENDBRANCH   2   3
ENDBRANCH   1   2
BRANCH   1   8
HETATM    8  C   UNK     0      -4.140  18.811 -27.305  0.00  0.00    -0.025 A 
HETATM    9  C   UNK     0      -4.893  19.832 -26.754  0.00  0.00     0.010 A 
HETATM   10  C   UNK     0      -5.254  20.917 -27.552  0.00  0.00     0.001 A 
HETATM   11  C   UNK     0      -4.855  20.964 -28.887  0.00  0.00     0.000 A 
HETATM   12  C   UNK     0      -4.095  19.926 -29.426  0.00  0.00     0.001 A 
HETATM   13  C   UNK     0      -3.734  18.840 -28.627  0.00  0.00     0.010 A 
ENDBRANCH   1   8
BRANCH   1  14
HETATM   14  C   UNK     0      -2.770  18.005 -25.341  0.00  0.00    -0.025 A 
HETATM   15  C   UNK     0      -1.503  18.436 -25.688  0.00  0.00     0.010 A 
HETATM   16  C   UNK     0      -0.603  18.781 -24.679  0.00  0.00     0.001 A 
HETATM   17  C   UNK     0      -0.987  18.686 -23.341  0.00  0.00     0.000 A 
HETATM   18  C   UNK     0      -2.269  18.249 -23.011  0.00  0.00     0.001 A 
HETATM   19  C   UNK     0      -3.169  17.905 -24.021  0.00  0.00     0.010 A 
ENDBRANCH   1  14
TORSDOF 6
ENDMDL
MODEL 2
REMARK VINA RESULT:      -8.2      0.052      1.569
REMARK  6 active torsions:
REMARK  status: ('A' for Active; 'I' for Inactive)
REMARK    1  A    between atoms: O_1  and  C_3 
REMARK    2  A    between atoms: O_1  and  C_6 
REMARK    3  A    between atoms: N_2  and  C_7 
REMARK    4  A    between atoms: C_3  and  C_4 
REMARK    5  A    between atoms: C_3  and  C_5 
REMARK    6  A    between atoms: C_6  and  C_7 
ROOT
HETATM    1  C   UNK     0      -3.747  17.643 -26.421  0.00  0.00     0.187 C 
ENDROOT
BRANCH   1   2
HETATM    2  O   UNK     0      -4.915  17.030 -25.891  0.00  0.00    -0.375 OA
BRANCH   2   3
HETATM    3  C   UNK     0      -5.168  15.773 -26.506  0.00  0.00     0.199 C 
BRANCH   3   4
HETATM    4  C   UNK     0      -6.185  15.015 -25.667  0.00  0.00     0.297 C 
BRANCH   4   5
HETATM    5  N   UNK     0      -6.265  13.618 -26.090  0.00  0.00     0.082 N 
HETATM    6  C   UNK     0      -5.114  13.269 -26.922  0.00  0.00     0.309 C 
HETATM    7  C   UNK     0      -7.512  13.372 -26.812  0.00  0.00     0.309 C 
ENDBRANCH   4   5
ENDBRANCH   3   4
ENDBRANCH   2   3
ENDBRANCH   1   2
BRANCH   1   8
HETATM    8  C   UNK     0      -4.127  18.819 -27.297  0.00  0.00    -0.025 A 
HETATM    9  C   UNK     0      -3.707  18.842 -28.614  0.00  0.00     0.010 A 
HETATM   10  C   UNK     0      -4.057  19.924 -29.421  0.00  0.00     0.001 A 
HETATM   11  C   UNK     0      -4.822  20.966 -28.897  0.00  0.00     0.000 A 
HETATM   12  C   UNK     0      -5.237  20.926 -27.566  0.00  0.00     0.001 A 
HETATM   13  C   UNK     0      -4.887  19.842 -26.759  0.00  0.00     0.010 A 
ENDBRANCH   1   8
BRANCH   1  14
HETATM   14  C   UNK     0      -2.763  18.015 -25.328  0.00  0.00    -0.025 A 
HETATM   15  C   UNK     0      -3.153  17.902 -24.006  0.00  0.00     0.010 A 
HETATM   16  C   UNK     0      -2.249  18.242 -23.000  0.00  0.00     0.001 A 
HETATM   17  C   UNK     0      -0.969  18.688 -23.335  0.00  0.00     0.000 A 
HETATM   18  C   UNK     0      -0.595  18.794 -24.674  0.00  0.00     0.001 A 
HETATM   19  C   UNK     0      -1.500  18.454 -25.680  0.00  0.00     0.010 A 
ENDBRANCH   1  14
TORSDOF 6
ENDMDL
MODEL 3
REMARK VINA RESULT:      -8.0      0.605      4.133
REMARK  6 active torsions:
REMARK  status: ('A' for Active; 'I' for Inactive)
REMARK    1  A    between atoms: O_1  and  C_3 
REMARK    2  A    between atoms: O_1  and  C_6 
REMARK    3  A    between atoms: N_2  and  C_7 
REMARK    4  A    between atoms: C_3  and  C_4 
REMARK    5  A    between atoms: C_3  and  C_5 
REMARK    6  A    between atoms: C_6  and  C_7 
ROOT
HETATM    1  C   UNK     0      -4.106  18.067 -25.904  0.00  0.00     0.187 C 
ENDROOT
BRANCH   1   2
HETATM    2  O   UNK     0      -4.204  16.707 -26.307  0.00  0.00    -0.375 OA
BRANCH   2   3
HETATM    3  C   UNK     0      -5.387  16.099 -25.802  0.00  0.00     0.199 C 
BRANCH   3   4
HETATM    4  C   UNK     0      -5.933  15.148 -26.856  0.00  0.00     0.297 C 
BRANCH   4   5
HETATM    5  N   UNK     0      -6.088  13.802 -26.306  0.00  0.00     0.082 N 
HETATM    6  C   UNK     0      -5.111  12.891 -26.901  0.00  0.00     0.309 C 
HETATM    7  C   UNK     0      -7.447  13.311 -26.528  0.00  0.00     0.309 C 
ENDBRANCH   4   5
ENDBRANCH   3   4
ENDBRANCH   2   3
ENDBRANCH   1   2
BRANCH   1   8
HETATM    8  C   UNK     0      -2.867  18.271 -25.056  0.00  0.00    -0.025 A 
HETATM    9  C   UNK     0      -2.968  18.173 -23.681  0.00  0.00     0.010 A 
HETATM   10  C   UNK     0      -1.828  18.361 -22.900  0.00  0.00     0.001 A 
HETATM   11  C   UNK     0      -0.605  18.644 -23.509  0.00  0.00     0.000 A 
HETATM   12  C   UNK     0      -0.522  18.738 -24.898  0.00  0.00     0.001 A 
HETATM   13  C   UNK     0      -1.664  18.550 -25.679  0.00  0.00     0.010 A 
ENDBRANCH   1   8
BRANCH   1  14
HETATM   14  C   UNK     0      -4.173  19.010 -27.090  0.00  0.00    -0.025 A 
HETATM   15  C   UNK     0      -3.913  18.517 -28.355  0.00  0.00     0.010 A 
HETATM   16  C   UNK     0      -3.976  19.383 -29.447  0.00  0.00     0.001 A 
HETATM   17  C   UNK     0      -4.297  20.727 -29.252  0.00  0.00     0.000 A 
HETATM   18  C   UNK     0      -4.556  21.205 -27.968  0.00  0.00     0.001 A 
HETATM   19  C   UNK     0      -4.493  20.338 -26.876  0.00  0.00     0.010 A 
ENDBRANCH   1  14
TORSDOF 6
ENDMDL
