MODEL 1
REMARK VINA RESULT:      -7.4      0.000      0.000
REMARK  6 active torsions:
REMARK  status: ('A' for Active; 'I' for Inactive)
REMARK    1  A    between atoms: O_1  and  C_3 
REMARK    2  A    between atoms: O_1  and  C_6 
REMARK    3  A    between atoms: N_2  and  C_7 
REMARK    4  A    between atoms: C_3  and  C_4 
REMARK    5  A    between atoms: C_3  and  C_5 
REMARK    6  A    between atoms: C_6  and  C_7 
ROOT
HETATM    1  C   UNK     0       3.897   7.258  19.853  0.00  0.00     0.187 C 
ENDROOT
BRANCH   1   2
HETATM    2  O   UNK     0       5.012   7.070  18.992  0.00  0.00    -0.375 OA
BRANCH   2   3
HETATM    3  C   UNK     0       4.929   7.905  17.844  0.00  0.00     0.199 C 
BRANCH   3   4
HETATM    4  C   UNK     0       4.925   9.357  18.296  0.00  0.00     0.297 C 
BRANCH   4   5
HETATM    5  N   UNK     0       3.907  10.120  17.575  0.00  0.00     0.082 N 
HETATM    6  C   UNK     0       3.014  10.798  18.514  0.00  0.00     0.309 C 
HETATM    7  C   UNK     0       3.146   9.245  16.685  0.00  0.00     0.309 C 
ENDBRANCH   4   5
ENDBRANCH   3   4
ENDBRANCH   2   3
ENDBRANCH   1   2
BRANCH   1   8
HETATM    8  C   UNK     0       2.770   6.327  19.457  0.00  0.00    -0.025 A 
HETATM    9  C   UNK     0       1.557   6.864  19.068  0.00  0.00     0.010 A 
HETATM   10  C   UNK     0       0.519   6.008  18.702  0.00  0.00     0.001 A 
HETATM   11  C   UNK     0       0.712   4.626  18.733  0.00  0.00     0.000 A 
HETATM   12  C   UNK     0       1.942   4.102  19.128  0.00  0.00     0.001 A 
HETATM   13  C   UNK     0       2.980   4.960  19.493  0.00  0.00     0.010 A 
ENDBRANCH   1   8
BRANCH   1  14
HETATM   14  C   UNK     0       4.286   7.126  21.313  0.00  0.00    -0.025 A 
HETATM   15  C   UNK     0       5.611   7.286  21.672  0.00  0.00     0.010 A 
HETATM   16  C   UNK     0       5.971   7.166  23.014  0.00  0.00     0.001 A 
HETATM   17  C   UNK     0       4.997   6.888  23.974  0.00  0.00     0.000 A 
HETATM   18  C   UNK     0       3.665   6.731  23.592  0.00  0.00     0.001 A 
HETATM   19  C   UNK     0       3.306   6.850  22.249  0.00  0.00     0.010 A 
ENDBRANCH   1  14
TORSDOF 6
ENDMDL
MODEL 2
REMARK VINA RESULT:      -7.4      0.069      1.569
REMARK  6 active torsions:
REMARK  status: ('A' for Active; 'I' for Inactive)
REMARK    1  A    between atoms: O_1  and  C_3 
REMARK    2  A    between atoms: O_1  and  C_6 
REMARK    3  A    between atoms: N_2  and  C_7 
REMARK    4  A    between atoms: C_3  and  C_4 
REMARK    5  A    between atoms: C_3  and  C_5 
REMARK    6  A    between atoms: C_6  and  C_7 
ROOT
HETATM    1  C   UNK     0       3.907   7.280  19.833  0.00  0.00     0.187 C 
ENDROOT
BRANCH   1   2
HETATM    2  O   UNK     0       5.016   7.068  18.969  0.00  0.00    -0.375 OA
BRANCH   2   3
HETATM    3  C   UNK     0       4.923   7.867  17.796  0.00  0.00     0.199 C 
BRANCH   3   4
HETATM    4  C   UNK     0       5.002   9.332  18.197  0.00  0.00     0.297 C 
BRANCH   4   5
HETATM    5  N   UNK     0       3.944  10.104  17.545  0.00  0.00     0.082 N 
HETATM    6  C   UNK     0       3.039  10.674  18.543  0.00  0.00     0.309 C 
HETATM    7  C   UNK     0       3.205   9.265  16.603  0.00  0.00     0.309 C 
ENDBRANCH   4   5
ENDBRANCH   3   4
ENDBRANCH   2   3
ENDBRANCH   1   2
BRANCH   1   8
HETATM    8  C   UNK     0       2.765   6.363  19.449  0.00  0.00    -0.025 A 
HETATM    9  C   UNK     0       2.944   4.994  19.530  0.00  0.00     0.010 A 
HETATM   10  C   UNK     0       1.892   4.149  19.177  0.00  0.00     0.001 A 
HETATM   11  C   UNK     0       0.679   4.687  18.750  0.00  0.00     0.000 A 
HETATM   12  C   UNK     0       0.516   6.070  18.675  0.00  0.00     0.001 A 
HETATM   13  C   UNK     0       1.569   6.915  19.028  0.00  0.00     0.010 A 
ENDBRANCH   1   8
BRANCH   1  14
HETATM   14  C   UNK     0       4.301   7.156  21.292  0.00  0.00    -0.025 A 
HETATM   15  C   UNK     0       3.324   6.884  22.231  0.00  0.00     0.010 A 
HETATM   16  C   UNK     0       3.685   6.768  23.573  0.00  0.00     0.001 A 
HETATM   17  C   UNK     0       5.019   6.927  23.952  0.00  0.00     0.000 A 
HETATM   18  C   UNK     0       5.990   7.201  22.990  0.00  0.00     0.001 A 
HETATM   19  C   UNK     0       5.628   7.317  21.647  0.00  0.00     0.010 A 
ENDBRANCH   1  14
TORSDOF 6
ENDMDL
MODEL 3
REMARK VINA RESULT:      -7.3      0.976      1.675
REMARK  6 active torsions:
REMARK  status: ('A' for Active; 'I' for Inactive)
REMARK    1  A    between atoms: O_1  and  C_3 
REMARK    2  A    between atoms: O_1  and  C_6 
REMARK    3  A    between atoms: N_2  and  C_7 
REMARK    4  A    between atoms: C_3  and  C_4 
REMARK    5  A    between atoms: C_3  and  C_5 
REMARK    6  A    between atoms: C_6  and  C_7 
ROOT
HETATM    1  C   UNK     0       3.882   7.296  19.907  0.00  0.00     0.187 C 
ENDROOT
BRANCH   1   2
HETATM    2  O   UNK     0       5.000   7.139  19.042  0.00  0.00    -0.375 OA
BRANCH   2   3
HETATM    3  C   UNK     0       5.105   8.222  18.127  0.00  0.00     0.199 C 
BRANCH   3   4
HETATM    4  C   UNK     0       5.318   7.660  16.730  0.00  0.00     0.297 C 
BRANCH   4   5
HETATM    5  N   UNK     0       4.102   7.794  15.928  0.00  0.00     0.082 N 
HETATM    6  C   UNK     0       3.258   8.866  16.455  0.00  0.00     0.309 C 
HETATM    7  C   UNK     0       3.367   6.531  15.899  0.00  0.00     0.309 C 
ENDBRANCH   4   5
ENDBRANCH   3   4
ENDBRANCH   2   3
ENDBRANCH   1   2
BRANCH   1   8
HETATM    8  C   UNK     0       2.768   6.356  19.493  0.00  0.00    -0.025 A 
HETATM    9  C   UNK     0       2.994   4.993  19.514  0.00  0.00     0.010 A 
HETATM   10  C   UNK     0       1.969   4.127  19.134  0.00  0.00     0.001 A 
HETATM   11  C   UNK     0       0.734   4.641  18.738  0.00  0.00     0.000 A 
HETATM   12  C   UNK     0       0.524   6.020  18.722  0.00  0.00     0.001 A 
HETATM   13  C   UNK     0       1.550   6.885  19.103  0.00  0.00     0.010 A 
ENDBRANCH   1   8
BRANCH   1  14
HETATM   14  C   UNK     0       4.273   7.143  21.364  0.00  0.00    -0.025 A 
HETATM   15  C   UNK     0       5.601   7.282  21.721  0.00  0.00     0.010 A 
HETATM   16  C   UNK     0       5.962   7.143  23.061  0.00  0.00     0.001 A 
HETATM   17  C   UNK     0       4.986   6.868  24.020  0.00  0.00     0.000 A 
HETATM   18  C   UNK     0       3.652   6.732  23.640  0.00  0.00     0.001 A 
HETATM   19  C   UNK     0       3.292   6.870  22.299  0.00  0.00     0.010 A 
ENDBRANCH   1  14
TORSDOF 6
ENDMDL
