MODEL 1
REMARK VINA RESULT:      -6.6      0.000      0.000
REMARK  6 active torsions:
REMARK  status: ('A' for Active; 'I' for Inactive)
REMARK    1  A    between atoms: O_1  and  C_3 
REMARK    2  A    between atoms: O_1  and  C_6 
REMARK    3  A    between atoms: N_2  and  C_7 
REMARK    4  A    between atoms: C_3  and  C_4 
REMARK    5  A    between atoms: C_3  and  C_5 
REMARK    6  A    between atoms: C_6  and  C_7 
ROOT
HETATM    1  C   UNK     0      29.216  16.631   0.500  0.00  0.00     0.187 C 
ENDROOT
BRANCH   1   2
HETATM    2  O   UNK     0      30.343  17.057   1.255  0.00  0.00    -0.375 OA
BRANCH   2   3
HETATM    3  C   UNK     0      30.657  18.420   0.996  0.00  0.00     0.199 C 
BRANCH   3   4
HETATM    4  C   UNK     0      31.400  18.985   2.197  0.00  0.00     0.297 C 
BRANCH   4   5
HETATM    5  N   UNK     0      32.662  19.597   1.783  0.00  0.00     0.082 N 
HETATM    6  C   UNK     0      33.555  18.590   1.210  0.00  0.00     0.309 C 
HETATM    7  C   UNK     0      33.303  20.265   2.914  0.00  0.00     0.309 C 
ENDBRANCH   4   5
ENDBRANCH   3   4
ENDBRANCH   2   3
ENDBRANCH   1   2
BRANCH   1   8
HETATM    8  C   UNK     0      29.669  15.975  -0.788  0.00  0.00    -0.025 A 
HETATM    9  C   UNK     0      29.104  16.377  -1.984  0.00  0.00     0.010 A 
HETATM   10  C   UNK     0      29.521  15.773  -3.170  0.00  0.00     0.001 A 
HETATM   11  C   UNK     0      30.497  14.777  -3.140  0.00  0.00     0.000 A 
HETATM   12  C   UNK     0      31.056  14.384  -1.923  0.00  0.00     0.001 A 
HETATM   13  C   UNK     0      30.638  14.989  -0.737  0.00  0.00     0.010 A 
ENDBRANCH   1   8
BRANCH   1  14
HETATM   14  C   UNK     0      28.293  15.750   1.319  0.00  0.00    -0.025 A 
HETATM   15  C   UNK     0      27.146  15.251   0.732  0.00  0.00     0.010 A 
HETATM   16  C   UNK     0      26.296  14.439   1.485  0.00  0.00     0.001 A 
HETATM   17  C   UNK     0      26.611  14.141   2.811  0.00  0.00     0.000 A 
HETATM   18  C   UNK     0      27.774  14.654   3.385  0.00  0.00     0.001 A 
HETATM   19  C   UNK     0      28.623  15.467   2.632  0.00  0.00     0.010 A 
ENDBRANCH   1  14
TORSDOF 6
ENDMDL
MODEL 2
REMARK VINA RESULT:      -6.5      2.265      5.617
REMARK  6 active torsions:
REMARK  status: ('A' for Active; 'I' for Inactive)
REMARK    1  A    between atoms: O_1  and  C_3 
REMARK    2  A    between atoms: O_1  and  C_6 
REMARK    3  A    between atoms: N_2  and  C_7 
REMARK    4  A    between atoms: C_3  and  C_4 
REMARK    5  A    between atoms: C_3  and  C_5 
REMARK    6  A    between atoms: C_6  and  C_7 
ROOT
HETATM    1  C   UNK     0      29.779  16.439  -0.248  0.00  0.00     0.187 C 
ENDROOT
BRANCH   1   2
HETATM    2  O   UNK     0      30.336  15.402  -1.045  0.00  0.00    -0.375 OA
BRANCH   2   3
HETATM    3  C   UNK     0      30.208  15.685  -2.432  0.00  0.00     0.199 C 
BRANCH   3   4
HETATM    4  C   UNK     0      31.597  15.739  -3.049  0.00  0.00     0.297 C 
BRANCH   4   5
HETATM    5  N   UNK     0      31.752  14.701  -4.067  0.00  0.00     0.082 N 
HETATM    6  C   UNK     0      32.837  13.789  -3.707  0.00  0.00     0.309 C 
HETATM    7  C   UNK     0      31.999  15.300  -5.377  0.00  0.00     0.309 C 
ENDBRANCH   4   5
ENDBRANCH   3   4
ENDBRANCH   2   3
ENDBRANCH   1   2
BRANCH   1   8
HETATM    8  C   UNK     0      28.773  15.865   0.726  0.00  0.00    -0.025 A 
HETATM    9  C   UNK     0      27.509  15.533   0.274  0.00  0.00     0.010 A 
HETATM   10  C   UNK     0      26.582  15.004   1.171  0.00  0.00     0.001 A 
HETATM   11  C   UNK     0      26.935  14.815   2.507  0.00  0.00     0.000 A 
HETATM   12  C   UNK     0      28.214  15.155   2.946  0.00  0.00     0.001 A 
HETATM   13  C   UNK     0      29.141  15.684   2.048  0.00  0.00     0.010 A 
ENDBRANCH   1   8
BRANCH   1  14
HETATM   14  C   UNK     0      30.855  17.264   0.431  0.00  0.00    -0.025 A 
HETATM   15  C   UNK     0      30.507  18.461   1.028  0.00  0.00     0.010 A 
HETATM   16  C   UNK     0      31.496  19.221   1.654  0.00  0.00     0.001 A 
HETATM   17  C   UNK     0      32.816  18.768   1.671  0.00  0.00     0.000 A 
HETATM   18  C   UNK     0      33.147  17.557   1.064  0.00  0.00     0.001 A 
HETATM   19  C   UNK     0      32.157  16.798   0.437  0.00  0.00     0.010 A 
ENDBRANCH   1  14
TORSDOF 6
ENDMDL
MODEL 3
REMARK VINA RESULT:      -6.5      2.236      5.044
REMARK  6 active torsions:
REMARK  status: ('A' for Active; 'I' for Inactive)
REMARK    1  A    between atoms: O_1  and  C_3 
REMARK    2  A    between atoms: O_1  and  C_6 
REMARK    3  A    between atoms: N_2  and  C_7 
REMARK    4  A    between atoms: C_3  and  C_4 
REMARK    5  A    between atoms: C_3  and  C_5 
REMARK    6  A    between atoms: C_6  and  C_7 
ROOT
HETATM    1  C   UNK     0      30.147  16.156  -0.160  0.00  0.00     0.187 C 
ENDROOT
BRANCH   1   2
HETATM    2  O   UNK     0      29.649  16.619  -1.410  0.00  0.00    -0.375 OA
BRANCH   2   3
HETATM    3  C   UNK     0      30.245  15.922  -2.497  0.00  0.00     0.199 C 
BRANCH   3   4
HETATM    4  C   UNK     0      29.345  16.058  -3.715  0.00  0.00     0.297 C 
BRANCH   4   5
HETATM    5  N   UNK     0      27.971  16.355  -3.312  0.00  0.00     0.082 N 
HETATM    6  C   UNK     0      27.135  15.160  -3.426  0.00  0.00     0.309 C 
HETATM    7  C   UNK     0      27.424  17.442  -4.121  0.00  0.00     0.309 C 
ENDBRANCH   4   5
ENDBRANCH   3   4
ENDBRANCH   2   3
ENDBRANCH   1   2
BRANCH   1   8
HETATM    8  C   UNK     0      31.072  17.190   0.447  0.00  0.00    -0.025 A 
HETATM    9  C   UNK     0      32.436  16.959   0.442  0.00  0.00     0.010 A 
HETATM   10  C   UNK     0      33.288  17.910   1.001  0.00  0.00     0.001 A 
HETATM   11  C   UNK     0      32.763  19.078   1.555  0.00  0.00     0.000 A 
HETATM   12  C   UNK     0      31.385  19.294   1.550  0.00  0.00     0.001 A 
HETATM   13  C   UNK     0      30.532  18.341   0.991  0.00  0.00     0.010 A 
ENDBRANCH   1   8
BRANCH   1  14
HETATM   14  C   UNK     0      29.024  15.747   0.774  0.00  0.00    -0.025 A 
HETATM   15  C   UNK     0      29.299  15.568   2.116  0.00  0.00     0.010 A 
HETATM   16  C   UNK     0      28.267  15.192   2.977  0.00  0.00     0.001 A 
HETATM   17  C   UNK     0      26.978  15.003   2.477  0.00  0.00     0.000 A 
HETATM   18  C   UNK     0      26.720  15.190   1.120  0.00  0.00     0.001 A 
HETATM   19  C   UNK     0      27.753  15.565   0.260  0.00  0.00     0.010 A 
ENDBRANCH   1  14
TORSDOF 6
ENDMDL
