MODEL 1
REMARK VINA RESULT:      -6.3      0.000      0.000
REMARK  6 active torsions:
REMARK  status: ('A' for Active; 'I' for Inactive)
REMARK    1  A    between atoms: O_1  and  C_3 
REMARK    2  A    between atoms: O_1  and  C_6 
REMARK    3  A    between atoms: N_2  and  C_7 
REMARK    4  A    between atoms: C_3  and  C_4 
REMARK    5  A    between atoms: C_3  and  C_5 
REMARK    6  A    between atoms: C_6  and  C_7 
ROOT
HETATM    1  C   UNK     0      17.598  28.106  54.956  0.00  0.00     0.187 C 
ENDROOT
BRANCH   1   2
HETATM    2  O   UNK     0      17.921  28.128  53.571  0.00  0.00    -0.375 OA
BRANCH   2   3
HETATM    3  C   UNK     0      18.565  26.925  53.169  0.00  0.00     0.199 C 
BRANCH   3   4
HETATM    4  C   UNK     0      19.757  27.280  52.294  0.00  0.00     0.297 C 
BRANCH   4   5
HETATM    5  N   UNK     0      20.887  27.717  53.114  0.00  0.00     0.082 N 
HETATM    6  C   UNK     0      22.134  27.629  52.354  0.00  0.00     0.309 C 
HETATM    7  C   UNK     0      20.973  26.918  54.335  0.00  0.00     0.309 C 
ENDBRANCH   4   5
ENDBRANCH   3   4
ENDBRANCH   2   3
ENDBRANCH   1   2
BRANCH   1   8
HETATM    8  C   UNK     0      17.819  29.476  55.564  0.00  0.00    -0.025 A 
HETATM    9  C   UNK     0      18.544  30.418  54.857  0.00  0.00     0.010 A 
HETATM   10  C   UNK     0      18.749  31.679  55.417  0.00  0.00     0.001 A 
HETATM   11  C   UNK     0      18.224  31.977  56.674  0.00  0.00     0.000 A 
HETATM   12  C   UNK     0      17.495  31.014  57.372  0.00  0.00     0.001 A 
HETATM   13  C   UNK     0      17.291  29.752  56.812  0.00  0.00     0.010 A 
ENDBRANCH   1   8
BRANCH   1  14
HETATM   14  C   UNK     0      16.199  27.572  55.198  0.00  0.00    -0.025 A 
HETATM   15  C   UNK     0      15.131  28.169  54.555  0.00  0.00     0.010 A 
HETATM   16  C   UNK     0      13.845  27.677  54.776  0.00  0.00     0.001 A 
HETATM   17  C   UNK     0      13.650  26.596  55.636  0.00  0.00     0.000 A 
HETATM   18  C   UNK     0      14.741  26.007  56.275  0.00  0.00     0.001 A 
HETATM   19  C   UNK     0      16.027  26.499  56.054  0.00  0.00     0.010 A 
ENDBRANCH   1  14
TORSDOF 6
ENDMDL
MODEL 2
REMARK VINA RESULT:      -6.0      1.869      4.445
REMARK  6 active torsions:
REMARK  status: ('A' for Active; 'I' for Inactive)
REMARK    1  A    between atoms: O_1  and  C_3 
REMARK    2  A    between atoms: O_1  and  C_6 
REMARK    3  A    between atoms: N_2  and  C_7 
REMARK    4  A    between atoms: C_3  and  C_4 
REMARK    5  A    between atoms: C_3  and  C_5 
REMARK    6  A    between atoms: C_6  and  C_7 
ROOT
HETATM    1  C   UNK     0      17.466  28.660  54.967  0.00  0.00     0.187 C 
ENDROOT
BRANCH   1   2
HETATM    2  O   UNK     0      18.118  28.995  56.185  0.00  0.00    -0.375 OA
BRANCH   2   3
HETATM    3  C   UNK     0      17.798  30.317  56.600  0.00  0.00     0.199 C 
BRANCH   3   4
HETATM    4  C   UNK     0      18.366  31.297  55.585  0.00  0.00     0.297 C 
BRANCH   4   5
HETATM    5  N   UNK     0      18.137  32.677  56.014  0.00  0.00     0.082 N 
HETATM    6  C   UNK     0      17.238  33.359  55.083  0.00  0.00     0.309 C 
HETATM    7  C   UNK     0      19.405  33.396  56.122  0.00  0.00     0.309 C 
ENDBRANCH   4   5
ENDBRANCH   3   4
ENDBRANCH   2   3
ENDBRANCH   1   2
BRANCH   1   8
HETATM    8  C   UNK     0      18.425  27.933  54.046  0.00  0.00    -0.025 A 
HETATM    9  C   UNK     0      17.923  27.252  52.953  0.00  0.00     0.010 A 
HETATM   10  C   UNK     0      18.805  26.582  52.105  0.00  0.00     0.001 A 
HETATM   11  C   UNK     0      20.175  26.606  52.365  0.00  0.00     0.000 A 
HETATM   12  C   UNK     0      20.663  27.298  53.473  0.00  0.00     0.001 A 
HETATM   13  C   UNK     0      19.780  27.968  54.321  0.00  0.00     0.010 A 
ENDBRANCH   1   8
BRANCH   1  14
HETATM   14  C   UNK     0      16.183  27.890  55.210  0.00  0.00    -0.025 A 
HETATM   15  C   UNK     0      15.009  28.343  54.637  0.00  0.00     0.010 A 
HETATM   16  C   UNK     0      13.828  27.635  54.859  0.00  0.00     0.001 A 
HETATM   17  C   UNK     0      13.842  26.487  55.652  0.00  0.00     0.000 A 
HETATM   18  C   UNK     0      15.036  26.046  56.221  0.00  0.00     0.001 A 
HETATM   19  C   UNK     0      16.217  26.755  55.999  0.00  0.00     0.010 A 
ENDBRANCH   1  14
TORSDOF 6
ENDMDL
MODEL 3
REMARK VINA RESULT:      -5.9      2.295      5.098
REMARK  6 active torsions:
REMARK  status: ('A' for Active; 'I' for Inactive)
REMARK    1  A    between atoms: O_1  and  C_3 
REMARK    2  A    between atoms: O_1  and  C_6 
REMARK    3  A    between atoms: N_2  and  C_7 
REMARK    4  A    between atoms: C_3  and  C_4 
REMARK    5  A    between atoms: C_3  and  C_5 
REMARK    6  A    between atoms: C_6  and  C_7 
ROOT
HETATM    1  C   UNK     0      17.005  28.149  55.058  0.00  0.00     0.187 C 
ENDROOT
BRANCH   1   2
HETATM    2  O   UNK     0      16.723  27.264  56.134  0.00  0.00    -0.375 OA
BRANCH   2   3
HETATM    3  C   UNK     0      15.579  26.464  55.864  0.00  0.00     0.199 C 
BRANCH   3   4
HETATM    4  C   UNK     0      14.367  27.373  55.733  0.00  0.00     0.297 C 
BRANCH   4   5
HETATM    5  N   UNK     0      13.662  27.482  57.009  0.00  0.00     0.082 N 
HETATM    6  C   UNK     0      12.253  27.123  56.847  0.00  0.00     0.309 C 
HETATM    7  C   UNK     0      13.788  28.834  57.550  0.00  0.00     0.309 C 
ENDBRANCH   4   5
ENDBRANCH   3   4
ENDBRANCH   2   3
ENDBRANCH   1   2
BRANCH   1   8
HETATM    8  C   UNK     0      17.340  29.527  55.590  0.00  0.00    -0.025 A 
HETATM    9  C   UNK     0      17.347  29.739  56.956  0.00  0.00     0.010 A 
HETATM   10  C   UNK     0      17.655  31.007  57.446  0.00  0.00     0.001 A 
HETATM   11  C   UNK     0      17.952  32.043  56.561  0.00  0.00     0.000 A 
HETATM   12  C   UNK     0      17.941  31.811  55.186  0.00  0.00     0.001 A 
HETATM   13  C   UNK     0      17.631  30.542  54.696  0.00  0.00     0.010 A 
ENDBRANCH   1   8
BRANCH   1  14
HETATM   14  C   UNK     0      18.076  27.593  54.140  0.00  0.00    -0.025 A 
HETATM   15  C   UNK     0      17.701  27.016  52.942  0.00  0.00     0.010 A 
HETATM   16  C   UNK     0      18.686  26.505  52.096  0.00  0.00     0.001 A 
HETATM   17  C   UNK     0      20.030  26.582  52.466  0.00  0.00     0.000 A 
HETATM   18  C   UNK     0      20.388  27.168  53.679  0.00  0.00     0.001 A 
HETATM   19  C   UNK     0      19.402  27.679  54.524  0.00  0.00     0.010 A 
ENDBRANCH   1  14
TORSDOF 6
ENDMDL
