MODEL 1
REMARK VINA RESULT:      -6.1      0.000      0.000
REMARK  6 active torsions:
REMARK  status: ('A' for Active; 'I' for Inactive)
REMARK    1  A    between atoms: O_1  and  C_3 
REMARK    2  A    between atoms: O_1  and  C_6 
REMARK    3  A    between atoms: N_2  and  C_7 
REMARK    4  A    between atoms: C_3  and  C_4 
REMARK    5  A    between atoms: C_3  and  C_5 
REMARK    6  A    between atoms: C_6  and  C_7 
ROOT
HETATM    1  C   UNK     0      41.354   2.915  33.630  0.00  0.00     0.187 C 
ENDROOT
BRANCH   1   2
HETATM    2  O   UNK     0      41.030   3.742  32.520  0.00  0.00    -0.375 OA
BRANCH   2   3
HETATM    3  C   UNK     0      40.622   2.969  31.398  0.00  0.00     0.199 C 
BRANCH   3   4
HETATM    4  C   UNK     0      39.367   3.593  30.807  0.00  0.00     0.297 C 
BRANCH   4   5
HETATM    5  N   UNK     0      39.697   4.418  29.645  0.00  0.00     0.082 N 
HETATM    6  C   UNK     0      38.477   4.881  28.984  0.00  0.00     0.309 C 
HETATM    7  C   UNK     0      40.535   3.670  28.709  0.00  0.00     0.309 C 
ENDBRANCH   4   5
ENDBRANCH   3   4
ENDBRANCH   2   3
ENDBRANCH   1   2
BRANCH   1   8
HETATM    8  C   UNK     0      42.842   2.976  33.908  0.00  0.00    -0.025 A 
HETATM    9  C   UNK     0      43.526   4.152  33.662  0.00  0.00     0.010 A 
HETATM   10  C   UNK     0      44.896   4.208  33.918  0.00  0.00     0.001 A 
HETATM   11  C   UNK     0      45.558   3.086  34.417  0.00  0.00     0.000 A 
HETATM   12  C   UNK     0      44.852   1.909  34.659  0.00  0.00     0.001 A 
HETATM   13  C   UNK     0      43.481   1.853  34.403  0.00  0.00     0.010 A 
ENDBRANCH   1   8
BRANCH   1  14
HETATM   14  C   UNK     0      40.512   3.252  34.845  0.00  0.00    -0.025 A 
HETATM   15  C   UNK     0      39.564   4.253  34.749  0.00  0.00     0.010 A 
HETATM   16  C   UNK     0      38.787   4.563  35.865  0.00  0.00     0.001 A 
HETATM   17  C   UNK     0      38.973   3.865  37.059  0.00  0.00     0.000 A 
HETATM   18  C   UNK     0      39.935   2.857  37.136  0.00  0.00     0.001 A 
HETATM   19  C   UNK     0      40.711   2.548  36.019  0.00  0.00     0.010 A 
ENDBRANCH   1  14
TORSDOF 6
ENDMDL
MODEL 2
REMARK VINA RESULT:      -5.9      1.359      4.498
REMARK  6 active torsions:
REMARK  status: ('A' for Active; 'I' for Inactive)
REMARK    1  A    between atoms: O_1  and  C_3 
REMARK    2  A    between atoms: O_1  and  C_6 
REMARK    3  A    between atoms: N_2  and  C_7 
REMARK    4  A    between atoms: C_3  and  C_4 
REMARK    5  A    between atoms: C_3  and  C_5 
REMARK    6  A    between atoms: C_6  and  C_7 
ROOT
HETATM    1  C   UNK     0      40.386   3.736  34.799  0.00  0.00     0.187 C 
ENDROOT
BRANCH   1   2
HETATM    2  O   UNK     0      39.714   3.228  33.654  0.00  0.00    -0.375 OA
BRANCH   2   3
HETATM    3  C   UNK     0      40.382   3.595  32.453  0.00  0.00     0.199 C 
BRANCH   3   4
HETATM    4  C   UNK     0      39.458   3.318  31.277  0.00  0.00     0.297 C 
BRANCH   4   5
HETATM    5  N   UNK     0      39.722   4.250  30.182  0.00  0.00     0.082 N 
HETATM    6  C   UNK     0      38.599   4.269  29.245  0.00  0.00     0.309 C 
HETATM    7  C   UNK     0      40.959   3.891  29.491  0.00  0.00     0.309 C 
ENDBRANCH   4   5
ENDBRANCH   3   4
ENDBRANCH   2   3
ENDBRANCH   1   2
BRANCH   1   8
HETATM    8  C   UNK     0      39.381   4.122  35.865  0.00  0.00    -0.025 A 
HETATM    9  C   UNK     0      39.716   3.962  37.197  0.00  0.00     0.010 A 
HETATM   10  C   UNK     0      38.792   4.318  38.178  0.00  0.00     0.001 A 
HETATM   11  C   UNK     0      37.547   4.829  37.810  0.00  0.00     0.000 A 
HETATM   12  C   UNK     0      37.226   4.983  36.462  0.00  0.00     0.001 A 
HETATM   13  C   UNK     0      38.152   4.627  35.480  0.00  0.00     0.010 A 
ENDBRANCH   1   8
BRANCH   1  14
HETATM   14  C   UNK     0      41.441   2.770  35.304  0.00  0.00    -0.025 A 
HETATM   15  C   UNK     0      41.042   1.640  35.994  0.00  0.00     0.010 A 
HETATM   16  C   UNK     0      42.012   0.751  36.458  0.00  0.00     0.001 A 
HETATM   17  C   UNK     0      43.363   1.008  36.223  0.00  0.00     0.000 A 
HETATM   18  C   UNK     0      43.745   2.153  35.525  0.00  0.00     0.001 A 
HETATM   19  C   UNK     0      42.775   3.043  35.061  0.00  0.00     0.010 A 
ENDBRANCH   1  14
TORSDOF 6
ENDMDL
MODEL 3
REMARK VINA RESULT:      -5.7      1.260      2.019
REMARK  6 active torsions:
REMARK  status: ('A' for Active; 'I' for Inactive)
REMARK    1  A    between atoms: O_1  and  C_3 
REMARK    2  A    between atoms: O_1  and  C_6 
REMARK    3  A    between atoms: N_2  and  C_7 
REMARK    4  A    between atoms: C_3  and  C_4 
REMARK    5  A    between atoms: C_3  and  C_5 
REMARK    6  A    between atoms: C_6  and  C_7 
ROOT
HETATM    1  C   UNK     0      41.380   2.846  33.567  0.00  0.00     0.187 C 
ENDROOT
BRANCH   1   2
HETATM    2  O   UNK     0      41.028   3.629  32.434  0.00  0.00    -0.375 OA
BRANCH   2   3
HETATM    3  C   UNK     0      40.932   2.833  31.260  0.00  0.00     0.199 C 
BRANCH   3   4
HETATM    4  C   UNK     0      41.307   3.688  30.059  0.00  0.00     0.297 C 
BRANCH   4   5
HETATM    5  N   UNK     0      42.511   3.168  29.410  0.00  0.00     0.082 N 
HETATM    6  C   UNK     0      43.036   2.022  30.152  0.00  0.00     0.309 C 
HETATM    7  C   UNK     0      43.525   4.214  29.299  0.00  0.00     0.309 C 
ENDBRANCH   4   5
ENDBRANCH   3   4
ENDBRANCH   2   3
ENDBRANCH   1   2
BRANCH   1   8
HETATM    8  C   UNK     0      42.871   2.935  33.819  0.00  0.00    -0.025 A 
HETATM    9  C   UNK     0      43.513   4.147  33.642  0.00  0.00     0.010 A 
HETATM   10  C   UNK     0      44.885   4.230  33.875  0.00  0.00     0.001 A 
HETATM   11  C   UNK     0      45.593   3.099  34.280  0.00  0.00     0.000 A 
HETATM   12  C   UNK     0      44.929   1.885  34.454  0.00  0.00     0.001 A 
HETATM   13  C   UNK     0      43.556   1.803  34.221  0.00  0.00     0.010 A 
ENDBRANCH   1   8
BRANCH   1  14
HETATM   14  C   UNK     0      40.552   3.213  34.783  0.00  0.00    -0.025 A 
HETATM   15  C   UNK     0      40.757   2.529  35.966  0.00  0.00     0.010 A 
HETATM   16  C   UNK     0      39.996   2.866  37.086  0.00  0.00     0.001 A 
HETATM   17  C   UNK     0      39.044   3.883  37.001  0.00  0.00     0.000 A 
HETATM   18  C   UNK     0      38.852   4.561  35.798  0.00  0.00     0.001 A 
HETATM   19  C   UNK     0      39.613   4.223  34.678  0.00  0.00     0.010 A 
ENDBRANCH   1  14
TORSDOF 6
ENDMDL
