MODEL 1
REMARK VINA RESULT:      -7.2      0.000      0.000
REMARK  6 active torsions:
REMARK  status: ('A' for Active; 'I' for Inactive)
REMARK    1  A    between atoms: O_4  and  C_7 
REMARK    2  A    between atoms: O_4  and  C_10 
REMARK    3  A    between atoms: N_5  and  C_8 
REMARK    4  A    between atoms: C_7  and  C_8 
REMARK    5  A    between atoms: C_7  and  C_9 
REMARK    6  A    between atoms: C_10  and  C_13 
ROOT
HETATM    1  C   UNK     0      -7.790  59.348  30.528  0.00  0.00     0.174 C 
ENDROOT
BRANCH   1   2
HETATM    2  O   UNK     0      -6.386  59.145  30.490  0.00  0.00    -0.375 OA
BRANCH   2   3
HETATM    3  C   UNK     0      -5.682  60.378  30.409  0.00  0.00     0.207 C 
BRANCH   3   4
HETATM    4  C   UNK     0      -4.214  60.115  30.429  0.00  0.00    -0.035 A 
HETATM    5  C   UNK     0      -3.736  58.817  30.250  0.00  0.00     0.011 A 
HETATM    6  C   UNK     0      -2.363  58.570  30.269  0.00  0.00     0.024 A 
HETATM    7  C   UNK     0      -1.468  59.621  30.466  0.00  0.00     0.034 A 
HETATM    8 Cl   UNK     0       0.225  59.318  30.489  0.00  0.00    -0.084 Cl
HETATM    9  C   UNK     0      -1.946  60.920  30.644  0.00  0.00     0.024 A 
HETATM   10  C   UNK     0      -3.319  61.167  30.625  0.00  0.00     0.011 A 
ENDBRANCH   3   4
ENDBRANCH   2   3
ENDBRANCH   1   2
BRANCH   1  11
HETATM   11  C   UNK     0      -8.364  59.126  29.121  0.00  0.00     0.166 C 
BRANCH  11  12
HETATM   12  N   UNK     0      -9.754  59.545  28.984  0.00  0.00    -0.347 N 
HETATM   13  C   UNK     0     -10.194  60.828  28.936  0.00  0.00     0.111 A 
HETATM   14  C   UNK     0     -11.558  60.715  28.804  0.00  0.00     0.135 A 
HETATM   15  N   UNK     0     -11.945  59.399  28.772  0.00  0.00    -0.255 NA
HETATM   16  C   UNK     0     -10.826  58.718  28.883  0.00  0.00     0.209 A 
ENDBRANCH  11  12
ENDBRANCH   1  11
BRANCH   1  17
HETATM   17  C   UNK     0      -8.383  58.423  31.567  0.00  0.00    -0.006 A 
HETATM   18  C   UNK     0      -9.367  58.862  32.437  0.00  0.00     0.044 A 
HETATM   19 Cl   UNK     0      -9.972  60.477  32.389  0.00  0.00    -0.084 Cl
HETATM   20  C   UNK     0      -9.888  57.979  33.383  0.00  0.00     0.048 A 
HETATM   21  C   UNK     0      -9.420  56.667  33.446  0.00  0.00     0.035 A 
HETATM   22 Cl   UNK     0     -10.062  55.577  34.612  0.00  0.00    -0.084 Cl
HETATM   23  C   UNK     0      -8.428  56.238  32.563  0.00  0.00     0.024 A 
HETATM   24  C   UNK     0      -7.906  57.121  31.617  0.00  0.00     0.013 A 
ENDBRANCH   1  17
TORSDOF 6
ENDMDL
MODEL 2
REMARK VINA RESULT:      -6.9     27.947     31.272
REMARK  6 active torsions:
REMARK  status: ('A' for Active; 'I' for Inactive)
REMARK    1  A    between atoms: O_4  and  C_7 
REMARK    2  A    between atoms: O_4  and  C_10 
REMARK    3  A    between atoms: N_5  and  C_8 
REMARK    4  A    between atoms: C_7  and  C_8 
REMARK    5  A    between atoms: C_7  and  C_9 
REMARK    6  A    between atoms: C_10  and  C_13 
ROOT
HETATM    1  C   UNK     0      19.696  47.291  18.838  0.00  0.00     0.174 C 
ENDROOT
BRANCH   1   2
HETATM    2  O   UNK     0      18.571  47.558  18.015  0.00  0.00    -0.375 OA
BRANCH   2   3
HETATM    3  C   UNK     0      18.176  48.922  18.098  0.00  0.00     0.207 C 
BRANCH   3   4
HETATM    4  C   UNK     0      16.719  49.036  17.799  0.00  0.00    -0.035 A 
HETATM    5  C   UNK     0      15.790  48.361  18.589  0.00  0.00     0.011 A 
HETATM    6  C   UNK     0      14.428  48.467  18.309  0.00  0.00     0.024 A 
HETATM    7  C   UNK     0      13.994  49.250  17.239  0.00  0.00     0.034 A 
HETATM    8 Cl   UNK     0      12.314  49.381  16.894  0.00  0.00    -0.084 Cl
HETATM    9  C   UNK     0      14.924  49.926  16.449  0.00  0.00     0.024 A 
HETATM   10  C   UNK     0      16.286  49.820  16.729  0.00  0.00     0.011 A 
ENDBRANCH   3   4
ENDBRANCH   2   3
ENDBRANCH   1   2
BRANCH   1  11
HETATM   11  C   UNK     0      20.162  48.603  19.485  0.00  0.00     0.166 C 
BRANCH  11  12
HETATM   12  N   UNK     0      21.420  49.106  18.946  0.00  0.00    -0.347 N 
HETATM   13  C   UNK     0      21.736  50.412  18.756  0.00  0.00     0.111 A 
HETATM   14  C   UNK     0      23.008  50.382  18.236  0.00  0.00     0.135 A 
HETATM   15  N   UNK     0      23.461  49.093  18.109  0.00  0.00    -0.255 NA
HETATM   16  C   UNK     0      22.474  48.346  18.549  0.00  0.00     0.209 A 
ENDBRANCH  11  12
ENDBRANCH   1  11
BRANCH   1  17
HETATM   17  C   UNK     0      19.315  46.231  19.846  0.00  0.00    -0.006 A 
HETATM   18  C   UNK     0      20.229  45.273  20.257  0.00  0.00     0.044 A 
HETATM   19 Cl   UNK     0      21.844  45.233  19.648  0.00  0.00    -0.084 Cl
HETATM   20  C   UNK     0      19.840  44.310  21.188  0.00  0.00     0.048 A 
HETATM   21  C   UNK     0      18.542  44.317  21.698  0.00  0.00     0.035 A 
HETATM   22 Cl   UNK     0      18.061  43.130  22.847  0.00  0.00    -0.084 Cl
HETATM   23  C   UNK     0      17.632  45.287  21.276  0.00  0.00     0.024 A 
HETATM   24  C   UNK     0      18.021  46.250  20.345  0.00  0.00     0.013 A 
ENDBRANCH   1  17
TORSDOF 6
ENDMDL
MODEL 3
REMARK VINA RESULT:      -6.8     26.694     30.549
REMARK  6 active torsions:
REMARK  status: ('A' for Active; 'I' for Inactive)
REMARK    1  A    between atoms: O_4  and  C_7 
REMARK    2  A    between atoms: O_4  and  C_10 
REMARK    3  A    between atoms: N_5  and  C_8 
REMARK    4  A    between atoms: C_7  and  C_8 
REMARK    5  A    between atoms: C_7  and  C_9 
REMARK    6  A    between atoms: C_10  and  C_13 
ROOT
HETATM    1  C   UNK     0      18.312  46.071  21.398  0.00  0.00     0.174 C 
ENDROOT
BRANCH   1   2
HETATM    2  O   UNK     0      17.064  46.253  20.746  0.00  0.00    -0.375 OA
BRANCH   2   3
HETATM    3  C   UNK     0      16.402  47.425  21.206  0.00  0.00     0.207 C 
BRANCH   3   4
HETATM    4  C   UNK     0      15.424  47.879  20.175  0.00  0.00    -0.035 A 
HETATM    5  C   UNK     0      15.841  48.087  18.861  0.00  0.00     0.011 A 
HETATM    6  C   UNK     0      14.926  48.512  17.898  0.00  0.00     0.024 A 
HETATM    7  C   UNK     0      13.593  48.728  18.248  0.00  0.00     0.034 A 
HETATM    8 Cl   UNK     0      12.464  49.252  17.061  0.00  0.00    -0.084 Cl
HETATM    9  C   UNK     0      13.175  48.519  19.563  0.00  0.00     0.024 A 
HETATM   10  C   UNK     0      14.090  48.094  20.527  0.00  0.00     0.011 A 
ENDBRANCH   3   4
ENDBRANCH   2   3
ENDBRANCH   1   2
BRANCH   1  11
HETATM   11  C   UNK     0      18.642  44.571  21.429  0.00  0.00     0.166 C 
BRANCH  11  12
HETATM   12  N   UNK     0      18.864  44.049  22.773  0.00  0.00    -0.347 N 
HETATM   13  C   UNK     0      19.709  44.572  23.697  0.00  0.00     0.111 A 
HETATM   14  C   UNK     0      19.573  43.746  24.787  0.00  0.00     0.135 A 
HETATM   15  N   UNK     0      18.670  42.743  24.540  0.00  0.00    -0.255 NA
HETATM   16  C   UNK     0      18.260  42.958  23.310  0.00  0.00     0.209 A 
ENDBRANCH  11  12
ENDBRANCH   1  11
BRANCH   1  17
HETATM   17  C   UNK     0      19.356  46.896  20.682  0.00  0.00    -0.006 A 
HETATM   18  C   UNK     0      20.110  47.841  21.360  0.00  0.00     0.044 A 
HETATM   19 Cl   UNK     0      19.906  48.128  23.050  0.00  0.00    -0.084 Cl
HETATM   20  C   UNK     0      21.063  48.584  20.664  0.00  0.00     0.048 A 
HETATM   21  C   UNK     0      21.251  48.374  19.299  0.00  0.00     0.035 A 
HETATM   22 Cl   UNK     0      22.426  49.292  18.439  0.00  0.00    -0.084 Cl
HETATM   23  C   UNK     0      20.485  47.421  18.628  0.00  0.00     0.024 A 
HETATM   24  C   UNK     0      19.532  46.677  19.323  0.00  0.00     0.013 A 
ENDBRANCH   1  17
TORSDOF 6
ENDMDL
