MODEL 1
REMARK VINA RESULT:      -6.7      0.000      0.000
REMARK  6 active torsions:
REMARK  status: ('A' for Active; 'I' for Inactive)
REMARK    1  A    between atoms: O_4  and  C_7 
REMARK    2  A    between atoms: O_4  and  C_10 
REMARK    3  A    between atoms: N_5  and  C_8 
REMARK    4  A    between atoms: C_7  and  C_8 
REMARK    5  A    between atoms: C_7  and  C_9 
REMARK    6  A    between atoms: C_10  and  C_13 
ROOT
HETATM    1  C   UNK     0      15.684  29.464  21.179  0.00  0.00     0.174 C 
ENDROOT
BRANCH   1   2
HETATM    2  O   UNK     0      16.886  28.807  21.553  0.00  0.00    -0.375 OA
BRANCH   2   3
HETATM    3  C   UNK     0      17.059  27.589  20.838  0.00  0.00     0.207 C 
BRANCH   3   4
HETATM    4  C   UNK     0      18.083  27.781  19.771  0.00  0.00    -0.035 A 
HETATM    5  C   UNK     0      17.683  28.029  18.458  0.00  0.00     0.011 A 
HETATM    6  C   UNK     0      18.641  28.208  17.459  0.00  0.00     0.024 A 
HETATM    7  C   UNK     0      19.998  28.140  17.774  0.00  0.00     0.034 A 
HETATM    8 Cl   UNK     0      21.179  28.361  16.543  0.00  0.00    -0.084 Cl
HETATM    9  C   UNK     0      20.398  27.893  19.087  0.00  0.00     0.024 A 
HETATM   10  C   UNK     0      19.440  27.714  20.086  0.00  0.00     0.011 A 
ENDBRANCH   3   4
ENDBRANCH   2   3
ENDBRANCH   1   2
BRANCH   1  11
HETATM   11  C   UNK     0      14.525  28.458  21.250  0.00  0.00     0.166 C 
BRANCH  11  12
HETATM   12  N   UNK     0      13.534  28.633  20.195  0.00  0.00    -0.347 N 
HETATM   13  C   UNK     0      12.610  29.626  20.131  0.00  0.00     0.111 A 
HETATM   14  C   UNK     0      11.916  29.370  18.972  0.00  0.00     0.135 A 
HETATM   15  N   UNK     0      12.400  28.252  18.342  0.00  0.00    -0.255 NA
HETATM   16  C   UNK     0      13.380  27.831  19.110  0.00  0.00     0.209 A 
ENDBRANCH  11  12
ENDBRANCH   1  11
BRANCH   1  17
HETATM   17  C   UNK     0      15.489  30.662  22.080  0.00  0.00    -0.006 A 
HETATM   18  C   UNK     0      15.549  31.952  21.577  0.00  0.00     0.044 A 
HETATM   19 Cl   UNK     0      15.846  32.266  19.907  0.00  0.00    -0.084 Cl
HETATM   20  C   UNK     0      15.366  33.032  22.441  0.00  0.00     0.048 A 
HETATM   21  C   UNK     0      15.124  32.809  23.796  0.00  0.00     0.035 A 
HETATM   22 Cl   UNK     0      14.898  34.142  24.861  0.00  0.00    -0.084 Cl
HETATM   23  C   UNK     0      15.067  31.506  24.289  0.00  0.00     0.024 A 
HETATM   24  C   UNK     0      15.250  30.425  23.426  0.00  0.00     0.013 A 
ENDBRANCH   1  17
TORSDOF 6
ENDMDL
MODEL 2
REMARK VINA RESULT:      -6.5      2.602      6.841
REMARK  6 active torsions:
REMARK  status: ('A' for Active; 'I' for Inactive)
REMARK    1  A    between atoms: O_4  and  C_7 
REMARK    2  A    between atoms: O_4  and  C_10 
REMARK    3  A    between atoms: N_5  and  C_8 
REMARK    4  A    between atoms: C_7  and  C_8 
REMARK    5  A    between atoms: C_7  and  C_9 
REMARK    6  A    between atoms: C_10  and  C_13 
ROOT
HETATM    1  C   UNK     0      15.085  29.076  19.955  0.00  0.00     0.174 C 
ENDROOT
BRANCH   1   2
HETATM    2  O   UNK     0      14.862  28.855  21.340  0.00  0.00    -0.375 OA
BRANCH   2   3
HETATM    3  C   UNK     0      15.541  29.818  22.137  0.00  0.00     0.207 C 
BRANCH   3   4
HETATM    4  C   UNK     0      14.583  30.426  23.105  0.00  0.00    -0.035 A 
HETATM    5  C   UNK     0      15.052  31.257  24.122  0.00  0.00     0.011 A 
HETATM    6  C   UNK     0      14.156  31.824  25.028  0.00  0.00     0.024 A 
HETATM    7  C   UNK     0      12.790  31.562  24.916  0.00  0.00     0.034 A 
HETATM    8 Cl   UNK     0      11.685  32.263  26.033  0.00  0.00    -0.084 Cl
HETATM    9  C   UNK     0      12.321  30.731  23.899  0.00  0.00     0.024 A 
HETATM   10  C   UNK     0      13.217  30.164  22.993  0.00  0.00     0.011 A 
ENDBRANCH   3   4
ENDBRANCH   2   3
ENDBRANCH   1   2
BRANCH   1  11
HETATM   11  C   UNK     0      15.740  27.824  19.352  0.00  0.00     0.166 C 
BRANCH  11  12
HETATM   12  N   UNK     0      17.189  27.790  19.511  0.00  0.00    -0.347 N 
HETATM   13  C   UNK     0      18.099  28.145  18.568  0.00  0.00     0.111 A 
HETATM   14  C   UNK     0      19.315  27.944  19.177  0.00  0.00     0.135 A 
HETATM   15  N   UNK     0      19.157  27.476  20.457  0.00  0.00    -0.255 NA
HETATM   16  C   UNK     0      17.856  27.396  20.626  0.00  0.00     0.209 A 
ENDBRANCH  11  12
ENDBRANCH   1  11
BRANCH   1  17
HETATM   17  C   UNK     0      13.767  29.431  19.306  0.00  0.00    -0.006 A 
HETATM   18  C   UNK     0      13.350  30.749  19.211  0.00  0.00     0.044 A 
HETATM   19 Cl   UNK     0      14.300  32.053  19.822  0.00  0.00    -0.084 Cl
HETATM   20  C   UNK     0      12.126  31.037  18.605  0.00  0.00     0.048 A 
HETATM   21  C   UNK     0      11.336  30.005  18.102  0.00  0.00     0.035 A 
HETATM   22 Cl   UNK     0       9.827  30.359  17.354  0.00  0.00    -0.084 Cl
HETATM   23  C   UNK     0      11.769  28.682  18.204  0.00  0.00     0.024 A 
HETATM   24  C   UNK     0      12.992  28.393  18.809  0.00  0.00     0.013 A 
ENDBRANCH   1  17
TORSDOF 6
ENDMDL
MODEL 3
REMARK VINA RESULT:      -6.5      2.912      6.146
REMARK  6 active torsions:
REMARK  status: ('A' for Active; 'I' for Inactive)
REMARK    1  A    between atoms: O_4  and  C_7 
REMARK    2  A    between atoms: O_4  and  C_10 
REMARK    3  A    between atoms: N_5  and  C_8 
REMARK    4  A    between atoms: C_7  and  C_8 
REMARK    5  A    between atoms: C_7  and  C_9 
REMARK    6  A    between atoms: C_10  and  C_13 
ROOT
HETATM    1  C   UNK     0      14.438  28.691  20.459  0.00  0.00     0.174 C 
ENDROOT
BRANCH   1   2
HETATM    2  O   UNK     0      13.075  28.753  20.067  0.00  0.00    -0.375 OA
BRANCH   2   3
HETATM    3  C   UNK     0      12.897  28.310  18.727  0.00  0.00     0.207 C 
BRANCH   3   4
HETATM    4  C   UNK     0      11.790  29.082  18.092  0.00  0.00    -0.035 A 
HETATM    5  C   UNK     0      10.946  28.461  17.171  0.00  0.00     0.011 A 
HETATM    6  C   UNK     0       9.911  29.183  16.576  0.00  0.00     0.024 A 
HETATM    7  C   UNK     0       9.719  30.526  16.904  0.00  0.00     0.034 A 
HETATM    8 Cl   UNK     0       8.443  31.416  16.171  0.00  0.00    -0.084 Cl
HETATM    9  C   UNK     0      10.563  31.146  17.825  0.00  0.00     0.024 A 
HETATM   10  C   UNK     0      11.598  30.424  18.420  0.00  0.00     0.011 A 
ENDBRANCH   3   4
ENDBRANCH   2   3
ENDBRANCH   1   2
BRANCH   1  11
HETATM   11  C   UNK     0      15.265  28.128  19.294  0.00  0.00     0.166 C 
BRANCH  11  12
HETATM   12  N   UNK     0      16.668  27.905  19.627  0.00  0.00    -0.347 N 
HETATM   13  C   UNK     0      17.727  28.180  18.825  0.00  0.00     0.111 A 
HETATM   14  C   UNK     0      18.822  27.804  19.566  0.00  0.00     0.135 A 
HETATM   15  N   UNK     0      18.446  27.311  20.790  0.00  0.00    -0.255 NA
HETATM   16  C   UNK     0      17.133  27.387  20.793  0.00  0.00     0.209 A 
ENDBRANCH  11  12
ENDBRANCH   1  11
BRANCH   1  17
HETATM   17  C   UNK     0      14.879  30.071  20.891  0.00  0.00    -0.006 A 
HETATM   18  C   UNK     0      14.916  30.422  22.231  0.00  0.00     0.044 A 
HETATM   19 Cl   UNK     0      14.468  29.316  23.477  0.00  0.00    -0.084 Cl
HETATM   20  C   UNK     0      15.327  31.706  22.590  0.00  0.00     0.048 A 
HETATM   21  C   UNK     0      15.696  32.622  21.605  0.00  0.00     0.035 A 
HETATM   22 Cl   UNK     0      16.203  34.206  22.048  0.00  0.00    -0.084 Cl
HETATM   23  C   UNK     0      15.653  32.255  20.260  0.00  0.00     0.024 A 
HETATM   24  C   UNK     0      15.243  30.971  19.900  0.00  0.00     0.013 A 
ENDBRANCH   1  17
TORSDOF 6
ENDMDL
