MODEL 1
REMARK VINA RESULT:      -7.1      0.000      0.000
REMARK  6 active torsions:
REMARK  status: ('A' for Active; 'I' for Inactive)
REMARK    1  A    between atoms: O_4  and  C_7 
REMARK    2  A    between atoms: O_4  and  C_10 
REMARK    3  A    between atoms: N_5  and  C_8 
REMARK    4  A    between atoms: C_7  and  C_8 
REMARK    5  A    between atoms: C_7  and  C_9 
REMARK    6  A    between atoms: C_10  and  C_13 
ROOT
HETATM    1  C   UNK     0      10.294  14.055   3.366  0.00  0.00     0.174 C 
ENDROOT
BRANCH   1   2
HETATM    2  O   UNK     0       8.924  14.274   3.666  0.00  0.00    -0.375 OA
BRANCH   2   3
HETATM    3  C   UNK     0       8.764  14.942   4.912  0.00  0.00     0.207 C 
BRANCH   3   4
HETATM    4  C   UNK     0       8.106  14.025   5.886  0.00  0.00    -0.035 A 
HETATM    5  C   UNK     0       6.744  14.157   6.159  0.00  0.00     0.011 A 
HETATM    6  C   UNK     0       6.129  13.300   7.071  0.00  0.00     0.024 A 
HETATM    7  C   UNK     0       6.875  12.309   7.709  0.00  0.00     0.034 A 
HETATM    8 Cl   UNK     0       6.116  11.251   8.834  0.00  0.00    -0.084 Cl
HETATM    9  C   UNK     0       8.236  12.176   7.436  0.00  0.00     0.024 A 
HETATM   10  C   UNK     0       8.852  13.033   6.524  0.00  0.00     0.011 A 
ENDBRANCH   3   4
ENDBRANCH   2   3
ENDBRANCH   1   2
BRANCH   1  11
HETATM   11  C   UNK     0      10.495  12.572   3.017  0.00  0.00     0.166 C 
BRANCH  11  12
HETATM   12  N   UNK     0      11.637  11.963   3.689  0.00  0.00    -0.347 N 
HETATM   13  C   UNK     0      11.873  10.632   3.801  0.00  0.00     0.111 A 
HETATM   14  C   UNK     0      13.051  10.554   4.506  0.00  0.00     0.135 A 
HETATM   15  N   UNK     0      13.525  11.803   4.818  0.00  0.00    -0.255 NA
HETATM   16  C   UNK     0      12.644  12.633   4.307  0.00  0.00     0.209 A 
ENDBRANCH  11  12
ENDBRANCH   1  11
BRANCH   1  17
HETATM   17  C   UNK     0      10.699  14.990   2.250  0.00  0.00    -0.006 A 
HETATM   18  C   UNK     0      11.644  15.983   2.457  0.00  0.00     0.044 A 
HETATM   19 Cl   UNK     0      12.409  16.209   3.987  0.00  0.00    -0.084 Cl
HETATM   20  C   UNK     0      11.990  16.828   1.403  0.00  0.00     0.048 A 
HETATM   21  C   UNK     0      11.389  16.670   0.155  0.00  0.00     0.035 A 
HETATM   22 Cl   UNK     0      11.817  17.713  -1.146  0.00  0.00    -0.084 Cl
HETATM   23  C   UNK     0      10.440  15.667  -0.040  0.00  0.00     0.024 A 
HETATM   24  C   UNK     0      10.093  14.821   1.014  0.00  0.00     0.013 A 
ENDBRANCH   1  17
TORSDOF 6
ENDMDL
MODEL 2
REMARK VINA RESULT:      -7.1      0.402      1.240
REMARK  6 active torsions:
REMARK  status: ('A' for Active; 'I' for Inactive)
REMARK    1  A    between atoms: O_4  and  C_7 
REMARK    2  A    between atoms: O_4  and  C_10 
REMARK    3  A    between atoms: N_5  and  C_8 
REMARK    4  A    between atoms: C_7  and  C_8 
REMARK    5  A    between atoms: C_7  and  C_9 
REMARK    6  A    between atoms: C_10  and  C_13 
ROOT
HETATM    1  C   UNK     0      10.310  14.063   3.359  0.00  0.00     0.174 C 
ENDROOT
BRANCH   1   2
HETATM    2  O   UNK     0       8.938  14.287   3.649  0.00  0.00    -0.375 OA
BRANCH   2   3
HETATM    3  C   UNK     0       8.770  14.956   4.893  0.00  0.00     0.207 C 
BRANCH   3   4
HETATM    4  C   UNK     0       8.107  14.040   5.865  0.00  0.00    -0.035 A 
HETATM    5  C   UNK     0       8.852  13.060   6.519  0.00  0.00     0.011 A 
HETATM    6  C   UNK     0       8.231  12.202   7.427  0.00  0.00     0.024 A 
HETATM    7  C   UNK     0       6.866  12.325   7.683  0.00  0.00     0.034 A 
HETATM    8 Cl   UNK     0       6.100  11.268   8.803  0.00  0.00    -0.084 Cl
HETATM    9  C   UNK     0       6.120  13.307   7.029  0.00  0.00     0.024 A 
HETATM   10  C   UNK     0       6.741  14.165   6.120  0.00  0.00     0.011 A 
ENDBRANCH   3   4
ENDBRANCH   2   3
ENDBRANCH   1   2
BRANCH   1  11
HETATM   11  C   UNK     0      10.508  12.581   3.008  0.00  0.00     0.166 C 
BRANCH  11  12
HETATM   12  N   UNK     0      11.633  11.963   3.700  0.00  0.00    -0.347 N 
HETATM   13  C   UNK     0      12.657  12.623   4.298  0.00  0.00     0.111 A 
HETATM   14  C   UNK     0      13.456  11.626   4.803  0.00  0.00     0.135 A 
HETATM   15  N   UNK     0      12.939  10.387   4.523  0.00  0.00    -0.255 NA
HETATM   16  C   UNK     0      11.834  10.628   3.854  0.00  0.00     0.209 A 
ENDBRANCH  11  12
ENDBRANCH   1  11
BRANCH   1  17
HETATM   17  C   UNK     0      10.726  15.000   2.248  0.00  0.00    -0.006 A 
HETATM   18  C   UNK     0      11.670  15.991   2.465  0.00  0.00     0.044 A 
HETATM   19 Cl   UNK     0      12.422  16.213   4.003  0.00  0.00    -0.084 Cl
HETATM   20  C   UNK     0      12.028  16.837   1.415  0.00  0.00     0.048 A 
HETATM   21  C   UNK     0      11.438  16.681   0.162  0.00  0.00     0.035 A 
HETATM   22 Cl   UNK     0      11.879  17.725  -1.134  0.00  0.00    -0.084 Cl
HETATM   23  C   UNK     0      10.489  15.680  -0.043  0.00  0.00     0.024 A 
HETATM   24  C   UNK     0      10.131  14.833   1.006  0.00  0.00     0.013 A 
ENDBRANCH   1  17
TORSDOF 6
ENDMDL
MODEL 3
REMARK VINA RESULT:      -7.0      0.925      1.378
REMARK  6 active torsions:
REMARK  status: ('A' for Active; 'I' for Inactive)
REMARK    1  A    between atoms: O_4  and  C_7 
REMARK    2  A    between atoms: O_4  and  C_10 
REMARK    3  A    between atoms: N_5  and  C_8 
REMARK    4  A    between atoms: C_7  and  C_8 
REMARK    5  A    between atoms: C_7  and  C_9 
REMARK    6  A    between atoms: C_10  and  C_13 
ROOT
HETATM    1  C   UNK     0      10.556  13.812   3.432  0.00  0.00     0.174 C 
ENDROOT
BRANCH   1   2
HETATM    2  O   UNK     0       9.172  13.894   3.739  0.00  0.00    -0.375 OA
BRANCH   2   3
HETATM    3  C   UNK     0       8.937  14.726   4.868  0.00  0.00     0.207 C 
BRANCH   3   4
HETATM    4  C   UNK     0       8.169  13.965   5.895  0.00  0.00    -0.035 A 
HETATM    5  C   UNK     0       8.827  13.066   6.733  0.00  0.00     0.011 A 
HETATM    6  C   UNK     0       8.109  12.353   7.693  0.00  0.00     0.024 A 
HETATM    7  C   UNK     0       6.732  12.541   7.816  0.00  0.00     0.034 A 
HETATM    8 Cl   UNK     0       5.846  11.662   9.000  0.00  0.00    -0.084 Cl
HETATM    9  C   UNK     0       6.074  13.441   6.978  0.00  0.00     0.024 A 
HETATM   10  C   UNK     0       6.792  14.154   6.018  0.00  0.00     0.011 A 
ENDBRANCH   3   4
ENDBRANCH   2   3
ENDBRANCH   1   2
BRANCH   1  11
HETATM   11  C   UNK     0      10.904  12.356   3.089  0.00  0.00     0.166 C 
BRANCH  11  12
HETATM   12  N   UNK     0      10.997  11.487   4.256  0.00  0.00    -0.347 N 
HETATM   13  C   UNK     0      10.177  10.441   4.533  0.00  0.00     0.111 A 
HETATM   14  C   UNK     0      10.655   9.940   5.720  0.00  0.00     0.135 A 
HETATM   15  N   UNK     0      11.737  10.658   6.162  0.00  0.00    -0.255 NA
HETATM   16  C   UNK     0      11.917  11.588   5.250  0.00  0.00     0.209 A 
ENDBRANCH  11  12
ENDBRANCH   1  11
BRANCH   1  17
HETATM   17  C   UNK     0      10.858  14.778   2.309  0.00  0.00    -0.006 A 
HETATM   18  C   UNK     0      11.792  15.789   2.468  0.00  0.00     0.044 A 
HETATM   19 Cl   UNK     0      12.660  16.005   3.943  0.00  0.00    -0.084 Cl
HETATM   20  C   UNK     0      12.043  16.662   1.408  0.00  0.00     0.048 A 
HETATM   21  C   UNK     0      11.357  16.512   0.204  0.00  0.00     0.035 A 
HETATM   22 Cl   UNK     0      11.665  17.589  -1.104  0.00  0.00    -0.084 Cl
HETATM   23  C   UNK     0      10.419  15.490   0.058  0.00  0.00     0.024 A 
HETATM   24  C   UNK     0      10.168  14.617   1.116  0.00  0.00     0.013 A 
ENDBRANCH   1  17
TORSDOF 6
ENDMDL
