MODEL 1
REMARK VINA RESULT:      -9.2      0.000      0.000
REMARK  6 active torsions:
REMARK  status: ('A' for Active; 'I' for Inactive)
REMARK    1  A    between atoms: O_4  and  C_7 
REMARK    2  A    between atoms: O_4  and  C_10 
REMARK    3  A    between atoms: N_5  and  C_8 
REMARK    4  A    between atoms: C_7  and  C_8 
REMARK    5  A    between atoms: C_7  and  C_9 
REMARK    6  A    between atoms: C_10  and  C_13 
ROOT
HETATM    1  C   UNK     0      53.295 -11.113  30.333  0.00  0.00     0.174 C 
ENDROOT
BRANCH   1   2
HETATM    2  O   UNK     0      51.962 -11.598  30.367  0.00  0.00    -0.375 OA
BRANCH   2   3
HETATM    3  C   UNK     0      51.789 -12.710  29.497  0.00  0.00     0.207 C 
BRANCH   3   4
HETATM    4  C   UNK     0      51.938 -13.975  30.273  0.00  0.00    -0.035 A 
HETATM    5  C   UNK     0      53.067 -14.774  30.094  0.00  0.00     0.011 A 
HETATM    6  C   UNK     0      53.206 -15.958  30.818  0.00  0.00     0.024 A 
HETATM    7  C   UNK     0      52.217 -16.343  31.723  0.00  0.00     0.034 A 
HETATM    8 Cl   UNK     0      52.388 -17.802  32.617  0.00  0.00    -0.084 Cl
HETATM    9  C   UNK     0      51.087 -15.543  31.902  0.00  0.00     0.024 A 
HETATM   10  C   UNK     0      50.948 -14.359  31.178  0.00  0.00     0.011 A 
ENDBRANCH   3   4
ENDBRANCH   2   3
ENDBRANCH   1   2
BRANCH   1  11
HETATM   11  C   UNK     0      53.277  -9.639  29.899  0.00  0.00     0.166 C 
BRANCH  11  12
HETATM   12  N   UNK     0      53.497  -9.448  28.470  0.00  0.00    -0.347 N 
HETATM   13  C   UNK     0      53.960 -10.387  27.606  0.00  0.00     0.111 A 
HETATM   14  C   UNK     0      53.997  -9.743  26.393  0.00  0.00     0.135 A 
HETATM   15  N   UNK     0      53.570  -8.444  26.507  0.00  0.00    -0.255 NA
HETATM   16  C   UNK     0      53.274  -8.300  27.780  0.00  0.00     0.209 A 
ENDBRANCH  11  12
ENDBRANCH   1  11
BRANCH   1  17
HETATM   17  C   UNK     0      53.922 -11.326  31.692  0.00  0.00    -0.006 A 
HETATM   18  C   UNK     0      55.039 -12.132  31.845  0.00  0.00     0.044 A 
HETATM   19 Cl   UNK     0      55.777 -12.933  30.507  0.00  0.00    -0.084 Cl
HETATM   20  C   UNK     0      55.587 -12.306  33.116  0.00  0.00     0.048 A 
HETATM   21  C   UNK     0      55.013 -11.672  34.217  0.00  0.00     0.035 A 
HETATM   22 Cl   UNK     0      55.690 -11.886  35.785  0.00  0.00    -0.084 Cl
HETATM   23  C   UNK     0      53.889 -10.864  34.048  0.00  0.00     0.024 A 
HETATM   24  C   UNK     0      53.340 -10.689  32.778  0.00  0.00     0.013 A 
ENDBRANCH   1  17
TORSDOF 6
ENDMDL
MODEL 2
REMARK VINA RESULT:      -9.1      1.575      4.656
REMARK  6 active torsions:
REMARK  status: ('A' for Active; 'I' for Inactive)
REMARK    1  A    between atoms: O_4  and  C_7 
REMARK    2  A    between atoms: O_4  and  C_10 
REMARK    3  A    between atoms: N_5  and  C_8 
REMARK    4  A    between atoms: C_7  and  C_8 
REMARK    5  A    between atoms: C_7  and  C_9 
REMARK    6  A    between atoms: C_10  and  C_13 
ROOT
HETATM    1  C   UNK     0      52.567 -12.688  29.688  0.00  0.00     0.174 C 
ENDROOT
BRANCH   1   2
HETATM    2  O   UNK     0      52.914 -11.712  30.659  0.00  0.00    -0.375 OA
BRANCH   2   3
HETATM    3  C   UNK     0      54.321 -11.654  30.860  0.00  0.00     0.207 C 
BRANCH   3   4
HETATM    4  C   UNK     0      54.621 -11.799  32.313  0.00  0.00    -0.035 A 
HETATM    5  C   UNK     0      54.209 -10.816  33.212  0.00  0.00     0.011 A 
HETATM    6  C   UNK     0      54.490 -10.952  34.572  0.00  0.00     0.024 A 
HETATM    7  C   UNK     0      55.183 -12.072  35.033  0.00  0.00     0.034 A 
HETATM    8 Cl   UNK     0      55.530 -12.240  36.709  0.00  0.00    -0.084 Cl
HETATM    9  C   UNK     0      55.594 -13.056  34.134  0.00  0.00     0.024 A 
HETATM   10  C   UNK     0      55.313 -12.920  32.774  0.00  0.00     0.011 A 
ENDBRANCH   3   4
ENDBRANCH   2   3
ENDBRANCH   1   2
BRANCH   1  11
HETATM   11  C   UNK     0      53.478 -12.517  28.463  0.00  0.00     0.166 C 
BRANCH  11  12
HETATM   12  N   UNK     0      53.298 -11.245  27.774  0.00  0.00    -0.347 N 
HETATM   13  C   UNK     0      54.291 -10.403  27.391  0.00  0.00     0.111 A 
HETATM   14  C   UNK     0      53.635  -9.355  26.790  0.00  0.00     0.135 A 
HETATM   15  N   UNK     0      52.276  -9.547  26.804  0.00  0.00    -0.255 NA
HETATM   16  C   UNK     0      52.108 -10.703  27.407  0.00  0.00     0.209 A 
ENDBRANCH  11  12
ENDBRANCH   1  11
BRANCH   1  17
HETATM   17  C   UNK     0      52.670 -14.056  30.322  0.00  0.00    -0.006 A 
HETATM   18  C   UNK     0      51.718 -14.499  31.227  0.00  0.00     0.044 A 
HETATM   19 Cl   UNK     0      50.368 -13.524  31.680  0.00  0.00    -0.084 Cl
HETATM   20  C   UNK     0      51.849 -15.768  31.792  0.00  0.00     0.048 A 
HETATM   21  C   UNK     0      52.929 -16.578  31.445  0.00  0.00     0.035 A 
HETATM   22 Cl   UNK     0      53.091 -18.144  32.142  0.00  0.00    -0.084 Cl
HETATM   23  C   UNK     0      53.880 -16.120  30.533  0.00  0.00     0.024 A 
HETATM   24  C   UNK     0      53.750 -14.852  29.967  0.00  0.00     0.013 A 
ENDBRANCH   1  17
TORSDOF 6
ENDMDL
MODEL 3
REMARK VINA RESULT:      -8.8      2.967      5.779
REMARK  6 active torsions:
REMARK  status: ('A' for Active; 'I' for Inactive)
REMARK    1  A    between atoms: O_4  and  C_7 
REMARK    2  A    between atoms: O_4  and  C_10 
REMARK    3  A    between atoms: N_5  and  C_8 
REMARK    4  A    between atoms: C_7  and  C_8 
REMARK    5  A    between atoms: C_7  and  C_9 
REMARK    6  A    between atoms: C_10  and  C_13 
ROOT
HETATM    1  C   UNK     0      53.671 -12.934  30.280  0.00  0.00     0.174 C 
ENDROOT
BRANCH   1   2
HETATM    2  O   UNK     0      54.495 -12.544  29.191  0.00  0.00    -0.375 OA
BRANCH   2   3
HETATM    3  C   UNK     0      53.720 -12.105  28.082  0.00  0.00     0.207 C 
BRANCH   3   4
HETATM    4  C   UNK     0      53.293 -10.693  28.302  0.00  0.00    -0.035 A 
HETATM    5  C   UNK     0      51.939 -10.363  28.282  0.00  0.00     0.011 A 
HETATM    6  C   UNK     0      51.539  -9.043  28.487  0.00  0.00     0.024 A 
HETATM    7  C   UNK     0      52.495  -8.052  28.713  0.00  0.00     0.034 A 
HETATM    8 Cl   UNK     0      52.003  -6.423  28.966  0.00  0.00    -0.084 Cl
HETATM    9  C   UNK     0      53.850  -8.382  28.733  0.00  0.00     0.024 A 
HETATM   10  C   UNK     0      54.250  -9.703  28.528  0.00  0.00     0.011 A 
ENDBRANCH   3   4
ENDBRANCH   2   3
ENDBRANCH   1   2
BRANCH   1  11
HETATM   11  C   UNK     0      53.467 -14.456  30.229  0.00  0.00     0.166 C 
BRANCH  11  12
HETATM   12  N   UNK     0      52.088 -14.869  30.464  0.00  0.00    -0.347 N 
HETATM   13  C   UNK     0      50.987 -14.315  29.898  0.00  0.00     0.111 A 
HETATM   14  C   UNK     0      49.938 -15.032  30.422  0.00  0.00     0.135 A 
HETATM   15  N   UNK     0      50.383 -16.000  31.287  0.00  0.00    -0.255 NA
HETATM   16  C   UNK     0      51.691 -15.873  31.288  0.00  0.00     0.209 A 
ENDBRANCH  11  12
ENDBRANCH   1  11
BRANCH   1  17
HETATM   17  C   UNK     0      54.313 -12.462  31.564  0.00  0.00    -0.006 A 
HETATM   18  C   UNK     0      53.869 -11.317  32.206  0.00  0.00     0.044 A 
HETATM   19 Cl   UNK     0      52.567 -10.370  31.585  0.00  0.00    -0.084 Cl
HETATM   20  C   UNK     0      54.489 -10.911  33.389  0.00  0.00     0.048 A 
HETATM   21  C   UNK     0      55.543 -11.656  33.915  0.00  0.00     0.035 A 
HETATM   22 Cl   UNK     0      56.307 -11.157  35.374  0.00  0.00    -0.084 Cl
HETATM   23  C   UNK     0      55.980 -12.807  33.258  0.00  0.00     0.024 A 
HETATM   24  C   UNK     0      55.361 -13.213  32.076  0.00  0.00     0.013 A 
ENDBRANCH   1  17
TORSDOF 6
ENDMDL
