MODEL 1
REMARK VINA RESULT:      -7.9      0.000      0.000
REMARK  6 active torsions:
REMARK  status: ('A' for Active; 'I' for Inactive)
REMARK    1  A    between atoms: O_4  and  C_7 
REMARK    2  A    between atoms: O_4  and  C_10 
REMARK    3  A    between atoms: N_5  and  C_8 
REMARK    4  A    between atoms: C_7  and  C_8 
REMARK    5  A    between atoms: C_7  and  C_9 
REMARK    6  A    between atoms: C_10  and  C_13 
ROOT
HETATM    1  C   UNK     0     -24.484 -16.105  31.668  0.00  0.00     0.174 C 
ENDROOT
BRANCH   1   2
HETATM    2  O   UNK     0     -23.564 -16.005  30.591  0.00  0.00    -0.375 OA
BRANCH   2   3
HETATM    3  C   UNK     0     -22.351 -15.384  30.998  0.00  0.00     0.207 C 
BRANCH   3   4
HETATM    4  C   UNK     0     -21.786 -14.605  29.858  0.00  0.00    -0.035 A 
HETATM    5  C   UNK     0     -20.415 -14.636  29.604  0.00  0.00     0.011 A 
HETATM    6  C   UNK     0     -19.886 -13.906  28.539  0.00  0.00     0.024 A 
HETATM    7  C   UNK     0     -20.729 -13.147  27.727  0.00  0.00     0.034 A 
HETATM    8 Cl   UNK     0     -20.078 -12.247  26.413  0.00  0.00    -0.084 Cl
HETATM    9  C   UNK     0     -22.100 -13.116  27.981  0.00  0.00     0.024 A 
HETATM   10  C   UNK     0     -22.629 -13.846  29.046  0.00  0.00     0.011 A 
ENDBRANCH   3   4
ENDBRANCH   2   3
ENDBRANCH   1   2
BRANCH   1  11
HETATM   11  C   UNK     0     -24.000 -15.211  32.820  0.00  0.00     0.166 C 
BRANCH  11  12
HETATM   12  N   UNK     0     -23.988 -15.882  34.115  0.00  0.00    -0.347 N 
HETATM   13  C   UNK     0     -24.627 -15.457  35.234  0.00  0.00     0.111 A 
HETATM   14  C   UNK     0     -24.323 -16.406  36.181  0.00  0.00     0.135 A 
HETATM   15  N   UNK     0     -23.519 -17.387  35.658  0.00  0.00    -0.255 NA
HETATM   16  C   UNK     0     -23.337 -17.038  34.404  0.00  0.00     0.209 A 
ENDBRANCH  11  12
ENDBRANCH   1  11
BRANCH   1  17
HETATM   17  C   UNK     0     -25.860 -15.735  31.164  0.00  0.00    -0.006 A 
HETATM   18  C   UNK     0     -26.996 -16.337  31.679  0.00  0.00     0.044 A 
HETATM   19 Cl   UNK     0     -26.911 -17.534  32.919  0.00  0.00    -0.084 Cl
HETATM   20  C   UNK     0     -28.249 -15.969  31.187  0.00  0.00     0.048 A 
HETATM   21  C   UNK     0     -28.349 -15.004  30.185  0.00  0.00     0.035 A 
HETATM   22 Cl   UNK     0     -29.894 -14.551  29.577  0.00  0.00    -0.084 Cl
HETATM   23  C   UNK     0     -27.197 -14.407  29.675  0.00  0.00     0.024 A 
HETATM   24  C   UNK     0     -25.944 -14.773  30.167  0.00  0.00     0.013 A 
ENDBRANCH   1  17
TORSDOF 6
ENDMDL
MODEL 2
REMARK VINA RESULT:      -7.8      1.924      2.648
REMARK  6 active torsions:
REMARK  status: ('A' for Active; 'I' for Inactive)
REMARK    1  A    between atoms: O_4  and  C_7 
REMARK    2  A    between atoms: O_4  and  C_10 
REMARK    3  A    between atoms: N_5  and  C_8 
REMARK    4  A    between atoms: C_7  and  C_8 
REMARK    5  A    between atoms: C_7  and  C_9 
REMARK    6  A    between atoms: C_10  and  C_13 
ROOT
HETATM    1  C   UNK     0     -23.532 -16.077  33.356  0.00  0.00     0.174 C 
ENDROOT
BRANCH   1   2
HETATM    2  O   UNK     0     -23.210 -15.273  32.231  0.00  0.00    -0.375 OA
BRANCH   2   3
HETATM    3  C   UNK     0     -21.988 -15.683  31.630  0.00  0.00     0.207 C 
BRANCH   3   4
HETATM    4  C   UNK     0     -21.767 -14.907  30.375  0.00  0.00    -0.035 A 
HETATM    5  C   UNK     0     -20.479 -14.766  29.860  0.00  0.00     0.011 A 
HETATM    6  C   UNK     0     -20.272 -14.040  28.687  0.00  0.00     0.024 A 
HETATM    7  C   UNK     0     -21.354 -13.456  28.028  0.00  0.00     0.034 A 
HETATM    8 Cl   UNK     0     -21.099 -12.561  26.581  0.00  0.00    -0.084 Cl
HETATM    9  C   UNK     0     -22.643 -13.598  28.543  0.00  0.00     0.024 A 
HETATM   10  C   UNK     0     -22.849 -14.324  29.716  0.00  0.00     0.011 A 
ENDBRANCH   3   4
ENDBRANCH   2   3
ENDBRANCH   1   2
BRANCH   1  11
HETATM   11  C   UNK     0     -23.573 -15.188  34.607  0.00  0.00     0.166 C 
BRANCH  11  12
HETATM   12  N   UNK     0     -22.533 -15.501  35.580  0.00  0.00    -0.347 N 
HETATM   13  C   UNK     0     -21.402 -16.210  35.333  0.00  0.00     0.111 A 
HETATM   14  C   UNK     0     -20.748 -16.239  36.541  0.00  0.00     0.135 A 
HETATM   15  N   UNK     0     -21.457 -15.566  37.505  0.00  0.00    -0.255 NA
HETATM   16  C   UNK     0     -22.532 -15.131  36.887  0.00  0.00     0.209 A 
ENDBRANCH  11  12
ENDBRANCH   1  11
BRANCH   1  17
HETATM   17  C   UNK     0     -24.840 -16.785  33.084  0.00  0.00    -0.006 A 
HETATM   18  C   UNK     0     -25.176 -17.949  33.756  0.00  0.00     0.044 A 
HETATM   19 Cl   UNK     0     -24.132 -18.656  34.933  0.00  0.00    -0.084 Cl
HETATM   20  C   UNK     0     -26.392 -18.574  33.476  0.00  0.00     0.048 A 
HETATM   21  C   UNK     0     -27.257 -18.026  32.530  0.00  0.00     0.035 A 
HETATM   22 Cl   UNK     0     -28.757 -18.796  32.185  0.00  0.00    -0.084 Cl
HETATM   23  C   UNK     0     -26.906 -16.853  31.861  0.00  0.00     0.024 A 
HETATM   24  C   UNK     0     -25.691 -16.228  32.140  0.00  0.00     0.013 A 
ENDBRANCH   1  17
TORSDOF 6
ENDMDL
MODEL 3
REMARK VINA RESULT:      -7.5      2.789      5.089
REMARK  6 active torsions:
REMARK  status: ('A' for Active; 'I' for Inactive)
REMARK    1  A    between atoms: O_4  and  C_7 
REMARK    2  A    between atoms: O_4  and  C_10 
REMARK    3  A    between atoms: N_5  and  C_8 
REMARK    4  A    between atoms: C_7  and  C_8 
REMARK    5  A    between atoms: C_7  and  C_9 
REMARK    6  A    between atoms: C_10  and  C_13 
ROOT
HETATM    1  C   UNK     0     -24.798 -15.774  34.005  0.00  0.00     0.174 C 
ENDROOT
BRANCH   1   2
HETATM    2  O   UNK     0     -24.086 -14.966  33.080  0.00  0.00    -0.375 OA
BRANCH   2   3
HETATM    3  C   UNK     0     -24.475 -15.241  31.740  0.00  0.00     0.207 C 
BRANCH   3   4
HETATM    4  C   UNK     0     -23.360 -14.883  30.816  0.00  0.00    -0.035 A 
HETATM    5  C   UNK     0     -22.073 -15.363  31.058  0.00  0.00     0.011 A 
HETATM    6  C   UNK     0     -21.030 -15.028  30.194  0.00  0.00     0.024 A 
HETATM    7  C   UNK     0     -21.274 -14.214  29.088  0.00  0.00     0.034 A 
HETATM    8 Cl   UNK     0     -19.987 -13.801  28.023  0.00  0.00    -0.084 Cl
HETATM    9  C   UNK     0     -22.561 -13.734  28.846  0.00  0.00     0.024 A 
HETATM   10  C   UNK     0     -23.604 -14.069  29.709  0.00  0.00     0.011 A 
ENDBRANCH   3   4
ENDBRANCH   2   3
ENDBRANCH   1   2
BRANCH   1  11
HETATM   11  C   UNK     0     -24.978 -17.177  33.404  0.00  0.00     0.166 C 
BRANCH  11  12
HETATM   12  N   UNK     0     -26.226 -17.823  33.793  0.00  0.00    -0.347 N 
HETATM   13  C   UNK     0     -27.474 -17.385  33.489  0.00  0.00     0.111 A 
HETATM   14  C   UNK     0     -28.309 -18.312  34.065  0.00  0.00     0.135 A 
HETATM   15  N   UNK     0     -27.595 -19.293  34.706  0.00  0.00    -0.255 NA
HETATM   16  C   UNK     0     -26.335 -18.965  34.520  0.00  0.00     0.209 A 
ENDBRANCH  11  12
ENDBRANCH   1  11
BRANCH   1  17
HETATM   17  C   UNK     0     -24.049 -15.779  35.318  0.00  0.00    -0.006 A 
HETATM   18  C   UNK     0     -24.725 -15.742  36.527  0.00  0.00     0.044 A 
HETATM   19 Cl   UNK     0     -26.448 -15.689  36.606  0.00  0.00    -0.084 Cl
HETATM   20  C   UNK     0     -23.999 -15.746  37.718  0.00  0.00     0.048 A 
HETATM   21  C   UNK     0     -22.606 -15.789  37.685  0.00  0.00     0.035 A 
HETATM   22 Cl   UNK     0     -21.709 -15.794  39.154  0.00  0.00    -0.084 Cl
HETATM   23  C   UNK     0     -21.938 -15.826  36.461  0.00  0.00     0.024 A 
HETATM   24  C   UNK     0     -22.663 -15.822  35.270  0.00  0.00     0.013 A 
ENDBRANCH   1  17
TORSDOF 6
ENDMDL
