MODEL 1
REMARK VINA RESULT:      -7.6      0.000      0.000
REMARK  6 active torsions:
REMARK  status: ('A' for Active; 'I' for Inactive)
REMARK    1  A    between atoms: O_4  and  C_7 
REMARK    2  A    between atoms: O_4  and  C_10 
REMARK    3  A    between atoms: N_5  and  C_8 
REMARK    4  A    between atoms: C_7  and  C_8 
REMARK    5  A    between atoms: C_7  and  C_9 
REMARK    6  A    between atoms: C_10  and  C_13 
ROOT
HETATM    1  C   UNK     0     -40.668  49.204  15.389  0.00  0.00     0.174 C 
ENDROOT
BRANCH   1   2
HETATM    2  O   UNK     0     -39.544  49.502  14.575  0.00  0.00    -0.375 OA
BRANCH   2   3
HETATM    3  C   UNK     0     -39.485  50.887  14.253  0.00  0.00     0.207 C 
BRANCH   3   4
HETATM    4  C   UNK     0     -38.160  51.436  14.663  0.00  0.00    -0.035 A 
HETATM    5  C   UNK     0     -38.096  52.539  15.514  0.00  0.00     0.011 A 
HETATM    6  C   UNK     0     -36.857  53.053  15.896  0.00  0.00     0.024 A 
HETATM    7  C   UNK     0     -35.682  52.464  15.428  0.00  0.00     0.034 A 
HETATM    8 Cl   UNK     0     -34.154  53.098  15.899  0.00  0.00    -0.084 Cl
HETATM    9  C   UNK     0     -35.747  51.360  14.577  0.00  0.00     0.024 A 
HETATM   10  C   UNK     0     -36.986  50.846  14.195  0.00  0.00     0.011 A 
ENDBRANCH   3   4
ENDBRANCH   2   3
ENDBRANCH   1   2
BRANCH   1  11
HETATM   11  C   UNK     0     -41.500  48.108  14.706  0.00  0.00     0.166 C 
BRANCH  11  12
HETATM   12  N   UNK     0     -42.739  48.599  14.113  0.00  0.00    -0.347 N 
HETATM   13  C   UNK     0     -43.992  48.202  14.452  0.00  0.00     0.111 A 
HETATM   14  C   UNK     0     -44.814  48.935  13.631  0.00  0.00     0.135 A 
HETATM   15  N   UNK     0     -44.087  49.760  12.809  0.00  0.00    -0.255 NA
HETATM   16  C   UNK     0     -42.833  49.530  13.129  0.00  0.00     0.209 A 
ENDBRANCH  11  12
ENDBRANCH   1  11
BRANCH   1  17
HETATM   17  C   UNK     0     -40.178  48.811  16.764  0.00  0.00    -0.006 A 
HETATM   18  C   UNK     0     -41.029  48.822  17.857  0.00  0.00     0.044 A 
HETATM   19 Cl   UNK     0     -42.687  49.281  17.717  0.00  0.00    -0.084 Cl
HETATM   20  C   UNK     0     -40.539  48.454  19.110  0.00  0.00     0.048 A 
HETATM   21  C   UNK     0     -39.205  48.078  19.254  0.00  0.00     0.035 A 
HETATM   22 Cl   UNK     0     -38.599  47.623  20.800  0.00  0.00    -0.084 Cl
HETATM   23  C   UNK     0     -38.358  48.071  18.146  0.00  0.00     0.024 A 
HETATM   24  C   UNK     0     -38.847  48.439  16.892  0.00  0.00     0.013 A 
ENDBRANCH   1  17
TORSDOF 6
ENDMDL
MODEL 2
REMARK VINA RESULT:      -7.1      1.197      2.004
REMARK  6 active torsions:
REMARK  status: ('A' for Active; 'I' for Inactive)
REMARK    1  A    between atoms: O_4  and  C_7 
REMARK    2  A    between atoms: O_4  and  C_10 
REMARK    3  A    between atoms: N_5  and  C_8 
REMARK    4  A    between atoms: C_7  and  C_8 
REMARK    5  A    between atoms: C_7  and  C_9 
REMARK    6  A    between atoms: C_10  and  C_13 
ROOT
HETATM    1  C   UNK     0     -40.797  49.438  15.266  0.00  0.00     0.174 C 
ENDROOT
BRANCH   1   2
HETATM    2  O   UNK     0     -39.466  49.645  14.815  0.00  0.00    -0.375 OA
BRANCH   2   3
HETATM    3  C   UNK     0     -39.310  50.930  14.225  0.00  0.00     0.207 C 
BRANCH   3   4
HETATM    4  C   UNK     0     -37.994  51.505  14.628  0.00  0.00    -0.035 A 
HETATM    5  C   UNK     0     -36.811  50.883  14.231  0.00  0.00     0.011 A 
HETATM    6  C   UNK     0     -35.580  51.420  14.608  0.00  0.00     0.024 A 
HETATM    7  C   UNK     0     -35.532  52.579  15.382  0.00  0.00     0.034 A 
HETATM    8 Cl   UNK     0     -34.014  53.241  15.848  0.00  0.00    -0.084 Cl
HETATM    9  C   UNK     0     -36.716  53.201  15.780  0.00  0.00     0.024 A 
HETATM   10  C   UNK     0     -37.947  52.665  15.402  0.00  0.00     0.011 A 
ENDBRANCH   3   4
ENDBRANCH   2   3
ENDBRANCH   1   2
BRANCH   1  11
HETATM   11  C   UNK     0     -41.464  48.380  14.375  0.00  0.00     0.166 C 
BRANCH  11  12
HETATM   12  N   UNK     0     -42.784  48.770  13.893  0.00  0.00    -0.347 N 
HETATM   13  C   UNK     0     -43.034  49.613  12.859  0.00  0.00     0.111 A 
HETATM   14  C   UNK     0     -44.405  49.667  12.789  0.00  0.00     0.135 A 
HETATM   15  N   UNK     0     -44.983  48.880  13.753  0.00  0.00    -0.255 NA
HETATM   16  C   UNK     0     -43.971  48.350  14.403  0.00  0.00     0.209 A 
ENDBRANCH  11  12
ENDBRANCH   1  11
BRANCH   1  17
HETATM   17  C   UNK     0     -40.756  49.048  16.726  0.00  0.00    -0.006 A 
HETATM   18  C   UNK     0     -39.607  48.519  17.293  0.00  0.00     0.044 A 
HETATM   19 Cl   UNK     0     -38.166  48.276  16.375  0.00  0.00    -0.084 Cl
HETATM   20  C   UNK     0     -39.609  48.170  18.644  0.00  0.00     0.048 A 
HETATM   21  C   UNK     0     -40.759  48.356  19.411  0.00  0.00     0.035 A 
HETATM   22 Cl   UNK     0     -40.761  47.926  21.077  0.00  0.00    -0.084 Cl
HETATM   23  C   UNK     0     -41.908  48.889  18.827  0.00  0.00     0.024 A 
HETATM   24  C   UNK     0     -41.907  49.238  17.477  0.00  0.00     0.013 A 
ENDBRANCH   1  17
TORSDOF 6
ENDMDL
MODEL 3
REMARK VINA RESULT:      -7.0      2.966      6.540
REMARK  6 active torsions:
REMARK  status: ('A' for Active; 'I' for Inactive)
REMARK    1  A    between atoms: O_4  and  C_7 
REMARK    2  A    between atoms: O_4  and  C_10 
REMARK    3  A    between atoms: N_5  and  C_8 
REMARK    4  A    between atoms: C_7  and  C_8 
REMARK    5  A    between atoms: C_7  and  C_9 
REMARK    6  A    between atoms: C_10  and  C_13 
ROOT
HETATM    1  C   UNK     0     -38.991  50.058  15.202  0.00  0.00     0.174 C 
ENDROOT
BRANCH   1   2
HETATM    2  O   UNK     0     -38.595  48.754  15.601  0.00  0.00    -0.375 OA
BRANCH   2   3
HETATM    3  C   UNK     0     -37.620  48.798  16.636  0.00  0.00     0.207 C 
BRANCH   3   4
HETATM    4  C   UNK     0     -38.144  48.096  17.842  0.00  0.00    -0.035 A 
HETATM    5  C   UNK     0     -38.630  46.793  17.735  0.00  0.00     0.011 A 
HETATM    6  C   UNK     0     -39.121  46.137  18.864  0.00  0.00     0.024 A 
HETATM    7  C   UNK     0     -39.125  46.783  20.100  0.00  0.00     0.034 A 
HETATM    8 Cl   UNK     0     -39.730  45.973  21.493  0.00  0.00    -0.084 Cl
HETATM    9  C   UNK     0     -38.638  48.086  20.208  0.00  0.00     0.024 A 
HETATM   10  C   UNK     0     -38.147  48.743  19.079  0.00  0.00     0.011 A 
ENDBRANCH   3   4
ENDBRANCH   2   3
ENDBRANCH   1   2
BRANCH   1  11
HETATM   11  C   UNK     0     -37.930  50.630  14.250  0.00  0.00     0.166 C 
BRANCH  11  12
HETATM   12  N   UNK     0     -37.208  51.772  14.799  0.00  0.00    -0.347 N 
HETATM   13  C   UNK     0     -35.868  51.843  14.999  0.00  0.00     0.111 A 
HETATM   14  C   UNK     0     -35.668  53.097  15.525  0.00  0.00     0.135 A 
HETATM   15  N   UNK     0     -36.853  53.778  15.645  0.00  0.00    -0.255 NA
HETATM   16  C   UNK     0     -37.765  52.946  15.195  0.00  0.00     0.209 A 
ENDBRANCH  11  12
ENDBRANCH   1  11
BRANCH   1  17
HETATM   17  C   UNK     0     -40.366  49.975  14.581  0.00  0.00    -0.006 A 
HETATM   18  C   UNK     0     -41.461  49.557  15.320  0.00  0.00     0.044 A 
HETATM   19 Cl   UNK     0     -41.323  49.111  16.981  0.00  0.00    -0.084 Cl
HETATM   20  C   UNK     0     -42.715  49.493  14.711  0.00  0.00     0.048 A 
HETATM   21  C   UNK     0     -42.858  49.848  13.370  0.00  0.00     0.035 A 
HETATM   22 Cl   UNK     0     -44.404  49.768  12.618  0.00  0.00    -0.084 Cl
HETATM   23  C   UNK     0     -41.747  50.266  12.637  0.00  0.00     0.024 A 
HETATM   24  C   UNK     0     -40.494  50.331  13.246  0.00  0.00     0.013 A 
ENDBRANCH   1  17
TORSDOF 6
ENDMDL
