MODEL 1
REMARK VINA RESULT:      -6.8      0.000      0.000
REMARK  6 active torsions:
REMARK  status: ('A' for Active; 'I' for Inactive)
REMARK    1  A    between atoms: O_4  and  C_7 
REMARK    2  A    between atoms: O_4  and  C_10 
REMARK    3  A    between atoms: N_5  and  C_8 
REMARK    4  A    between atoms: C_7  and  C_8 
REMARK    5  A    between atoms: C_7  and  C_9 
REMARK    6  A    between atoms: C_10  and  C_13 
ROOT
HETATM    1  C   UNK     0     -32.342 -49.370  -0.302  0.00  0.00     0.174 C 
ENDROOT
BRANCH   1   2
HETATM    2  O   UNK     0     -31.536 -49.015   0.811  0.00  0.00    -0.375 OA
BRANCH   2   3
HETATM    3  C   UNK     0     -30.362 -49.816   0.880  0.00  0.00     0.207 C 
BRANCH   3   4
HETATM    4  C   UNK     0     -29.170 -48.935   1.047  0.00  0.00    -0.035 A 
HETATM    5  C   UNK     0     -27.996 -49.448   1.598  0.00  0.00     0.011 A 
HETATM    6  C   UNK     0     -26.881 -48.625   1.755  0.00  0.00     0.024 A 
HETATM    7  C   UNK     0     -26.939 -47.289   1.360  0.00  0.00     0.034 A 
HETATM    8 Cl   UNK     0     -25.564 -46.273   1.553  0.00  0.00    -0.084 Cl
HETATM    9  C   UNK     0     -28.113 -46.775   0.808  0.00  0.00     0.024 A 
HETATM   10  C   UNK     0     -29.228 -47.599   0.651  0.00  0.00     0.011 A 
ENDBRANCH   3   4
ENDBRANCH   2   3
ENDBRANCH   1   2
BRANCH   1  11
HETATM   11  C   UNK     0     -32.270 -50.890  -0.504  0.00  0.00     0.166 C 
BRANCH  11  12
HETATM   12  N   UNK     0     -32.178 -51.290  -1.904  0.00  0.00    -0.347 N 
HETATM   13  C   UNK     0     -32.055 -52.563  -2.359  0.00  0.00     0.111 A 
HETATM   14  C   UNK     0     -32.007 -52.432  -3.726  0.00  0.00     0.135 A 
HETATM   15  N   UNK     0     -32.098 -51.115  -4.101  0.00  0.00    -0.255 NA
HETATM   16  C   UNK     0     -32.201 -50.451  -2.972  0.00  0.00     0.209 A 
ENDBRANCH  11  12
ENDBRANCH   1  11
BRANCH   1  17
HETATM   17  C   UNK     0     -33.747 -48.866  -0.060  0.00  0.00    -0.006 A 
HETATM   18  C   UNK     0     -34.001 -47.516   0.125  0.00  0.00     0.044 A 
HETATM   19 Cl   UNK     0     -32.740 -46.338   0.088  0.00  0.00    -0.084 Cl
HETATM   20  C   UNK     0     -35.310 -47.090   0.348  0.00  0.00     0.048 A 
HETATM   21  C   UNK     0     -36.350 -48.019   0.383  0.00  0.00     0.035 A 
HETATM   22 Cl   UNK     0     -37.966 -47.494   0.658  0.00  0.00    -0.084 Cl
HETATM   23  C   UNK     0     -36.080 -49.375   0.196  0.00  0.00     0.024 A 
HETATM   24  C   UNK     0     -34.771 -49.801  -0.027  0.00  0.00     0.013 A 
ENDBRANCH   1  17
TORSDOF 6
ENDMDL
MODEL 2
REMARK VINA RESULT:      -6.8     32.636     34.521
REMARK  6 active torsions:
REMARK  status: ('A' for Active; 'I' for Inactive)
REMARK    1  A    between atoms: O_4  and  C_7 
REMARK    2  A    between atoms: O_4  and  C_10 
REMARK    3  A    between atoms: N_5  and  C_8 
REMARK    4  A    between atoms: C_7  and  C_8 
REMARK    5  A    between atoms: C_7  and  C_9 
REMARK    6  A    between atoms: C_10  and  C_13 
ROOT
HETATM    1  C   UNK     0     -30.676 -30.359  28.221  0.00  0.00     0.174 C 
ENDROOT
BRANCH   1   2
HETATM    2  O   UNK     0     -29.651 -30.775  29.110  0.00  0.00    -0.375 OA
BRANCH   2   3
HETATM    3  C   UNK     0     -30.048 -30.631  30.468  0.00  0.00     0.207 C 
BRANCH   3   4
HETATM    4  C   UNK     0     -30.170 -31.979  31.095  0.00  0.00    -0.035 A 
HETATM    5  C   UNK     0     -29.036 -32.624  31.587  0.00  0.00     0.011 A 
HETATM    6  C   UNK     0     -29.150 -33.885  32.173  0.00  0.00     0.024 A 
HETATM    7  C   UNK     0     -30.399 -34.500  32.269  0.00  0.00     0.034 A 
HETATM    8 Cl   UNK     0     -30.540 -36.054  32.992  0.00  0.00    -0.084 Cl
HETATM    9  C   UNK     0     -31.534 -33.853  31.778  0.00  0.00     0.024 A 
HETATM   10  C   UNK     0     -31.420 -32.592  31.191  0.00  0.00     0.011 A 
ENDBRANCH   3   4
ENDBRANCH   2   3
ENDBRANCH   1   2
BRANCH   1  11
HETATM   11  C   UNK     0     -31.579 -29.347  28.941  0.00  0.00     0.166 C 
BRANCH  11  12
HETATM   12  N   UNK     0     -32.994 -29.493  28.620  0.00  0.00    -0.347 N 
HETATM   13  C   UNK     0     -33.814 -28.505  28.181  0.00  0.00     0.111 A 
HETATM   14  C   UNK     0     -35.032 -29.121  28.019  0.00  0.00     0.135 A 
HETATM   15  N   UNK     0     -34.963 -30.451  28.351  0.00  0.00    -0.255 NA
HETATM   16  C   UNK     0     -33.713 -30.642  28.710  0.00  0.00     0.209 A 
ENDBRANCH  11  12
ENDBRANCH   1  11
BRANCH   1  17
HETATM   17  C   UNK     0     -30.034 -29.800  26.971  0.00  0.00    -0.006 A 
HETATM   18  C   UNK     0     -29.446 -30.636  26.035  0.00  0.00     0.044 A 
HETATM   19 Cl   UNK     0     -29.414 -32.350  26.235  0.00  0.00    -0.084 Cl
HETATM   20  C   UNK     0     -28.862 -30.083  24.895  0.00  0.00     0.048 A 
HETATM   21  C   UNK     0     -28.872 -28.701  24.706  0.00  0.00     0.035 A 
HETATM   22 Cl   UNK     0     -28.152 -28.018  23.300  0.00  0.00    -0.084 Cl
HETATM   23  C   UNK     0     -29.467 -27.872  25.657  0.00  0.00     0.024 A 
HETATM   24  C   UNK     0     -30.052 -28.424  26.796  0.00  0.00     0.013 A 
ENDBRANCH   1  17
TORSDOF 6
ENDMDL
MODEL 3
REMARK VINA RESULT:      -6.7     10.347     11.874
REMARK  6 active torsions:
REMARK  status: ('A' for Active; 'I' for Inactive)
REMARK    1  A    between atoms: O_4  and  C_7 
REMARK    2  A    between atoms: O_4  and  C_10 
REMARK    3  A    between atoms: N_5  and  C_8 
REMARK    4  A    between atoms: C_7  and  C_8 
REMARK    5  A    between atoms: C_7  and  C_9 
REMARK    6  A    between atoms: C_10  and  C_13 
ROOT
HETATM    1  C   UNK     0     -32.918 -56.493   8.161  0.00  0.00     0.174 C 
ENDROOT
BRANCH   1   2
HETATM    2  O   UNK     0     -32.896 -55.150   7.703  0.00  0.00    -0.375 OA
BRANCH   2   3
HETATM    3  C   UNK     0     -33.346 -55.050   6.357  0.00  0.00     0.207 C 
BRANCH   3   4
HETATM    4  C   UNK     0     -32.212 -54.630   5.485  0.00  0.00    -0.035 A 
HETATM    5  C   UNK     0     -31.233 -53.770   5.980  0.00  0.00     0.011 A 
HETATM    6  C   UNK     0     -30.172 -53.376   5.164  0.00  0.00     0.024 A 
HETATM    7  C   UNK     0     -30.091 -53.842   3.852  0.00  0.00     0.034 A 
HETATM    8 Cl   UNK     0     -28.784 -53.357   2.845  0.00  0.00    -0.084 Cl
HETATM    9  C   UNK     0     -31.071 -54.703   3.356  0.00  0.00     0.024 A 
HETATM   10  C   UNK     0     -32.131 -55.097   4.173  0.00  0.00     0.011 A 
ENDBRANCH   3   4
ENDBRANCH   2   3
ENDBRANCH   1   2
BRANCH   1  11
HETATM   11  C   UNK     0     -33.340 -57.407   7.002  0.00  0.00     0.166 C 
BRANCH  11  12
HETATM   12  N   UNK     0     -34.413 -58.333   7.348  0.00  0.00    -0.347 N 
HETATM   13  C   UNK     0     -35.326 -58.847   6.485  0.00  0.00     0.111 A 
HETATM   14  C   UNK     0     -36.117 -59.653   7.268  0.00  0.00     0.135 A 
HETATM   15  N   UNK     0     -35.702 -59.635   8.576  0.00  0.00    -0.255 NA
HETATM   16  C   UNK     0     -34.667 -58.825   8.588  0.00  0.00     0.209 A 
ENDBRANCH  11  12
ENDBRANCH   1  11
BRANCH   1  17
HETATM   17  C   UNK     0     -31.557 -56.833   8.723  0.00  0.00    -0.006 A 
HETATM   18  C   UNK     0     -31.388 -57.110  10.071  0.00  0.00     0.044 A 
HETATM   19 Cl   UNK     0     -32.710 -57.084  11.179  0.00  0.00    -0.084 Cl
HETATM   20  C   UNK     0     -30.115 -57.418  10.552  0.00  0.00     0.048 A 
HETATM   21  C   UNK     0     -29.028 -57.446   9.681  0.00  0.00     0.035 A 
HETATM   22 Cl   UNK     0     -27.457 -57.826  10.274  0.00  0.00    -0.084 Cl
HETATM   23  C   UNK     0     -29.211 -57.166   8.327  0.00  0.00     0.024 A 
HETATM   24  C   UNK     0     -30.484 -56.858   7.844  0.00  0.00     0.013 A 
ENDBRANCH   1  17
TORSDOF 6
ENDMDL
