MODEL 1
REMARK VINA RESULT:      -8.2      0.000      0.000
REMARK  6 active torsions:
REMARK  status: ('A' for Active; 'I' for Inactive)
REMARK    1  A    between atoms: O_4  and  C_7 
REMARK    2  A    between atoms: O_4  and  C_10 
REMARK    3  A    between atoms: N_5  and  C_8 
REMARK    4  A    between atoms: C_7  and  C_8 
REMARK    5  A    between atoms: C_7  and  C_9 
REMARK    6  A    between atoms: C_10  and  C_13 
ROOT
HETATM    1  C   UNK     0       4.031   7.630  19.919  0.00  0.00     0.174 C 
ENDROOT
BRANCH   1   2
HETATM    2  O   UNK     0       4.454   8.680  19.063  0.00  0.00    -0.375 OA
BRANCH   2   3
HETATM    3  C   UNK     0       3.606   9.817  19.174  0.00  0.00     0.207 C 
BRANCH   3   4
HETATM    4  C   UNK     0       3.622  10.576  17.890  0.00  0.00    -0.035 A 
HETATM    5  C   UNK     0       3.731   9.894  16.679  0.00  0.00     0.011 A 
HETATM    6  C   UNK     0       3.747  10.604  15.478  0.00  0.00     0.024 A 
HETATM    7  C   UNK     0       3.652  11.996  15.489  0.00  0.00     0.034 A 
HETATM    8 Cl   UNK     0       3.671  12.871  14.008  0.00  0.00    -0.084 Cl
HETATM    9  C   UNK     0       3.543  12.678  16.701  0.00  0.00     0.024 A 
HETATM   10  C   UNK     0       3.527  11.968  17.902  0.00  0.00     0.011 A 
ENDBRANCH   3   4
ENDBRANCH   2   3
ENDBRANCH   1   2
BRANCH   1  11
HETATM   11  C   UNK     0       3.938   6.331  19.104  0.00  0.00     0.166 C 
BRANCH  11  12
HETATM   12  N   UNK     0       2.568   5.908  18.833  0.00  0.00    -0.347 N 
HETATM   13  C   UNK     0       1.992   4.759  19.270  0.00  0.00     0.111 A 
HETATM   14  C   UNK     0       0.714   4.807  18.766  0.00  0.00     0.135 A 
HETATM   15  N   UNK     0       0.511   5.954  18.039  0.00  0.00    -0.255 NA
HETATM   16  C   UNK     0       1.655   6.598  18.102  0.00  0.00     0.209 A 
ENDBRANCH  11  12
ENDBRANCH   1  11
BRANCH   1  17
HETATM   17  C   UNK     0       4.994   7.537  21.080  0.00  0.00    -0.006 A 
HETATM   18  C   UNK     0       4.566   7.124  22.332  0.00  0.00     0.044 A 
HETATM   19 Cl   UNK     0       2.923   6.693  22.638  0.00  0.00    -0.084 Cl
HETATM   20  C   UNK     0       5.484   7.052  23.380  0.00  0.00     0.048 A 
HETATM   21  C   UNK     0       6.819   7.394  23.163  0.00  0.00     0.035 A 
HETATM   22 Cl   UNK     0       7.952   7.306  24.455  0.00  0.00    -0.084 Cl
HETATM   23  C   UNK     0       7.235   7.809  21.898  0.00  0.00     0.024 A 
HETATM   24  C   UNK     0       6.318   7.880  20.850  0.00  0.00     0.013 A 
ENDBRANCH   1  17
TORSDOF 6
ENDMDL
MODEL 2
REMARK VINA RESULT:      -8.1      3.223      4.713
REMARK  6 active torsions:
REMARK  status: ('A' for Active; 'I' for Inactive)
REMARK    1  A    between atoms: O_4  and  C_7 
REMARK    2  A    between atoms: O_4  and  C_10 
REMARK    3  A    between atoms: N_5  and  C_8 
REMARK    4  A    between atoms: C_7  and  C_8 
REMARK    5  A    between atoms: C_7  and  C_9 
REMARK    6  A    between atoms: C_10  and  C_13 
ROOT
HETATM    1  C   UNK     0       5.219   8.574  19.232  0.00  0.00     0.174 C 
ENDROOT
BRANCH   1   2
HETATM    2  O   UNK     0       5.165   9.302  20.449  0.00  0.00    -0.375 OA
BRANCH   2   3
HETATM    3  C   UNK     0       5.678  10.620  20.291  0.00  0.00     0.207 C 
BRANCH   3   4
HETATM    4  C   UNK     0       5.088  11.240  19.070  0.00  0.00    -0.035 A 
HETATM    5  C   UNK     0       3.752  11.640  19.067  0.00  0.00     0.011 A 
HETATM    6  C   UNK     0       3.200  12.220  17.925  0.00  0.00     0.024 A 
HETATM    7  C   UNK     0       3.984  12.400  16.785  0.00  0.00     0.034 A 
HETATM    8 Cl   UNK     0       3.304  13.115  15.376  0.00  0.00    -0.084 Cl
HETATM    9  C   UNK     0       5.321  12.000  16.788  0.00  0.00     0.024 A 
HETATM   10  C   UNK     0       5.873  11.420  17.931  0.00  0.00     0.011 A 
ENDBRANCH   3   4
ENDBRANCH   2   3
ENDBRANCH   1   2
BRANCH   1  11
HETATM   11  C   UNK     0       6.538   7.789  19.180  0.00  0.00     0.166 C 
BRANCH  11  12
HETATM   12  N   UNK     0       6.915   7.367  17.836  0.00  0.00    -0.347 N 
HETATM   13  C   UNK     0       6.923   6.089  17.378  0.00  0.00     0.111 A 
HETATM   14  C   UNK     0       7.343   6.198  16.074  0.00  0.00     0.135 A 
HETATM   15  N   UNK     0       7.587   7.506  15.739  0.00  0.00    -0.255 NA
HETATM   16  C   UNK     0       7.316   8.187  16.830  0.00  0.00     0.209 A 
ENDBRANCH  11  12
ENDBRANCH   1  11
BRANCH   1  17
HETATM   17  C   UNK     0       3.995   7.690  19.144  0.00  0.00    -0.006 A 
HETATM   18  C   UNK     0       3.171   7.719  18.031  0.00  0.00     0.044 A 
HETATM   19 Cl   UNK     0       3.488   8.755  16.688  0.00  0.00    -0.084 Cl
HETATM   20  C   UNK     0       2.050   6.889  17.988  0.00  0.00     0.048 A 
HETATM   21  C   UNK     0       1.768   6.041  19.058  0.00  0.00     0.035 A 
HETATM   22 Cl   UNK     0       0.385   5.017  19.005  0.00  0.00    -0.084 Cl
HETATM   23  C   UNK     0       2.606   6.022  20.172  0.00  0.00     0.024 A 
HETATM   24  C   UNK     0       3.727   6.851  20.216  0.00  0.00     0.013 A 
ENDBRANCH   1  17
TORSDOF 6
ENDMDL
MODEL 3
REMARK VINA RESULT:      -8.1      2.691      6.439
REMARK  6 active torsions:
REMARK  status: ('A' for Active; 'I' for Inactive)
REMARK    1  A    between atoms: O_4  and  C_7 
REMARK    2  A    between atoms: O_4  and  C_10 
REMARK    3  A    between atoms: N_5  and  C_8 
REMARK    4  A    between atoms: C_7  and  C_8 
REMARK    5  A    between atoms: C_7  and  C_9 
REMARK    6  A    between atoms: C_10  and  C_13 
ROOT
HETATM    1  C   UNK     0       5.200   8.464  17.767  0.00  0.00     0.174 C 
ENDROOT
BRANCH   1   2
HETATM    2  O   UNK     0       6.222   8.114  18.688  0.00  0.00    -0.375 OA
BRANCH   2   3
HETATM    3  C   UNK     0       6.268   9.019  19.785  0.00  0.00     0.207 C 
BRANCH   3   4
HETATM    4  C   UNK     0       5.722   8.351  21.002  0.00  0.00    -0.035 A 
HETATM    5  C   UNK     0       4.394   8.558  21.374  0.00  0.00     0.011 A 
HETATM    6  C   UNK     0       3.883   7.934  22.513  0.00  0.00     0.024 A 
HETATM    7  C   UNK     0       4.700   7.102  23.278  0.00  0.00     0.034 A 
HETATM    8 Cl   UNK     0       4.071   6.333  24.682  0.00  0.00    -0.084 Cl
HETATM    9  C   UNK     0       6.028   6.895  22.906  0.00  0.00     0.024 A 
HETATM   10  C   UNK     0       6.539   7.519  21.767  0.00  0.00     0.011 A 
ENDBRANCH   3   4
ENDBRANCH   2   3
ENDBRANCH   1   2
BRANCH   1  11
HETATM   11  C   UNK     0       5.754   8.342  16.340  0.00  0.00     0.166 C 
BRANCH  11  12
HETATM   12  N   UNK     0       4.907   8.965  15.329  0.00  0.00    -0.347 N 
HETATM   13  C   UNK     0       4.467   8.373  14.190  0.00  0.00     0.111 A 
HETATM   14  C   UNK     0       3.714   9.343  13.572  0.00  0.00     0.135 A 
HETATM   15  N   UNK     0       3.694  10.500  14.310  0.00  0.00    -0.255 NA
HETATM   16  C   UNK     0       4.426  10.234  15.369  0.00  0.00     0.209 A 
ENDBRANCH  11  12
ENDBRANCH   1  11
BRANCH   1  17
HETATM   17  C   UNK     0       4.001   7.579  18.018  0.00  0.00    -0.006 A 
HETATM   18  C   UNK     0       2.733   8.119  18.165  0.00  0.00     0.044 A 
HETATM   19 Cl   UNK     0       2.448   9.818  18.070  0.00  0.00    -0.084 Cl
HETATM   20  C   UNK     0       1.650   7.270  18.398  0.00  0.00     0.048 A 
HETATM   21  C   UNK     0       1.849   5.892  18.480  0.00  0.00     0.035 A 
HETATM   22 Cl   UNK     0       0.515   4.844  18.767  0.00  0.00    -0.084 Cl
HETATM   23  C   UNK     0       3.131   5.363  18.330  0.00  0.00     0.024 A 
HETATM   24  C   UNK     0       4.214   6.211  18.098  0.00  0.00     0.013 A 
ENDBRANCH   1  17
TORSDOF 6
ENDMDL
