MODEL 1
REMARK VINA RESULT:      -7.8      0.000      0.000
REMARK  6 active torsions:
REMARK  status: ('A' for Active; 'I' for Inactive)
REMARK    1  A    between atoms: O_4  and  C_7 
REMARK    2  A    between atoms: O_4  and  C_10 
REMARK    3  A    between atoms: N_5  and  C_8 
REMARK    4  A    between atoms: C_7  and  C_8 
REMARK    5  A    between atoms: C_7  and  C_9 
REMARK    6  A    between atoms: C_10  and  C_13 
ROOT
HETATM    1  C   UNK     0      30.392  16.087   0.027  0.00  0.00     0.174 C 
ENDROOT
BRANCH   1   2
HETATM    2  O   UNK     0      29.540  15.494   0.995  0.00  0.00    -0.375 OA
BRANCH   2   3
HETATM    3  C   UNK     0      28.168  15.717   0.690  0.00  0.00     0.207 C 
BRANCH   3   4
HETATM    4  C   UNK     0      27.316  15.016   1.693  0.00  0.00    -0.035 A 
HETATM    5  C   UNK     0      26.058  14.539   1.327  0.00  0.00     0.011 A 
HETATM    6  C   UNK     0      25.260  13.884   2.266  0.00  0.00     0.024 A 
HETATM    7  C   UNK     0      25.721  13.705   3.570  0.00  0.00     0.034 A 
HETATM    8 Cl   UNK     0      24.738  12.897   4.727  0.00  0.00    -0.084 Cl
HETATM    9  C   UNK     0      26.980  14.181   3.936  0.00  0.00     0.024 A 
HETATM   10  C   UNK     0      27.778  14.836   2.997  0.00  0.00     0.011 A 
ENDBRANCH   3   4
ENDBRANCH   2   3
ENDBRANCH   1   2
BRANCH   1  11
HETATM   11  C   UNK     0      29.533  16.639  -1.120  0.00  0.00     0.166 C 
BRANCH  11  12
HETATM   12  N   UNK     0      29.958  16.184  -2.439  0.00  0.00    -0.347 N 
HETATM   13  C   UNK     0      29.156  16.039  -3.525  0.00  0.00     0.111 A 
HETATM   14  C   UNK     0      30.000  15.594  -4.514  0.00  0.00     0.135 A 
HETATM   15  N   UNK     0      31.285  15.469  -4.050  0.00  0.00    -0.255 NA
HETATM   16  C   UNK     0      31.223  15.836  -2.789  0.00  0.00     0.209 A 
ENDBRANCH  11  12
ENDBRANCH   1  11
BRANCH   1  17
HETATM   17  C   UNK     0      31.230  17.145   0.706  0.00  0.00    -0.006 A 
HETATM   18  C   UNK     0      32.614  17.115   0.637  0.00  0.00     0.044 A 
HETATM   19 Cl   UNK     0      33.457  15.878  -0.223  0.00  0.00    -0.084 Cl
HETATM   20  C   UNK     0      33.353  18.108   1.279  0.00  0.00     0.048 A 
HETATM   21  C   UNK     0      32.701  19.121   1.981  0.00  0.00     0.035 A 
HETATM   22 Cl   UNK     0      33.612  20.347   2.773  0.00  0.00    -0.084 Cl
HETATM   23  C   UNK     0      31.307  19.139   2.043  0.00  0.00     0.024 A 
HETATM   24  C   UNK     0      30.567  18.146   1.402  0.00  0.00     0.013 A 
ENDBRANCH   1  17
TORSDOF 6
ENDMDL
MODEL 2
REMARK VINA RESULT:      -7.8      1.977      6.381
REMARK  6 active torsions:
REMARK  status: ('A' for Active; 'I' for Inactive)
REMARK    1  A    between atoms: O_4  and  C_7 
REMARK    2  A    between atoms: O_4  and  C_10 
REMARK    3  A    between atoms: N_5  and  C_8 
REMARK    4  A    between atoms: C_7  and  C_8 
REMARK    5  A    between atoms: C_7  and  C_9 
REMARK    6  A    between atoms: C_10  and  C_13 
ROOT
HETATM    1  C   UNK     0      29.388  16.384   0.454  0.00  0.00     0.174 C 
ENDROOT
BRANCH   1   2
HETATM    2  O   UNK     0      29.683  17.390   1.412  0.00  0.00    -0.375 OA
BRANCH   2   3
HETATM    3  C   UNK     0      30.459  18.438   0.845  0.00  0.00     0.207 C 
BRANCH   3   4
HETATM    4  C   UNK     0      31.375  18.995   1.882  0.00  0.00    -0.035 A 
HETATM    5  C   UNK     0      32.702  19.278   1.562  0.00  0.00     0.011 A 
HETATM    6  C   UNK     0      33.558  19.798   2.533  0.00  0.00     0.024 A 
HETATM    7  C   UNK     0      33.087  20.036   3.824  0.00  0.00     0.034 A 
HETATM    8 Cl   UNK     0      34.143  20.678   5.021  0.00  0.00    -0.084 Cl
HETATM    9  C   UNK     0      31.759  19.754   4.144  0.00  0.00     0.024 A 
HETATM   10  C   UNK     0      30.902  19.234   3.173  0.00  0.00     0.011 A 
ENDBRANCH   3   4
ENDBRANCH   2   3
ENDBRANCH   1   2
BRANCH   1  11
HETATM   11  C   UNK     0      30.626  15.495   0.270  0.00  0.00     0.166 C 
BRANCH  11  12
HETATM   12  N   UNK     0      30.991  15.284  -1.126  0.00  0.00    -0.347 N 
HETATM   13  C   UNK     0      30.563  14.264  -1.913  0.00  0.00     0.111 A 
HETATM   14  C   UNK     0      31.169  14.492  -3.125  0.00  0.00     0.135 A 
HETATM   15  N   UNK     0      31.949  15.620  -3.085  0.00  0.00    -0.255 NA
HETATM   16  C   UNK     0      31.817  16.075  -1.859  0.00  0.00     0.209 A 
ENDBRANCH  11  12
ENDBRANCH   1  11
BRANCH   1  17
HETATM   17  C   UNK     0      28.168  15.620   0.918  0.00  0.00    -0.006 A 
HETATM   18  C   UNK     0      27.170  15.259   0.028  0.00  0.00     0.044 A 
HETATM   19 Cl   UNK     0      27.257  15.654  -1.650  0.00  0.00    -0.084 Cl
HETATM   20  C   UNK     0      26.059  14.555   0.494  0.00  0.00     0.048 A 
HETATM   21  C   UNK     0      25.961  14.221   1.844  0.00  0.00     0.035 A 
HETATM   22 Cl   UNK     0      24.591  13.353   2.420  0.00  0.00    -0.084 Cl
HETATM   23  C   UNK     0      26.973  14.591   2.729  0.00  0.00     0.024 A 
HETATM   24  C   UNK     0      28.085  15.294   2.264  0.00  0.00     0.013 A 
ENDBRANCH   1  17
TORSDOF 6
ENDMDL
MODEL 3
REMARK VINA RESULT:      -7.6      1.102      1.628
REMARK  6 active torsions:
REMARK  status: ('A' for Active; 'I' for Inactive)
REMARK    1  A    between atoms: O_4  and  C_7 
REMARK    2  A    between atoms: O_4  and  C_10 
REMARK    3  A    between atoms: N_5  and  C_8 
REMARK    4  A    between atoms: C_7  and  C_8 
REMARK    5  A    between atoms: C_7  and  C_9 
REMARK    6  A    between atoms: C_10  and  C_13 
ROOT
HETATM    1  C   UNK     0      30.540  15.909  -0.020  0.00  0.00     0.174 C 
ENDROOT
BRANCH   1   2
HETATM    2  O   UNK     0      29.332  15.705   0.697  0.00  0.00    -0.375 OA
BRANCH   2   3
HETATM    3  C   UNK     0      28.211  15.640  -0.176  0.00  0.00     0.207 C 
BRANCH   3   4
HETATM    4  C   UNK     0      27.067  14.997   0.531  0.00  0.00    -0.035 A 
HETATM    5  C   UNK     0      27.012  15.010   1.925  0.00  0.00     0.011 A 
HETATM    6  C   UNK     0      25.942  14.408   2.587  0.00  0.00     0.024 A 
HETATM    7  C   UNK     0      24.927  13.792   1.855  0.00  0.00     0.034 A 
HETATM    8 Cl   UNK     0      23.607  13.049   2.671  0.00  0.00    -0.084 Cl
HETATM    9  C   UNK     0      24.981  13.779   0.461  0.00  0.00     0.024 A 
HETATM   10  C   UNK     0      26.051  14.382  -0.201  0.00  0.00     0.011 A 
ENDBRANCH   3   4
ENDBRANCH   2   3
ENDBRANCH   1   2
BRANCH   1  11
HETATM   11  C   UNK     0      30.203  16.192  -1.492  0.00  0.00     0.166 C 
BRANCH  11  12
HETATM   12  N   UNK     0      30.872  15.294  -2.427  0.00  0.00    -0.347 N 
HETATM   13  C   UNK     0      30.703  13.949  -2.494  0.00  0.00     0.111 A 
HETATM   14  C   UNK     0      31.533  13.554  -3.516  0.00  0.00     0.135 A 
HETATM   15  N   UNK     0      32.194  14.625  -4.061  0.00  0.00    -0.255 NA
HETATM   16  C   UNK     0      31.768  15.664  -3.378  0.00  0.00     0.209 A 
ENDBRANCH  11  12
ENDBRANCH   1  11
BRANCH   1  17
HETATM   17  C   UNK     0      31.310  17.030   0.641  0.00  0.00    -0.006 A 
HETATM   18  C   UNK     0      32.693  17.085   0.572  0.00  0.00     0.044 A 
HETATM   19 Cl   UNK     0      33.613  15.890  -0.267  0.00  0.00    -0.084 Cl
HETATM   20  C   UNK     0      33.368  18.135   1.196  0.00  0.00     0.048 A 
HETATM   21  C   UNK     0      32.651  19.116   1.881  0.00  0.00     0.035 A 
HETATM   22 Cl   UNK     0      33.483  20.411   2.651  0.00  0.00    -0.084 Cl
HETATM   23  C   UNK     0      31.260  19.048   1.942  0.00  0.00     0.024 A 
HETATM   24  C   UNK     0      30.584  17.999   1.318  0.00  0.00     0.013 A 
ENDBRANCH   1  17
TORSDOF 6
ENDMDL
