MODEL 1
REMARK VINA RESULT:      -7.5      0.000      0.000
REMARK  6 active torsions:
REMARK  status: ('A' for Active; 'I' for Inactive)
REMARK    1  A    between atoms: O_4  and  C_7 
REMARK    2  A    between atoms: O_4  and  C_10 
REMARK    3  A    between atoms: N_5  and  C_8 
REMARK    4  A    between atoms: C_7  and  C_8 
REMARK    5  A    between atoms: C_7  and  C_9 
REMARK    6  A    between atoms: C_10  and  C_13 
ROOT
HETATM    1  C   UNK     0      19.864  56.281  24.797  0.00  0.00     0.174 C 
ENDROOT
BRANCH   1   2
HETATM    2  O   UNK     0      20.885  56.831  23.978  0.00  0.00    -0.375 OA
BRANCH   2   3
HETATM    3  C   UNK     0      20.346  57.441  22.812  0.00  0.00     0.207 C 
BRANCH   3   4
HETATM    4  C   UNK     0      19.683  58.724  23.184  0.00  0.00    -0.035 A 
HETATM    5  C   UNK     0      20.344  59.639  24.003  0.00  0.00     0.011 A 
HETATM    6  C   UNK     0      19.724  60.839  24.351  0.00  0.00     0.024 A 
HETATM    7  C   UNK     0      18.443  61.125  23.880  0.00  0.00     0.034 A 
HETATM    8 Cl   UNK     0      17.678  62.605  24.309  0.00  0.00    -0.084 Cl
HETATM    9  C   UNK     0      17.781  60.210  23.059  0.00  0.00     0.024 A 
HETATM   10  C   UNK     0      18.402  59.010  22.711  0.00  0.00     0.011 A 
ENDBRANCH   3   4
ENDBRANCH   2   3
ENDBRANCH   1   2
BRANCH   1  11
HETATM   11  C   UNK     0      20.133  54.781  24.987  0.00  0.00     0.166 C 
BRANCH  11  12
HETATM   12  N   UNK     0      19.113  53.924  24.393  0.00  0.00    -0.347 N 
HETATM   13  C   UNK     0      19.305  53.055  23.369  0.00  0.00     0.111 A 
HETATM   14  C   UNK     0      18.069  52.488  23.168  0.00  0.00     0.135 A 
HETATM   15  N   UNK     0      17.143  52.995  24.044  0.00  0.00    -0.255 NA
HETATM   16  C   UNK     0      17.810  53.862  24.772  0.00  0.00     0.209 A 
ENDBRANCH  11  12
ENDBRANCH   1  11
BRANCH   1  17
HETATM   17  C   UNK     0      19.823  57.049  26.099  0.00  0.00    -0.006 A 
HETATM   18  C   UNK     0      18.634  57.563  26.589  0.00  0.00     0.044 A 
HETATM   19 Cl   UNK     0      17.139  57.359  25.751  0.00  0.00    -0.084 Cl
HETATM   20  C   UNK     0      18.637  58.268  27.793  0.00  0.00     0.048 A 
HETATM   21  C   UNK     0      19.829  58.448  28.492  0.00  0.00     0.035 A 
HETATM   22 Cl   UNK     0      19.834  59.317  29.978  0.00  0.00    -0.084 Cl
HETATM   23  C   UNK     0      21.020  57.925  27.987  0.00  0.00     0.024 A 
HETATM   24  C   UNK     0      21.017  57.221  26.784  0.00  0.00     0.013 A 
ENDBRANCH   1  17
TORSDOF 6
ENDMDL
MODEL 2
REMARK VINA RESULT:      -7.4      1.607      1.954
REMARK  6 active torsions:
REMARK  status: ('A' for Active; 'I' for Inactive)
REMARK    1  A    between atoms: O_4  and  C_7 
REMARK    2  A    between atoms: O_4  and  C_10 
REMARK    3  A    between atoms: N_5  and  C_8 
REMARK    4  A    between atoms: C_7  and  C_8 
REMARK    5  A    between atoms: C_7  and  C_9 
REMARK    6  A    between atoms: C_10  and  C_13 
ROOT
HETATM    1  C   UNK     0      18.667  56.560  24.782  0.00  0.00     0.174 C 
ENDROOT
BRANCH   1   2
HETATM    2  O   UNK     0      19.967  56.687  24.228  0.00  0.00    -0.375 OA
BRANCH   2   3
HETATM    3  C   UNK     0      19.953  57.461  23.035  0.00  0.00     0.207 C 
BRANCH   3   4
HETATM    4  C   UNK     0      19.403  58.815  23.328  0.00  0.00    -0.035 A 
HETATM    5  C   UNK     0      20.058  59.654  24.229  0.00  0.00     0.011 A 
HETATM    6  C   UNK     0      19.543  60.921  24.504  0.00  0.00     0.024 A 
HETATM    7  C   UNK     0      18.373  61.350  23.877  0.00  0.00     0.034 A 
HETATM    8 Cl   UNK     0      17.738  62.912  24.216  0.00  0.00    -0.084 Cl
HETATM    9  C   UNK     0      17.718  60.511  22.975  0.00  0.00     0.024 A 
HETATM   10  C   UNK     0      18.233  59.244  22.700  0.00  0.00     0.011 A 
ENDBRANCH   3   4
ENDBRANCH   2   3
ENDBRANCH   1   2
BRANCH   1  11
HETATM   11  C   UNK     0      18.094  55.187  24.400  0.00  0.00     0.166 C 
BRANCH  11  12
HETATM   12  N   UNK     0      16.748  54.953  24.909  0.00  0.00    -0.347 N 
HETATM   13  C   UNK     0      16.387  53.973  25.776  0.00  0.00     0.111 A 
HETATM   14  C   UNK     0      15.037  54.156  25.953  0.00  0.00     0.135 A 
HETATM   15  N   UNK     0      14.580  55.219  25.215  0.00  0.00    -0.255 NA
HETATM   16  C   UNK     0      15.644  55.678  24.595  0.00  0.00     0.209 A 
ENDBRANCH  11  12
ENDBRANCH   1  11
BRANCH   1  17
HETATM   17  C   UNK     0      18.757  56.773  26.276  0.00  0.00    -0.006 A 
HETATM   18  C   UNK     0      17.990  57.739  26.908  0.00  0.00     0.044 A 
HETATM   19 Cl   UNK     0      16.895  58.748  26.036  0.00  0.00    -0.084 Cl
HETATM   20  C   UNK     0      18.102  57.907  28.289  0.00  0.00     0.048 A 
HETATM   21  C   UNK     0      18.979  57.106  29.020  0.00  0.00     0.035 A 
HETATM   22 Cl   UNK     0      19.117  57.312  30.723  0.00  0.00    -0.084 Cl
HETATM   23  C   UNK     0      19.745  56.138  28.371  0.00  0.00     0.024 A 
HETATM   24  C   UNK     0      19.633  55.969  26.991  0.00  0.00     0.013 A 
ENDBRANCH   1  17
TORSDOF 6
ENDMDL
MODEL 3
REMARK VINA RESULT:      -7.3      2.509      3.703
REMARK  6 active torsions:
REMARK  status: ('A' for Active; 'I' for Inactive)
REMARK    1  A    between atoms: O_4  and  C_7 
REMARK    2  A    between atoms: O_4  and  C_10 
REMARK    3  A    between atoms: N_5  and  C_8 
REMARK    4  A    between atoms: C_7  and  C_8 
REMARK    5  A    between atoms: C_7  and  C_9 
REMARK    6  A    between atoms: C_10  and  C_13 
ROOT
HETATM    1  C   UNK     0      18.309  56.336  24.909  0.00  0.00     0.174 C 
ENDROOT
BRANCH   1   2
HETATM    2  O   UNK     0      17.264  56.978  24.194  0.00  0.00    -0.375 OA
BRANCH   2   3
HETATM    3  C   UNK     0      16.487  57.813  25.043  0.00  0.00     0.207 C 
BRANCH   3   4
HETATM    4  C   UNK     0      16.950  59.224  24.910  0.00  0.00    -0.035 A 
HETATM    5  C   UNK     0      16.841  60.099  25.991  0.00  0.00     0.011 A 
HETATM    6  C   UNK     0      17.274  61.419  25.867  0.00  0.00     0.024 A 
HETATM    7  C   UNK     0      17.817  61.865  24.662  0.00  0.00     0.034 A 
HETATM    8 Cl   UNK     0      18.351  63.493  24.509  0.00  0.00    -0.084 Cl
HETATM    9  C   UNK     0      17.927  60.990  23.581  0.00  0.00     0.024 A 
HETATM   10  C   UNK     0      17.494  59.670  23.705  0.00  0.00     0.011 A 
ENDBRANCH   3   4
ENDBRANCH   2   3
ENDBRANCH   1   2
BRANCH   1  11
HETATM   11  C   UNK     0      18.116  54.815  24.813  0.00  0.00     0.166 C 
BRANCH  11  12
HETATM   12  N   UNK     0      16.829  54.356  25.322  0.00  0.00    -0.347 N 
HETATM   13  C   UNK     0      16.403  54.453  26.607  0.00  0.00     0.111 A 
HETATM   14  C   UNK     0      15.149  53.892  26.593  0.00  0.00     0.135 A 
HETATM   15  N   UNK     0      14.812  53.461  25.334  0.00  0.00    -0.255 NA
HETATM   16  C   UNK     0      15.853  53.759  24.589  0.00  0.00     0.209 A 
ENDBRANCH  11  12
ENDBRANCH   1  11
BRANCH   1  17
HETATM   17  C   UNK     0      19.633  56.805  24.353  0.00  0.00    -0.006 A 
HETATM   18  C   UNK     0      20.432  57.690  25.060  0.00  0.00     0.044 A 
HETATM   19 Cl   UNK     0      19.968  58.304  26.605  0.00  0.00    -0.084 Cl
HETATM   20  C   UNK     0      21.648  58.102  24.512  0.00  0.00     0.048 A 
HETATM   21  C   UNK     0      22.049  57.623  23.266  0.00  0.00     0.035 A 
HETATM   22 Cl   UNK     0      23.549  58.130  22.590  0.00  0.00    -0.084 Cl
HETATM   23  C   UNK     0      21.236  56.733  22.566  0.00  0.00     0.024 A 
HETATM   24  C   UNK     0      20.020  56.321  23.112  0.00  0.00     0.013 A 
ENDBRANCH   1  17
TORSDOF 6
ENDMDL
