MODEL 1
REMARK VINA RESULT:      -8.0      0.000      0.000
REMARK  6 active torsions:
REMARK  status: ('A' for Active; 'I' for Inactive)
REMARK    1  A    between atoms: O_4  and  C_7 
REMARK    2  A    between atoms: O_4  and  C_10 
REMARK    3  A    between atoms: N_5  and  C_8 
REMARK    4  A    between atoms: C_7  and  C_8 
REMARK    5  A    between atoms: C_7  and  C_9 
REMARK    6  A    between atoms: C_10  and  C_13 
ROOT
HETATM    1  C   UNK     0      21.384  26.241  34.092  0.00  0.00     0.174 C 
ENDROOT
BRANCH   1   2
HETATM    2  O   UNK     0      21.691  25.016  34.741  0.00  0.00    -0.375 OA
BRANCH   2   3
HETATM    3  C   UNK     0      23.088  24.887  34.978  0.00  0.00     0.207 C 
BRANCH   3   4
HETATM    4  C   UNK     0      23.312  24.386  36.365  0.00  0.00    -0.035 A 
HETATM    5  C   UNK     0      22.621  24.958  37.433  0.00  0.00     0.011 A 
HETATM    6  C   UNK     0      22.831  24.490  38.730  0.00  0.00     0.024 A 
HETATM    7  C   UNK     0      23.730  23.449  38.959  0.00  0.00     0.034 A 
HETATM    8 Cl   UNK     0      23.989  22.871  40.559  0.00  0.00    -0.084 Cl
HETATM    9  C   UNK     0      24.420  22.875  37.891  0.00  0.00     0.024 A 
HETATM   10  C   UNK     0      24.210  23.344  36.593  0.00  0.00     0.011 A 
ENDBRANCH   3   4
ENDBRANCH   2   3
ENDBRANCH   1   2
BRANCH   1  11
HETATM   11  C   UNK     0      20.752  25.936  32.726  0.00  0.00     0.166 C 
BRANCH  11  12
HETATM   12  N   UNK     0      21.511  26.467  31.600  0.00  0.00    -0.347 N 
HETATM   13  C   UNK     0      22.813  26.850  31.630  0.00  0.00     0.111 A 
HETATM   14  C   UNK     0      23.072  27.273  30.348  0.00  0.00     0.135 A 
HETATM   15  N   UNK     0      21.961  27.153  29.552  0.00  0.00    -0.255 NA
HETATM   16  C   UNK     0      21.034  26.661  30.343  0.00  0.00     0.209 A 
ENDBRANCH  11  12
ENDBRANCH   1  11
BRANCH   1  17
HETATM   17  C   UNK     0      20.486  27.054  34.997  0.00  0.00    -0.006 A 
HETATM   18  C   UNK     0      21.013  27.978  35.885  0.00  0.00     0.044 A 
HETATM   19 Cl   UNK     0      22.712  28.256  36.010  0.00  0.00    -0.084 Cl
HETATM   20  C   UNK     0      20.152  28.708  36.705  0.00  0.00     0.048 A 
HETATM   21  C   UNK     0      18.775  28.505  36.626  0.00  0.00     0.035 A 
HETATM   22 Cl   UNK     0      17.711  29.405  37.637  0.00  0.00    -0.084 Cl
HETATM   23  C   UNK     0      18.258  27.571  35.728  0.00  0.00     0.024 A 
HETATM   24  C   UNK     0      19.118  26.841  34.907  0.00  0.00     0.013 A 
ENDBRANCH   1  17
TORSDOF 6
ENDMDL
MODEL 2
REMARK VINA RESULT:      -7.9      2.654      4.742
REMARK  6 active torsions:
REMARK  status: ('A' for Active; 'I' for Inactive)
REMARK    1  A    between atoms: O_4  and  C_7 
REMARK    2  A    between atoms: O_4  and  C_10 
REMARK    3  A    between atoms: N_5  and  C_8 
REMARK    4  A    between atoms: C_7  and  C_8 
REMARK    5  A    between atoms: C_7  and  C_9 
REMARK    6  A    between atoms: C_10  and  C_13 
ROOT
HETATM    1  C   UNK     0      22.033  25.762  34.782  0.00  0.00     0.174 C 
ENDROOT
BRANCH   1   2
HETATM    2  O   UNK     0      23.121  24.860  34.922  0.00  0.00    -0.375 OA
BRANCH   2   3
HETATM    3  C   UNK     0      24.036  25.298  35.919  0.00  0.00     0.207 C 
BRANCH   3   4
HETATM    4  C   UNK     0      23.950  24.396  37.103  0.00  0.00    -0.035 A 
HETATM    5  C   UNK     0      23.744  24.932  38.374  0.00  0.00     0.011 A 
HETATM    6  C   UNK     0      23.664  24.088  39.482  0.00  0.00     0.024 A 
HETATM    7  C   UNK     0      23.788  22.709  39.319  0.00  0.00     0.034 A 
HETATM    8 Cl   UNK     0      23.689  21.668  40.686  0.00  0.00    -0.084 Cl
HETATM    9  C   UNK     0      23.993  22.172  38.048  0.00  0.00     0.024 A 
HETATM   10  C   UNK     0      24.073  23.016  36.940  0.00  0.00     0.011 A 
ENDBRANCH   3   4
ENDBRANCH   2   3
ENDBRANCH   1   2
BRANCH   1  11
HETATM   11  C   UNK     0      22.363  27.060  35.533  0.00  0.00     0.166 C 
BRANCH  11  12
HETATM   12  N   UNK     0      21.235  27.607  36.278  0.00  0.00    -0.347 N 
HETATM   13  C   UNK     0      20.485  28.676  35.909  0.00  0.00     0.111 A 
HETATM   14  C   UNK     0      19.557  28.804  36.915  0.00  0.00     0.135 A 
HETATM   15  N   UNK     0      19.733  27.841  37.877  0.00  0.00    -0.255 NA
HETATM   16  C   UNK     0      20.758  27.132  37.458  0.00  0.00     0.209 A 
ENDBRANCH  11  12
ENDBRANCH   1  11
BRANCH   1  17
HETATM   17  C   UNK     0      21.771  25.976  33.308  0.00  0.00    -0.006 A 
HETATM   18  C   UNK     0      20.481  26.122  32.825  0.00  0.00     0.044 A 
HETATM   19 Cl   UNK     0      19.106  26.071  33.867  0.00  0.00    -0.084 Cl
HETATM   20  C   UNK     0      20.280  26.316  31.458  0.00  0.00     0.048 A 
HETATM   21  C   UNK     0      21.371  26.362  30.592  0.00  0.00     0.035 A 
HETATM   22 Cl   UNK     0      21.123  26.602  28.906  0.00  0.00    -0.084 Cl
HETATM   23  C   UNK     0      22.665  26.213  31.092  0.00  0.00     0.024 A 
HETATM   24  C   UNK     0      22.867  26.019  32.458  0.00  0.00     0.013 A 
ENDBRANCH   1  17
TORSDOF 6
ENDMDL
MODEL 3
REMARK VINA RESULT:      -7.6      3.782      7.142
REMARK  6 active torsions:
REMARK  status: ('A' for Active; 'I' for Inactive)
REMARK    1  A    between atoms: O_4  and  C_7 
REMARK    2  A    between atoms: O_4  and  C_10 
REMARK    3  A    between atoms: N_5  and  C_8 
REMARK    4  A    between atoms: C_7  and  C_8 
REMARK    5  A    between atoms: C_7  and  C_9 
REMARK    6  A    between atoms: C_10  and  C_13 
ROOT
HETATM    1  C   UNK     0      23.602  26.635  38.327  0.00  0.00     0.174 C 
ENDROOT
BRANCH   1   2
HETATM    2  O   UNK     0      22.326  26.952  38.863  0.00  0.00    -0.375 OA
BRANCH   2   3
HETATM    3  C   UNK     0      21.828  28.175  38.336  0.00  0.00     0.207 C 
BRANCH   3   4
HETATM    4  C   UNK     0      20.643  27.899  37.474  0.00  0.00    -0.035 A 
HETATM    5  C   UNK     0      20.613  26.755  36.676  0.00  0.00     0.011 A 
HETATM    6  C   UNK     0      19.505  26.497  35.869  0.00  0.00     0.024 A 
HETATM    7  C   UNK     0      18.427  27.382  35.859  0.00  0.00     0.034 A 
HETATM    8 Cl   UNK     0      17.061  27.064  34.864  0.00  0.00    -0.084 Cl
HETATM    9  C   UNK     0      18.457  28.526  36.658  0.00  0.00     0.024 A 
HETATM   10  C   UNK     0      19.565  28.784  37.465  0.00  0.00     0.011 A 
ENDBRANCH   3   4
ENDBRANCH   2   3
ENDBRANCH   1   2
BRANCH   1  11
HETATM   11  C   UNK     0      24.682  27.321  39.175  0.00  0.00     0.166 C 
BRANCH  11  12
HETATM   12  N   UNK     0      25.390  28.384  38.471  0.00  0.00    -0.347 N 
HETATM   13  C   UNK     0      25.335  29.707  38.770  0.00  0.00     0.111 A 
HETATM   14  C   UNK     0      26.157  30.299  37.841  0.00  0.00     0.135 A 
HETATM   15  N   UNK     0      26.702  29.367  36.994  0.00  0.00    -0.255 NA
HETATM   16  C   UNK     0      26.216  28.217  37.406  0.00  0.00     0.209 A 
ENDBRANCH  11  12
ENDBRANCH   1  11
BRANCH   1  17
HETATM   17  C   UNK     0      23.745  25.130  38.282  0.00  0.00    -0.006 A 
HETATM   18  C   UNK     0      23.781  24.452  37.074  0.00  0.00     0.044 A 
HETATM   19 Cl   UNK     0      23.667  25.274  35.562  0.00  0.00    -0.084 Cl
HETATM   20  C   UNK     0      23.914  23.063  37.074  0.00  0.00     0.048 A 
HETATM   21  C   UNK     0      24.009  22.370  38.280  0.00  0.00     0.035 A 
HETATM   22 Cl   UNK     0      24.172  20.657  38.280  0.00  0.00    -0.084 Cl
HETATM   23  C   UNK     0      23.971  23.066  39.488  0.00  0.00     0.024 A 
HETATM   24  C   UNK     0      23.839  24.455  39.490  0.00  0.00     0.013 A 
ENDBRANCH   1  17
TORSDOF 6
ENDMDL
