MODEL 1
REMARK VINA RESULT:      -7.7      0.000      0.000
REMARK  6 active torsions:
REMARK  status: ('A' for Active; 'I' for Inactive)
REMARK    1  A    between atoms: O_4  and  C_7 
REMARK    2  A    between atoms: O_4  and  C_10 
REMARK    3  A    between atoms: N_5  and  C_8 
REMARK    4  A    between atoms: C_7  and  C_8 
REMARK    5  A    between atoms: C_7  and  C_9 
REMARK    6  A    between atoms: C_10  and  C_13 
ROOT
HETATM    1  C   UNK     0     -21.732 -44.971  25.038  0.00  0.00     0.174 C 
ENDROOT
BRANCH   1   2
HETATM    2  O   UNK     0     -20.412 -44.457  25.138  0.00  0.00    -0.375 OA
BRANCH   2   3
HETATM    3  C   UNK     0     -20.350 -43.349  26.027  0.00  0.00     0.207 C 
BRANCH   3   4
HETATM    4  C   UNK     0     -20.763 -42.110  25.307  0.00  0.00    -0.035 A 
HETATM    5  C   UNK     0     -20.507 -41.979  23.943  0.00  0.00     0.011 A 
HETATM    6  C   UNK     0     -20.893 -40.820  23.269  0.00  0.00     0.024 A 
HETATM    7  C   UNK     0     -21.536 -39.793  23.960  0.00  0.00     0.034 A 
HETATM    8 Cl   UNK     0     -22.013 -38.363  23.129  0.00  0.00    -0.084 Cl
HETATM    9  C   UNK     0     -21.793 -39.924  25.325  0.00  0.00     0.024 A 
HETATM   10  C   UNK     0     -21.407 -41.084  25.998  0.00  0.00     0.011 A 
ENDBRANCH   3   4
ENDBRANCH   2   3
ENDBRANCH   1   2
BRANCH   1  11
HETATM   11  C   UNK     0     -21.897 -45.655  23.673  0.00  0.00     0.166 C 
BRANCH  11  12
HETATM   12  N   UNK     0     -20.658 -45.742  22.909  0.00  0.00    -0.347 N 
HETATM   13  C   UNK     0     -19.691 -46.681  23.070  0.00  0.00     0.111 A 
HETATM   14  C   UNK     0     -18.737 -46.350  22.137  0.00  0.00     0.135 A 
HETATM   15  N   UNK     0     -19.107 -45.238  21.423  0.00  0.00    -0.255 NA
HETATM   16  C   UNK     0     -20.276 -44.897  21.917  0.00  0.00     0.209 A 
ENDBRANCH  11  12
ENDBRANCH   1  11
BRANCH   1  17
HETATM   17  C   UNK     0     -21.978 -45.900  26.205  0.00  0.00    -0.006 A 
HETATM   18  C   UNK     0     -22.778 -45.515  27.269  0.00  0.00     0.044 A 
HETATM   19 Cl   UNK     0     -23.537 -43.966  27.326  0.00  0.00    -0.084 Cl
HETATM   20  C   UNK     0     -22.980 -46.400  28.328  0.00  0.00     0.048 A 
HETATM   21  C   UNK     0     -22.381 -47.658  28.310  0.00  0.00     0.035 A 
HETATM   22 Cl   UNK     0     -22.629 -48.751  29.617  0.00  0.00    -0.084 Cl
HETATM   23  C   UNK     0     -21.577 -48.033  27.233  0.00  0.00     0.024 A 
HETATM   24  C   UNK     0     -21.375 -47.149  26.173  0.00  0.00     0.013 A 
ENDBRANCH   1  17
TORSDOF 6
ENDMDL
MODEL 2
REMARK VINA RESULT:      -7.5      2.800      5.008
REMARK  6 active torsions:
REMARK  status: ('A' for Active; 'I' for Inactive)
REMARK    1  A    between atoms: O_4  and  C_7 
REMARK    2  A    between atoms: O_4  and  C_10 
REMARK    3  A    between atoms: N_5  and  C_8 
REMARK    4  A    between atoms: C_7  and  C_8 
REMARK    5  A    between atoms: C_7  and  C_9 
REMARK    6  A    between atoms: C_10  and  C_13 
ROOT
HETATM    1  C   UNK     0     -20.578 -45.557  25.414  0.00  0.00     0.174 C 
ENDROOT
BRANCH   1   2
HETATM    2  O   UNK     0     -21.348 -44.364  25.422  0.00  0.00    -0.375 OA
BRANCH   2   3
HETATM    3  C   UNK     0     -20.639 -43.288  26.023  0.00  0.00     0.207 C 
BRANCH   3   4
HETATM    4  C   UNK     0     -20.938 -42.025  25.290  0.00  0.00    -0.035 A 
HETATM    5  C   UNK     0     -21.477 -40.934  25.971  0.00  0.00     0.011 A 
HETATM    6  C   UNK     0     -21.758 -39.752  25.285  0.00  0.00     0.024 A 
HETATM    7  C   UNK     0     -21.498 -39.661  23.918  0.00  0.00     0.034 A 
HETATM    8 Cl   UNK     0     -21.844 -38.203  23.072  0.00  0.00    -0.084 Cl
HETATM    9  C   UNK     0     -20.958 -40.752  23.236  0.00  0.00     0.024 A 
HETATM   10  C   UNK     0     -20.677 -41.934  23.922  0.00  0.00     0.011 A 
ENDBRANCH   3   4
ENDBRANCH   2   3
ENDBRANCH   1   2
BRANCH   1  11
HETATM   11  C   UNK     0     -21.523 -46.760  25.545  0.00  0.00     0.166 C 
BRANCH  11  12
HETATM   12  N   UNK     0     -21.809 -47.131  26.926  0.00  0.00    -0.347 N 
HETATM   13  C   UNK     0     -21.184 -48.108  27.631  0.00  0.00     0.111 A 
HETATM   14  C   UNK     0     -21.792 -48.079  28.864  0.00  0.00     0.135 A 
HETATM   15  N   UNK     0     -22.763 -47.112  28.915  0.00  0.00    -0.255 NA
HETATM   16  C   UNK     0     -22.746 -46.556  27.724  0.00  0.00     0.209 A 
ENDBRANCH  11  12
ENDBRANCH   1  11
BRANCH   1  17
HETATM   17  C   UNK     0     -19.747 -45.585  24.152  0.00  0.00    -0.006 A 
HETATM   18  C   UNK     0     -20.331 -45.415  22.907  0.00  0.00     0.044 A 
HETATM   19 Cl   UNK     0     -22.028 -45.162  22.724  0.00  0.00    -0.084 Cl
HETATM   20  C   UNK     0     -19.531 -45.450  21.765  0.00  0.00     0.048 A 
HETATM   21  C   UNK     0     -18.156 -45.653  21.882  0.00  0.00     0.035 A 
HETATM   22 Cl   UNK     0     -17.169 -45.695  20.473  0.00  0.00    -0.084 Cl
HETATM   23  C   UNK     0     -17.581 -45.823  23.141  0.00  0.00     0.024 A 
HETATM   24  C   UNK     0     -18.380 -45.789  24.284  0.00  0.00     0.013 A 
ENDBRANCH   1  17
TORSDOF 6
ENDMDL
MODEL 3
REMARK VINA RESULT:      -7.5      3.017      6.785
REMARK  6 active torsions:
REMARK  status: ('A' for Active; 'I' for Inactive)
REMARK    1  A    between atoms: O_4  and  C_7 
REMARK    2  A    between atoms: O_4  and  C_10 
REMARK    3  A    between atoms: N_5  and  C_8 
REMARK    4  A    between atoms: C_7  and  C_8 
REMARK    5  A    between atoms: C_7  and  C_9 
REMARK    6  A    between atoms: C_10  and  C_13 
ROOT
HETATM    1  C   UNK     0     -21.203 -43.860  24.439  0.00  0.00     0.174 C 
ENDROOT
BRANCH   1   2
HETATM    2  O   UNK     0     -22.006 -44.892  24.991  0.00  0.00    -0.375 OA
BRANCH   2   3
HETATM    3  C   UNK     0     -22.239 -44.685  26.379  0.00  0.00     0.207 C 
BRANCH   3   4
HETATM    4  C   UNK     0     -22.227 -45.999  27.085  0.00  0.00    -0.035 A 
HETATM    5  C   UNK     0     -23.090 -46.222  28.158  0.00  0.00     0.011 A 
HETATM    6  C   UNK     0     -23.078 -47.450  28.819  0.00  0.00     0.024 A 
HETATM    7  C   UNK     0     -22.204 -48.456  28.407  0.00  0.00     0.034 A 
HETATM    8 Cl   UNK     0     -22.189 -49.971  29.222  0.00  0.00    -0.084 Cl
HETATM    9  C   UNK     0     -21.341 -48.233  27.334  0.00  0.00     0.024 A 
HETATM   10  C   UNK     0     -21.353 -47.005  26.672  0.00  0.00     0.011 A 
ENDBRANCH   3   4
ENDBRANCH   2   3
ENDBRANCH   1   2
BRANCH   1  11
HETATM   11  C   UNK     0     -20.819 -42.878  25.555  0.00  0.00     0.166 C 
BRANCH  11  12
HETATM   12  N   UNK     0     -21.080 -41.482  25.222  0.00  0.00    -0.347 N 
HETATM   13  C   UNK     0     -20.910 -40.913  24.001  0.00  0.00     0.111 A 
HETATM   14  C   UNK     0     -21.281 -39.602  24.183  0.00  0.00     0.135 A 
HETATM   15  N   UNK     0     -21.669 -39.372  25.479  0.00  0.00    -0.255 NA
HETATM   16  C   UNK     0     -21.535 -40.533  26.080  0.00  0.00     0.209 A 
ENDBRANCH  11  12
ENDBRANCH   1  11
BRANCH   1  17
HETATM   17  C   UNK     0     -20.008 -44.489  23.760  0.00  0.00    -0.006 A 
HETATM   18  C   UNK     0     -19.826 -44.385  22.391  0.00  0.00     0.044 A 
HETATM   19 Cl   UNK     0     -20.942 -43.535  21.385  0.00  0.00    -0.084 Cl
HETATM   20  C   UNK     0     -18.711 -44.980  21.801  0.00  0.00     0.048 A 
HETATM   21  C   UNK     0     -17.792 -45.673  22.588  0.00  0.00     0.035 A 
HETATM   22 Cl   UNK     0     -16.416 -46.408  21.861  0.00  0.00    -0.084 Cl
HETATM   23  C   UNK     0     -17.988 -45.771  23.965  0.00  0.00     0.024 A 
HETATM   24  C   UNK     0     -19.102 -45.175  24.556  0.00  0.00     0.013 A 
ENDBRANCH   1  17
TORSDOF 6
ENDMDL
