MODEL 1
REMARK VINA RESULT:      -7.7      0.000      0.000
REMARK  6 active torsions:
REMARK  status: ('A' for Active; 'I' for Inactive)
REMARK    1  A    between atoms: O_4  and  C_7 
REMARK    2  A    between atoms: O_4  and  C_10 
REMARK    3  A    between atoms: N_5  and  C_8 
REMARK    4  A    between atoms: C_7  and  C_8 
REMARK    5  A    between atoms: C_7  and  C_9 
REMARK    6  A    between atoms: C_10  and  C_13 
ROOT
HETATM    1  C   UNK     0     -15.338  15.222 -10.117  0.00  0.00     0.174 C 
ENDROOT
BRANCH   1   2
HETATM    2  O   UNK     0     -14.441  14.396 -10.844  0.00  0.00    -0.375 OA
BRANCH   2   3
HETATM    3  C   UNK     0     -13.117  14.488 -10.333  0.00  0.00     0.207 C 
BRANCH   3   4
HETATM    4  C   UNK     0     -12.191  13.718 -11.214  0.00  0.00    -0.035 A 
HETATM    5  C   UNK     0     -12.699  12.963 -12.270  0.00  0.00     0.011 A 
HETATM    6  C   UNK     0     -11.833  12.242 -13.092  0.00  0.00     0.024 A 
HETATM    7  C   UNK     0     -10.458  12.278 -12.860  0.00  0.00     0.034 A 
HETATM    8 Cl   UNK     0      -9.390  11.390 -13.875  0.00  0.00    -0.084 Cl
HETATM    9  C   UNK     0      -9.949  13.035 -11.804  0.00  0.00     0.024 A 
HETATM   10  C   UNK     0     -10.816  13.755 -10.981  0.00  0.00     0.011 A 
ENDBRANCH   3   4
ENDBRANCH   2   3
ENDBRANCH   1   2
BRANCH   1  11
HETATM   11  C   UNK     0     -14.888  16.684 -10.253  0.00  0.00     0.166 C 
BRANCH  11  12
HETATM   12  N   UNK     0     -15.222  17.508  -9.097  0.00  0.00    -0.347 N 
HETATM   13  C   UNK     0     -16.251  18.391  -9.023  0.00  0.00     0.111 A 
HETATM   14  C   UNK     0     -16.157  18.916  -7.756  0.00  0.00     0.135 A 
HETATM   15  N   UNK     0     -15.101  18.371  -7.071  0.00  0.00    -0.255 NA
HETATM   16  C   UNK     0     -14.557  17.522  -7.914  0.00  0.00     0.209 A 
ENDBRANCH  11  12
ENDBRANCH   1  11
BRANCH   1  17
HETATM   17  C   UNK     0     -16.740  14.979 -10.629  0.00  0.00    -0.006 A 
HETATM   18  C   UNK     0     -17.819  14.931  -9.761  0.00  0.00     0.044 A 
HETATM   19 Cl   UNK     0     -17.631  15.144  -8.059  0.00  0.00    -0.084 Cl
HETATM   20  C   UNK     0     -19.097  14.703 -10.271  0.00  0.00     0.048 A 
HETATM   21  C   UNK     0     -19.281  14.527 -11.642  0.00  0.00     0.035 A 
HETATM   22 Cl   UNK     0     -20.858  14.247 -12.272  0.00  0.00    -0.084 Cl
HETATM   23  C   UNK     0     -18.185  14.578 -12.504  0.00  0.00     0.024 A 
HETATM   24  C   UNK     0     -16.907  14.806 -11.995  0.00  0.00     0.013 A 
ENDBRANCH   1  17
TORSDOF 6
ENDMDL
MODEL 2
REMARK VINA RESULT:      -7.4      3.957      6.313
REMARK  6 active torsions:
REMARK  status: ('A' for Active; 'I' for Inactive)
REMARK    1  A    between atoms: O_4  and  C_7 
REMARK    2  A    between atoms: O_4  and  C_10 
REMARK    3  A    between atoms: N_5  and  C_8 
REMARK    4  A    between atoms: C_7  and  C_8 
REMARK    5  A    between atoms: C_7  and  C_9 
REMARK    6  A    between atoms: C_10  and  C_13 
ROOT
HETATM    1  C   UNK     0     -15.465  15.346 -12.401  0.00  0.00     0.174 C 
ENDROOT
BRANCH   1   2
HETATM    2  O   UNK     0     -15.296  16.749 -12.260  0.00  0.00    -0.375 OA
BRANCH   2   3
HETATM    3  C   UNK     0     -14.412  17.269 -13.245  0.00  0.00     0.207 C 
BRANCH   3   4
HETATM    4  C   UNK     0     -14.763  18.692 -13.524  0.00  0.00    -0.035 A 
HETATM    5  C   UNK     0     -15.708  19.345 -12.734  0.00  0.00     0.011 A 
HETATM    6  C   UNK     0     -16.037  20.675 -12.996  0.00  0.00     0.024 A 
HETATM    7  C   UNK     0     -15.420  21.353 -14.047  0.00  0.00     0.034 A 
HETATM    8 Cl   UNK     0     -15.825  22.993 -14.370  0.00  0.00    -0.084 Cl
HETATM    9  C   UNK     0     -14.474  20.699 -14.838  0.00  0.00     0.024 A 
HETATM   10  C   UNK     0     -14.145  19.369 -14.576  0.00  0.00     0.011 A 
ENDBRANCH   3   4
ENDBRANCH   2   3
ENDBRANCH   1   2
BRANCH   1  11
HETATM   11  C   UNK     0     -14.346  14.630 -11.630  0.00  0.00     0.166 C 
BRANCH  11  12
HETATM   12  N   UNK     0     -13.651  13.618 -12.417  0.00  0.00    -0.347 N 
HETATM   13  C   UNK     0     -14.108  13.049 -13.561  0.00  0.00     0.111 A 
HETATM   14  C   UNK     0     -13.117  12.169 -13.924  0.00  0.00     0.135 A 
HETATM   15  N   UNK     0     -12.078  12.196 -13.027  0.00  0.00    -0.255 NA
HETATM   16  C   UNK     0     -12.435  13.085 -12.128  0.00  0.00     0.209 A 
ENDBRANCH  11  12
ENDBRANCH   1  11
BRANCH   1  17
HETATM   17  C   UNK     0     -16.850  14.977 -11.921  0.00  0.00    -0.006 A 
HETATM   18  C   UNK     0     -17.303  15.371 -10.672  0.00  0.00     0.044 A 
HETATM   19 Cl   UNK     0     -16.322  16.300  -9.598  0.00  0.00    -0.084 Cl
HETATM   20  C   UNK     0     -18.587  15.010 -10.264  0.00  0.00     0.048 A 
HETATM   21  C   UNK     0     -19.403  14.260 -11.110  0.00  0.00     0.035 A 
HETATM   22 Cl   UNK     0     -20.987  13.813 -10.607  0.00  0.00    -0.084 Cl
HETATM   23  C   UNK     0     -18.934  13.869 -12.364  0.00  0.00     0.024 A 
HETATM   24  C   UNK     0     -17.651  14.230 -12.773  0.00  0.00     0.013 A 
ENDBRANCH   1  17
TORSDOF 6
ENDMDL
MODEL 3
REMARK VINA RESULT:      -7.0      3.471      5.945
REMARK  6 active torsions:
REMARK  status: ('A' for Active; 'I' for Inactive)
REMARK    1  A    between atoms: O_4  and  C_7 
REMARK    2  A    between atoms: O_4  and  C_10 
REMARK    3  A    between atoms: N_5  and  C_8 
REMARK    4  A    between atoms: C_7  and  C_8 
REMARK    5  A    between atoms: C_7  and  C_9 
REMARK    6  A    between atoms: C_10  and  C_13 
ROOT
HETATM    1  C   UNK     0     -15.491  15.162 -12.951  0.00  0.00     0.174 C 
ENDROOT
BRANCH   1   2
HETATM    2  O   UNK     0     -15.045  16.371 -12.355  0.00  0.00    -0.375 OA
BRANCH   2   3
HETATM    3  C   UNK     0     -14.337  17.180 -13.286  0.00  0.00     0.207 C 
BRANCH   3   4
HETATM    4  C   UNK     0     -14.801  18.593 -13.169  0.00  0.00    -0.035 A 
HETATM    5  C   UNK     0     -14.753  19.436 -14.278  0.00  0.00     0.011 A 
HETATM    6  C   UNK     0     -15.187  20.758 -14.169  0.00  0.00     0.024 A 
HETATM    7  C   UNK     0     -15.669  21.235 -12.950  0.00  0.00     0.034 A 
HETATM    8 Cl   UNK     0     -16.204  22.865 -12.815  0.00  0.00    -0.084 Cl
HETATM    9  C   UNK     0     -15.717  20.391 -11.840  0.00  0.00     0.024 A 
HETATM   10  C   UNK     0     -15.284  19.070 -11.950  0.00  0.00     0.011 A 
ENDBRANCH   3   4
ENDBRANCH   2   3
ENDBRANCH   1   2
BRANCH   1  11
HETATM   11  C   UNK     0     -14.431  14.074 -12.724  0.00  0.00     0.166 C 
BRANCH  11  12
HETATM   12  N   UNK     0     -13.639  14.274 -11.516  0.00  0.00    -0.347 N 
HETATM   13  C   UNK     0     -14.114  14.267 -10.244  0.00  0.00     0.111 A 
HETATM   14  C   UNK     0     -13.006  14.496  -9.465  0.00  0.00     0.135 A 
HETATM   15  N   UNK     0     -11.880  14.641 -10.236  0.00  0.00    -0.255 NA
HETATM   16  C   UNK     0     -12.300  14.500 -11.473  0.00  0.00     0.209 A 
ENDBRANCH  11  12
ENDBRANCH   1  11
BRANCH   1  17
HETATM   17  C   UNK     0     -16.842  14.808 -12.371  0.00  0.00    -0.006 A 
HETATM   18  C   UNK     0     -17.696  13.936 -13.027  0.00  0.00     0.044 A 
HETATM   19 Cl   UNK     0     -17.272  13.205 -14.532  0.00  0.00    -0.084 Cl
HETATM   20  C   UNK     0     -18.935  13.635 -12.461  0.00  0.00     0.048 A 
HETATM   21  C   UNK     0     -19.304  14.210 -11.246  0.00  0.00     0.035 A 
HETATM   22 Cl   UNK     0     -20.833  13.839 -10.547  0.00  0.00    -0.084 Cl
HETATM   23  C   UNK     0     -18.435  15.086 -10.596  0.00  0.00     0.024 A 
HETATM   24  C   UNK     0     -17.196  15.387 -11.161  0.00  0.00     0.013 A 
ENDBRANCH   1  17
TORSDOF 6
ENDMDL
