MODEL 1
REMARK VINA RESULT:      -7.2      0.000      0.000
REMARK  6 active torsions:
REMARK  status: ('A' for Active; 'I' for Inactive)
REMARK    1  A    between atoms: O_4  and  C_7 
REMARK    2  A    between atoms: O_4  and  C_10 
REMARK    3  A    between atoms: N_5  and  C_8 
REMARK    4  A    between atoms: C_7  and  C_8 
REMARK    5  A    between atoms: C_7  and  C_9 
REMARK    6  A    between atoms: C_10  and  C_13 
ROOT
HETATM    1  C   UNK     0      42.017   2.774  34.347  0.00  0.00     0.174 C 
ENDROOT
BRANCH   1   2
HETATM    2  O   UNK     0      41.687   3.096  35.689  0.00  0.00    -0.375 OA
BRANCH   2   3
HETATM    3  C   UNK     0      40.489   2.449  36.101  0.00  0.00     0.207 C 
BRANCH   3   4
HETATM    4  C   UNK     0      39.526   3.466  36.613  0.00  0.00    -0.035 A 
HETATM    5  C   UNK     0      38.782   4.234  35.717  0.00  0.00     0.011 A 
HETATM    6  C   UNK     0      37.881   5.186  36.196  0.00  0.00     0.024 A 
HETATM    7  C   UNK     0      37.724   5.370  37.569  0.00  0.00     0.034 A 
HETATM    8 Cl   UNK     0      36.613   6.543  38.160  0.00  0.00    -0.084 Cl
HETATM    9  C   UNK     0      38.468   4.601  38.465  0.00  0.00     0.024 A 
HETATM   10  C   UNK     0      39.368   3.649  37.987  0.00  0.00     0.011 A 
ENDBRANCH   3   4
ENDBRANCH   2   3
ENDBRANCH   1   2
BRANCH   1  11
HETATM   11  C   UNK     0      41.553   3.917  33.432  0.00  0.00     0.166 C 
BRANCH  11  12
HETATM   12  N   UNK     0      40.843   3.463  32.242  0.00  0.00    -0.347 N 
HETATM   13  C   UNK     0      41.418   2.988  31.108  0.00  0.00     0.111 A 
HETATM   14  C   UNK     0      40.356   2.693  30.287  0.00  0.00     0.135 A 
HETATM   15  N   UNK     0      39.161   2.979  30.899  0.00  0.00    -0.255 NA
HETATM   16  C   UNK     0      39.494   3.443  32.083  0.00  0.00     0.209 A 
ENDBRANCH  11  12
ENDBRANCH   1  11
BRANCH   1  17
HETATM   17  C   UNK     0      43.504   2.511  34.266  0.00  0.00    -0.006 A 
HETATM   18  C   UNK     0      44.024   1.257  34.542  0.00  0.00     0.044 A 
HETATM   19 Cl   UNK     0      43.016  -0.071  34.989  0.00  0.00    -0.084 Cl
HETATM   20  C   UNK     0      45.402   1.053  34.458  0.00  0.00     0.048 A 
HETATM   21  C   UNK     0      46.242   2.107  34.098  0.00  0.00     0.035 A 
HETATM   22 Cl   UNK     0      47.941   1.857  33.995  0.00  0.00    -0.084 Cl
HETATM   23  C   UNK     0      45.704   3.364  33.824  0.00  0.00     0.024 A 
HETATM   24  C   UNK     0      44.327   3.568  33.907  0.00  0.00     0.013 A 
ENDBRANCH   1  17
TORSDOF 6
ENDMDL
MODEL 2
REMARK VINA RESULT:      -7.1      2.657      4.947
REMARK  6 active torsions:
REMARK  status: ('A' for Active; 'I' for Inactive)
REMARK    1  A    between atoms: O_4  and  C_7 
REMARK    2  A    between atoms: O_4  and  C_10 
REMARK    3  A    between atoms: N_5  and  C_8 
REMARK    4  A    between atoms: C_7  and  C_8 
REMARK    5  A    between atoms: C_7  and  C_9 
REMARK    6  A    between atoms: C_10  and  C_13 
ROOT
HETATM    1  C   UNK     0      41.647   3.633  33.133  0.00  0.00     0.174 C 
ENDROOT
BRANCH   1   2
HETATM    2  O   UNK     0      40.679   4.105  34.058  0.00  0.00    -0.375 OA
BRANCH   2   3
HETATM    3  C   UNK     0      40.554   3.233  35.174  0.00  0.00     0.207 C 
BRANCH   3   4
HETATM    4  C   UNK     0      39.550   3.786  36.128  0.00  0.00    -0.035 A 
HETATM    5  C   UNK     0      39.649   3.500  37.489  0.00  0.00     0.011 A 
HETATM    6  C   UNK     0      38.709   4.017  38.381  0.00  0.00     0.024 A 
HETATM    7  C   UNK     0      37.671   4.822  37.911  0.00  0.00     0.034 A 
HETATM    8 Cl   UNK     0      36.512   5.460  39.011  0.00  0.00    -0.084 Cl
HETATM    9  C   UNK     0      37.573   5.109  36.550  0.00  0.00     0.024 A 
HETATM   10  C   UNK     0      38.512   4.592  35.658  0.00  0.00     0.011 A 
ENDBRANCH   3   4
ENDBRANCH   2   3
ENDBRANCH   1   2
BRANCH   1  11
HETATM   11  C   UNK     0      42.244   2.321  33.664  0.00  0.00     0.166 C 
BRANCH  11  12
HETATM   12  N   UNK     0      43.688   2.374  33.863  0.00  0.00    -0.347 N 
HETATM   13  C   UNK     0      44.538   1.318  33.785  0.00  0.00     0.111 A 
HETATM   14  C   UNK     0      45.775   1.859  34.044  0.00  0.00     0.135 A 
HETATM   15  N   UNK     0      45.687   3.209  34.275  0.00  0.00    -0.255 NA
HETATM   16  C   UNK     0      44.408   3.487  34.156  0.00  0.00     0.209 A 
ENDBRANCH  11  12
ENDBRANCH   1  11
BRANCH   1  17
HETATM   17  C   UNK     0      40.990   3.485  31.780  0.00  0.00    -0.006 A 
HETATM   18  C   UNK     0      41.744   3.466  30.618  0.00  0.00     0.044 A 
HETATM   19 Cl   UNK     0      43.464   3.608  30.644  0.00  0.00    -0.084 Cl
HETATM   20  C   UNK     0      41.101   3.329  29.387  0.00  0.00     0.048 A 
HETATM   21  C   UNK     0      39.713   3.212  29.334  0.00  0.00     0.035 A 
HETATM   22 Cl   UNK     0      38.919   3.043  27.816  0.00  0.00    -0.084 Cl
HETATM   23  C   UNK     0      38.966   3.233  30.512  0.00  0.00     0.024 A 
HETATM   24  C   UNK     0      39.608   3.369  31.743  0.00  0.00     0.013 A 
ENDBRANCH   1  17
TORSDOF 6
ENDMDL
MODEL 3
REMARK VINA RESULT:      -6.6      3.102      6.721
REMARK  6 active torsions:
REMARK  status: ('A' for Active; 'I' for Inactive)
REMARK    1  A    between atoms: O_4  and  C_7 
REMARK    2  A    between atoms: O_4  and  C_10 
REMARK    3  A    between atoms: N_5  and  C_8 
REMARK    4  A    between atoms: C_7  and  C_8 
REMARK    5  A    between atoms: C_7  and  C_9 
REMARK    6  A    between atoms: C_10  and  C_13 
ROOT
HETATM    1  C   UNK     0      41.494   3.152  33.378  0.00  0.00     0.174 C 
ENDROOT
BRANCH   1   2
HETATM    2  O   UNK     0      40.636   3.475  32.294  0.00  0.00    -0.375 OA
BRANCH   2   3
HETATM    3  C   UNK     0      41.320   3.407  31.049  0.00  0.00     0.207 C 
BRANCH   3   4
HETATM    4  C   UNK     0      40.331   3.465  29.935  0.00  0.00    -0.035 A 
HETATM    5  C   UNK     0      39.294   4.397  29.972  0.00  0.00     0.011 A 
HETATM    6  C   UNK     0      38.368   4.452  28.930  0.00  0.00     0.024 A 
HETATM    7  C   UNK     0      38.479   3.575  27.851  0.00  0.00     0.034 A 
HETATM    8 Cl   UNK     0      37.337   3.642  26.566  0.00  0.00    -0.084 Cl
HETATM    9  C   UNK     0      39.517   2.643  27.814  0.00  0.00     0.024 A 
HETATM   10  C   UNK     0      40.443   2.589  28.856  0.00  0.00     0.011 A 
ENDBRANCH   3   4
ENDBRANCH   2   3
ENDBRANCH   1   2
BRANCH   1  11
HETATM   11  C   UNK     0      42.737   4.052  33.315  0.00  0.00     0.166 C 
BRANCH  11  12
HETATM   12  N   UNK     0      43.987   3.339  33.545  0.00  0.00    -0.347 N 
HETATM   13  C   UNK     0      44.422   2.256  32.852  0.00  0.00     0.111 A 
HETATM   14  C   UNK     0      45.631   1.947  33.427  0.00  0.00     0.135 A 
HETATM   15  N   UNK     0      45.932   2.815  34.446  0.00  0.00    -0.255 NA
HETATM   16  C   UNK     0      44.914   3.646  34.489  0.00  0.00     0.209 A 
ENDBRANCH  11  12
ENDBRANCH   1  11
BRANCH   1  17
HETATM   17  C   UNK     0      40.718   3.297  34.667  0.00  0.00    -0.006 A 
HETATM   18  C   UNK     0      41.013   2.514  35.772  0.00  0.00     0.044 A 
HETATM   19 Cl   UNK     0      42.274   1.337  35.744  0.00  0.00    -0.084 Cl
HETATM   20  C   UNK     0      40.273   2.677  36.943  0.00  0.00     0.048 A 
HETATM   21  C   UNK     0      39.248   3.620  36.996  0.00  0.00     0.035 A 
HETATM   22 Cl   UNK     0      38.335   3.821  38.441  0.00  0.00    -0.084 Cl
HETATM   23  C   UNK     0      38.961   4.402  35.877  0.00  0.00     0.024 A 
HETATM   24  C   UNK     0      39.701   4.240  34.705  0.00  0.00     0.013 A 
ENDBRANCH   1  17
TORSDOF 6
ENDMDL
