MODEL 1
REMARK VINA RESULT:      -8.4      0.000      0.000
REMARK  6 active torsions:
REMARK  status: ('A' for Active; 'I' for Inactive)
REMARK    1  A    between atoms: O_4  and  C_7 
REMARK    2  A    between atoms: O_4  and  C_10 
REMARK    3  A    between atoms: N_5  and  C_8 
REMARK    4  A    between atoms: C_7  and  C_8 
REMARK    5  A    between atoms: C_7  and  C_9 
REMARK    6  A    between atoms: C_10  and  C_13 
ROOT
HETATM    1  C   UNK     0     -21.871  11.556  15.801  0.00  0.00     0.174 C 
ENDROOT
BRANCH   1   2
HETATM    2  O   UNK     0     -21.305  10.499  16.562  0.00  0.00    -0.375 OA
BRANCH   2   3
HETATM    3  C   UNK     0     -20.857   9.438  15.727  0.00  0.00     0.207 C 
BRANCH   3   4
HETATM    4  C   UNK     0     -20.605   8.225  16.558  0.00  0.00    -0.035 A 
HETATM    5  C   UNK     0     -21.541   7.192  16.584  0.00  0.00     0.011 A 
HETATM    6  C   UNK     0     -21.306   6.058  17.362  0.00  0.00     0.024 A 
HETATM    7  C   UNK     0     -20.135   5.957  18.113  0.00  0.00     0.034 A 
HETATM    8 Cl   UNK     0     -19.844   4.558  19.072  0.00  0.00    -0.084 Cl
HETATM    9  C   UNK     0     -19.198   6.991  18.086  0.00  0.00     0.024 A 
HETATM   10  C   UNK     0     -19.433   8.125  17.308  0.00  0.00     0.011 A 
ENDBRANCH   3   4
ENDBRANCH   2   3
ENDBRANCH   1   2
BRANCH   1  11
HETATM   11  C   UNK     0     -23.400  11.413  15.810  0.00  0.00     0.166 C 
BRANCH  11  12
HETATM   12  N   UNK     0     -23.906  10.488  14.803  0.00  0.00    -0.347 N 
HETATM   13  C   UNK     0     -23.920  10.704  13.463  0.00  0.00     0.111 A 
HETATM   14  C   UNK     0     -24.483   9.564  12.941  0.00  0.00     0.135 A 
HETATM   15  N   UNK     0     -24.808   8.673  13.932  0.00  0.00    -0.255 NA
HETATM   16  C   UNK     0     -24.443   9.264  15.048  0.00  0.00     0.209 A 
ENDBRANCH  11  12
ENDBRANCH   1  11
BRANCH   1  17
HETATM   17  C   UNK     0     -21.392  12.871  16.373  0.00  0.00    -0.006 A 
HETATM   18  C   UNK     0     -20.151  13.388  16.034  0.00  0.00     0.044 A 
HETATM   19 Cl   UNK     0     -19.088  12.570  14.949  0.00  0.00    -0.084 Cl
HETATM   20  C   UNK     0     -19.743  14.604  16.584  0.00  0.00     0.048 A 
HETATM   21  C   UNK     0     -20.581  15.288  17.463  0.00  0.00     0.035 A 
HETATM   22 Cl   UNK     0     -20.079  16.788  18.141  0.00  0.00    -0.084 Cl
HETATM   23  C   UNK     0     -21.827  14.756  17.795  0.00  0.00     0.024 A 
HETATM   24  C   UNK     0     -22.236  13.540  17.247  0.00  0.00     0.013 A 
ENDBRANCH   1  17
TORSDOF 6
ENDMDL
MODEL 2
REMARK VINA RESULT:      -7.9      2.019      6.740
REMARK  6 active torsions:
REMARK  status: ('A' for Active; 'I' for Inactive)
REMARK    1  A    between atoms: O_4  and  C_7 
REMARK    2  A    between atoms: O_4  and  C_10 
REMARK    3  A    between atoms: N_5  and  C_8 
REMARK    4  A    between atoms: C_7  and  C_8 
REMARK    5  A    between atoms: C_7  and  C_9 
REMARK    6  A    between atoms: C_10  and  C_13 
ROOT
HETATM    1  C   UNK     0     -21.450   9.754  16.116  0.00  0.00     0.174 C 
ENDROOT
BRANCH   1   2
HETATM    2  O   UNK     0     -20.666  10.839  16.588  0.00  0.00    -0.375 OA
BRANCH   2   3
HETATM    3  C   UNK     0     -21.480  11.927  17.010  0.00  0.00     0.207 C 
BRANCH   3   4
HETATM    4  C   UNK     0     -21.416  13.017  15.995  0.00  0.00    -0.035 A 
HETATM    5  C   UNK     0     -22.550  13.781  15.720  0.00  0.00     0.011 A 
HETATM    6  C   UNK     0     -22.491  14.801  14.770  0.00  0.00     0.024 A 
HETATM    7  C   UNK     0     -21.298  15.058  14.096  0.00  0.00     0.034 A 
HETATM    8 Cl   UNK     0     -21.225  16.316  12.924  0.00  0.00    -0.084 Cl
HETATM    9  C   UNK     0     -20.163  14.294  14.371  0.00  0.00     0.024 A 
HETATM   10  C   UNK     0     -20.222  13.275  15.321  0.00  0.00     0.011 A 
ENDBRANCH   3   4
ENDBRANCH   2   3
ENDBRANCH   1   2
BRANCH   1  11
HETATM   11  C   UNK     0     -21.363   9.707  14.583  0.00  0.00     0.166 C 
BRANCH  11  12
HETATM   12  N   UNK     0     -22.406  10.477  13.915  0.00  0.00    -0.347 N 
HETATM   13  C   UNK     0     -23.729  10.447  14.213  0.00  0.00     0.111 A 
HETATM   14  C   UNK     0     -24.299  11.327  13.325  0.00  0.00     0.135 A 
HETATM   15  N   UNK     0     -23.351  11.883  12.502  0.00  0.00    -0.255 NA
HETATM   16  C   UNK     0     -22.216  11.346  12.888  0.00  0.00     0.209 A 
ENDBRANCH  11  12
ENDBRANCH   1  11
BRANCH   1  17
HETATM   17  C   UNK     0     -20.967   8.485  16.780  0.00  0.00    -0.006 A 
HETATM   18  C   UNK     0     -21.780   7.365  16.858  0.00  0.00     0.044 A 
HETATM   19 Cl   UNK     0     -23.378   7.351  16.207  0.00  0.00    -0.084 Cl
HETATM   20  C   UNK     0     -21.298   6.213  17.480  0.00  0.00     0.048 A 
HETATM   21  C   UNK     0     -20.011   6.194  18.015  0.00  0.00     0.035 A 
HETATM   22 Cl   UNK     0     -19.417   4.772  18.782  0.00  0.00    -0.084 Cl
HETATM   23  C   UNK     0     -19.204   7.328  17.929  0.00  0.00     0.024 A 
HETATM   24  C   UNK     0     -19.684   8.481  17.308  0.00  0.00     0.013 A 
ENDBRANCH   1  17
TORSDOF 6
ENDMDL
MODEL 3
REMARK VINA RESULT:      -7.9      3.858      5.696
REMARK  6 active torsions:
REMARK  status: ('A' for Active; 'I' for Inactive)
REMARK    1  A    between atoms: O_4  and  C_7 
REMARK    2  A    between atoms: O_4  and  C_10 
REMARK    3  A    between atoms: N_5  and  C_8 
REMARK    4  A    between atoms: C_7  and  C_8 
REMARK    5  A    between atoms: C_7  and  C_9 
REMARK    6  A    between atoms: C_10  and  C_13 
ROOT
HETATM    1  C   UNK     0     -22.804   8.799  16.270  0.00  0.00     0.174 C 
ENDROOT
BRANCH   1   2
HETATM    2  O   UNK     0     -23.935   7.954  16.424  0.00  0.00    -0.375 OA
BRANCH   2   3
HETATM    3  C   UNK     0     -23.589   6.585  16.256  0.00  0.00     0.207 C 
BRANCH   3   4
HETATM    4  C   UNK     0     -24.727   5.728  16.699  0.00  0.00    -0.035 A 
HETATM    5  C   UNK     0     -24.818   4.408  16.259  0.00  0.00     0.011 A 
HETATM    6  C   UNK     0     -25.883   3.606  16.673  0.00  0.00     0.024 A 
HETATM    7  C   UNK     0     -26.855   4.125  17.528  0.00  0.00     0.034 A 
HETATM    8 Cl   UNK     0     -28.168   3.137  18.038  0.00  0.00    -0.084 Cl
HETATM    9  C   UNK     0     -26.764   5.445  17.969  0.00  0.00     0.024 A 
HETATM   10  C   UNK     0     -25.699   6.247  17.555  0.00  0.00     0.011 A 
ENDBRANCH   3   4
ENDBRANCH   2   3
ENDBRANCH   1   2
BRANCH   1  11
HETATM   11  C   UNK     0     -21.610   7.952  15.806  0.00  0.00     0.166 C 
BRANCH  11  12
HETATM   12  N   UNK     0     -20.547   7.846  16.800  0.00  0.00    -0.347 N 
HETATM   13  C   UNK     0     -19.780   8.870  17.252  0.00  0.00     0.111 A 
HETATM   14  C   UNK     0     -18.935   8.284  18.164  0.00  0.00     0.135 A 
HETATM   15  N   UNK     0     -19.175   6.938  18.268  0.00  0.00    -0.255 NA
HETATM   16  C   UNK     0     -20.159   6.707  17.428  0.00  0.00     0.209 A 
ENDBRANCH  11  12
ENDBRANCH   1  11
BRANCH   1  17
HETATM   17  C   UNK     0     -23.159   9.908  15.306  0.00  0.00    -0.006 A 
HETATM   18  C   UNK     0     -22.733  11.208  15.524  0.00  0.00     0.044 A 
HETATM   19 Cl   UNK     0     -21.779  11.637  16.896  0.00  0.00    -0.084 Cl
HETATM   20  C   UNK     0     -23.082  12.205  14.612  0.00  0.00     0.048 A 
HETATM   21  C   UNK     0     -23.852  11.888  13.493  0.00  0.00     0.035 A 
HETATM   22 Cl   UNK     0     -24.283  13.117  12.368  0.00  0.00    -0.084 Cl
HETATM   23  C   UNK     0     -24.274  10.575  13.286  0.00  0.00     0.024 A 
HETATM   24  C   UNK     0     -23.925   9.578  14.197  0.00  0.00     0.013 A 
ENDBRANCH   1  17
TORSDOF 6
ENDMDL
