MODEL 1
REMARK VINA RESULT:      -6.9      0.000      0.000
REMARK  6 active torsions:
REMARK  status: ('A' for Active; 'I' for Inactive)
REMARK    1  A    between atoms: O_4  and  C_7 
REMARK    2  A    between atoms: O_4  and  C_10 
REMARK    3  A    between atoms: N_5  and  C_8 
REMARK    4  A    between atoms: C_7  and  C_8 
REMARK    5  A    between atoms: C_7  and  C_9 
REMARK    6  A    between atoms: C_10  and  C_13 
ROOT
HETATM    1  C   UNK     0     -18.945  36.487  44.265  0.00  0.00     0.174 C 
ENDROOT
BRANCH   1   2
HETATM    2  O   UNK     0     -20.236  35.906  44.370  0.00  0.00    -0.375 OA
BRANCH   2   3
HETATM    3  C   UNK     0     -21.259  36.856  44.094  0.00  0.00     0.207 C 
BRANCH   3   4
HETATM    4  C   UNK     0     -22.268  36.831  45.192  0.00  0.00    -0.035 A 
HETATM    5  C   UNK     0     -22.720  38.027  45.749  0.00  0.00     0.011 A 
HETATM    6  C   UNK     0     -23.664  38.004  46.777  0.00  0.00     0.024 A 
HETATM    7  C   UNK     0     -24.156  36.786  47.245  0.00  0.00     0.034 A 
HETATM    8 Cl   UNK     0     -25.320  36.758  48.511  0.00  0.00    -0.084 Cl
HETATM    9  C   UNK     0     -23.705  35.590  46.686  0.00  0.00     0.024 A 
HETATM   10  C   UNK     0     -22.761  35.613  45.659  0.00  0.00     0.011 A 
ENDBRANCH   3   4
ENDBRANCH   2   3
ENDBRANCH   1   2
BRANCH   1  11
HETATM   11  C   UNK     0     -18.168  36.209  45.561  0.00  0.00     0.166 C 
BRANCH  11  12
HETATM   12  N   UNK     0     -19.011  36.171  46.750  0.00  0.00    -0.347 N 
HETATM   13  C   UNK     0     -19.449  35.049  47.376  0.00  0.00     0.111 A 
HETATM   14  C   UNK     0     -20.197  35.518  48.430  0.00  0.00     0.135 A 
HETATM   15  N   UNK     0     -20.219  36.890  48.450  0.00  0.00    -0.255 NA
HETATM   16  C   UNK     0     -19.489  37.252  47.419  0.00  0.00     0.209 A 
ENDBRANCH  11  12
ENDBRANCH   1  11
BRANCH   1  17
HETATM   17  C   UNK     0     -18.266  35.934  43.033  0.00  0.00    -0.006 A 
HETATM   18  C   UNK     0     -17.954  36.753  41.960  0.00  0.00     0.044 A 
HETATM   19 Cl   UNK     0     -18.317  38.441  41.966  0.00  0.00    -0.084 Cl
HETATM   20  C   UNK     0     -17.329  36.206  40.839  0.00  0.00     0.048 A 
HETATM   21  C   UNK     0     -17.024  34.846  40.806  0.00  0.00     0.035 A 
HETATM   22 Cl   UNK     0     -16.252  34.169  39.423  0.00  0.00    -0.084 Cl
HETATM   23  C   UNK     0     -17.344  34.032  41.892  0.00  0.00     0.024 A 
HETATM   24  C   UNK     0     -17.968  34.579  43.013  0.00  0.00     0.013 A 
ENDBRANCH   1  17
TORSDOF 6
ENDMDL
MODEL 2
REMARK VINA RESULT:      -6.7      2.742      5.185
REMARK  6 active torsions:
REMARK  status: ('A' for Active; 'I' for Inactive)
REMARK    1  A    between atoms: O_4  and  C_7 
REMARK    2  A    between atoms: O_4  and  C_10 
REMARK    3  A    between atoms: N_5  and  C_8 
REMARK    4  A    between atoms: C_7  and  C_8 
REMARK    5  A    between atoms: C_7  and  C_9 
REMARK    6  A    between atoms: C_10  and  C_13 
ROOT
HETATM    1  C   UNK     0     -19.443  37.165  43.683  0.00  0.00     0.174 C 
ENDROOT
BRANCH   1   2
HETATM    2  O   UNK     0     -20.672  37.863  43.558  0.00  0.00    -0.375 OA
BRANCH   2   3
HETATM    3  C   UNK     0     -21.776  36.968  43.492  0.00  0.00     0.207 C 
BRANCH   3   4
HETATM    4  C   UNK     0     -22.437  36.896  44.827  0.00  0.00    -0.035 A 
HETATM    5  C   UNK     0     -22.902  35.673  45.309  0.00  0.00     0.011 A 
HETATM    6  C   UNK     0     -23.521  35.605  46.558  0.00  0.00     0.024 A 
HETATM    7  C   UNK     0     -23.673  36.760  47.325  0.00  0.00     0.034 A 
HETATM    8 Cl   UNK     0     -24.436  36.677  48.865  0.00  0.00    -0.084 Cl
HETATM    9  C   UNK     0     -23.207  37.984  46.843  0.00  0.00     0.024 A 
HETATM   10  C   UNK     0     -22.588  38.052  45.594  0.00  0.00     0.011 A 
ENDBRANCH   3   4
ENDBRANCH   2   3
ENDBRANCH   1   2
BRANCH   1  11
HETATM   11  C   UNK     0     -18.438  37.743  42.675  0.00  0.00     0.166 C 
BRANCH  11  12
HETATM   12  N   UNK     0     -17.963  36.769  41.699  0.00  0.00    -0.347 N 
HETATM   13  C   UNK     0     -17.986  36.921  40.350  0.00  0.00     0.111 A 
HETATM   14  C   UNK     0     -17.441  35.755  39.867  0.00  0.00     0.135 A 
HETATM   15  N   UNK     0     -17.093  34.910  40.891  0.00  0.00    -0.255 NA
HETATM   16  C   UNK     0     -17.423  35.557  41.986  0.00  0.00     0.209 A 
ENDBRANCH  11  12
ENDBRANCH   1  11
BRANCH   1  17
HETATM   17  C   UNK     0     -18.974  37.266  45.116  0.00  0.00    -0.006 A 
HETATM   18  C   UNK     0     -18.940  36.150  45.937  0.00  0.00     0.044 A 
HETATM   19 Cl   UNK     0     -19.425  34.591  45.378  0.00  0.00    -0.084 Cl
HETATM   20  C   UNK     0     -18.503  36.283  47.255  0.00  0.00     0.048 A 
HETATM   21  C   UNK     0     -18.104  37.530  47.736  0.00  0.00     0.035 A 
HETATM   22 Cl   UNK     0     -17.564  37.695  49.362  0.00  0.00    -0.084 Cl
HETATM   23  C   UNK     0     -18.144  38.645  46.898  0.00  0.00     0.024 A 
HETATM   24  C   UNK     0     -18.581  38.512  45.580  0.00  0.00     0.013 A 
ENDBRANCH   1  17
TORSDOF 6
ENDMDL
MODEL 3
REMARK VINA RESULT:      -6.6      2.098      6.738
REMARK  6 active torsions:
REMARK  status: ('A' for Active; 'I' for Inactive)
REMARK    1  A    between atoms: O_4  and  C_7 
REMARK    2  A    between atoms: O_4  and  C_10 
REMARK    3  A    between atoms: N_5  and  C_8 
REMARK    4  A    between atoms: C_7  and  C_8 
REMARK    5  A    between atoms: C_7  and  C_9 
REMARK    6  A    between atoms: C_10  and  C_13 
ROOT
HETATM    1  C   UNK     0     -19.730  37.720  45.198  0.00  0.00     0.174 C 
ENDROOT
BRANCH   1   2
HETATM    2  O   UNK     0     -19.766  37.724  43.779  0.00  0.00    -0.375 OA
BRANCH   2   3
HETATM    3  C   UNK     0     -18.534  38.172  43.227  0.00  0.00     0.207 C 
BRANCH   3   4
HETATM    4  C   UNK     0     -18.023  37.155  42.263  0.00  0.00    -0.035 A 
HETATM    5  C   UNK     0     -17.520  35.942  42.731  0.00  0.00     0.011 A 
HETATM    6  C   UNK     0     -17.041  34.991  41.830  0.00  0.00     0.024 A 
HETATM    7  C   UNK     0     -17.067  35.253  40.460  0.00  0.00     0.034 A 
HETATM    8 Cl   UNK     0     -16.478  34.080  39.348  0.00  0.00    -0.084 Cl
HETATM    9  C   UNK     0     -17.572  36.466  39.992  0.00  0.00     0.024 A 
HETATM   10  C   UNK     0     -18.050  37.417  40.893  0.00  0.00     0.011 A 
ENDBRANCH   3   4
ENDBRANCH   2   3
ENDBRANCH   1   2
BRANCH   1  11
HETATM   11  C   UNK     0     -19.421  39.141  45.692  0.00  0.00     0.166 C 
BRANCH  11  12
HETATM   12  N   UNK     0     -18.805  39.179  47.013  0.00  0.00    -0.347 N 
HETATM   13  C   UNK     0     -18.153  38.152  47.615  0.00  0.00     0.111 A 
HETATM   14  C   UNK     0     -17.757  38.663  48.827  0.00  0.00     0.135 A 
HETATM   15  N   UNK     0     -18.155  39.969  48.968  0.00  0.00    -0.255 NA
HETATM   16  C   UNK     0     -18.787  40.249  47.850  0.00  0.00     0.209 A 
ENDBRANCH  11  12
ENDBRANCH   1  11
BRANCH   1  17
HETATM   17  C   UNK     0     -21.047  37.184  45.712  0.00  0.00    -0.006 A 
HETATM   18  C   UNK     0     -21.199  35.843  46.027  0.00  0.00     0.044 A 
HETATM   19 Cl   UNK     0     -19.905  34.714  45.855  0.00  0.00    -0.084 Cl
HETATM   20  C   UNK     0     -22.430  35.385  46.497  0.00  0.00     0.048 A 
HETATM   21  C   UNK     0     -23.494  36.274  46.647  0.00  0.00     0.035 A 
HETATM   22 Cl   UNK     0     -25.013  35.710  47.227  0.00  0.00    -0.084 Cl
HETATM   23  C   UNK     0     -23.327  37.621  46.326  0.00  0.00     0.024 A 
HETATM   24  C   UNK     0     -22.097  38.079  45.856  0.00  0.00     0.013 A 
ENDBRANCH   1  17
TORSDOF 6
ENDMDL
