MODEL 1
REMARK VINA RESULT:      -6.2      0.000      0.000
REMARK  5 active torsions:
REMARK  status: ('A' for Active; 'I' for Inactive)
REMARK    1  A    between atoms: C_3  and  C_5 
REMARK    2  A    between atoms: C_4  and  C_6 
REMARK    3  A    between atoms: C_7  and  C_10 
REMARK    4  A    between atoms: C_8  and  C_9 
REMARK    5  A    between atoms: C_11  and  C_12 
ROOT
HETATM    1  O   UNK     0       2.087 -12.433   1.448  0.00  0.00    -0.189 OA
HETATM    2  C   UNK     0       1.589 -10.201   0.268  0.00  0.00     0.029 C 
HETATM    3  C   UNK     0       2.138 -11.194   0.966  0.00  0.00     0.150 C 
ENDROOT
BRANCH   3   4
HETATM    4  C   UNK     0       3.330 -11.024   1.530  0.00  0.00     0.128 C 
HETATM    5  N   UNK     0       3.793 -12.083   0.871  0.00  0.00    -0.146 N 
HETATM    6  C   UNK     0       3.535 -10.025   2.382  0.00  0.00     0.025 C 
ENDBRANCH   3   4
BRANCH   2   7
HETATM    7  C   UNK     0       0.397 -10.372  -0.296  0.00  0.00     0.002 C 
HETATM    8  C   UNK     0      -0.518  -9.410  -0.238  0.00  0.00     0.000 C 
BRANCH   8   9
HETATM    9  C   UNK     0      -1.710  -9.581  -0.802  0.00  0.00     0.000 C 
HETATM   10  C   UNK     0      -2.101 -10.803  -1.161  0.00  0.00     0.000 C 
BRANCH  10  11
HETATM   11  C   UNK     0      -3.293 -10.975  -1.725  0.00  0.00     0.000 C 
HETATM   12  C   UNK     0      -4.048 -12.018  -1.397  0.00  0.00     0.000 C 
BRANCH  12  13
HETATM   13  C   UNK     0      -5.240 -12.190  -1.961  0.00  0.00     0.000 C 
HETATM   14  C   UNK     0      -6.126 -13.008  -1.395  0.00  0.00     0.000 C 
ENDBRANCH  12  13
ENDBRANCH  10  11
ENDBRANCH   8   9
ENDBRANCH   2   7
TORSDOF 5
ENDMDL
MODEL 2
REMARK VINA RESULT:      -5.7      4.929      8.513
REMARK  5 active torsions:
REMARK  status: ('A' for Active; 'I' for Inactive)
REMARK    1  A    between atoms: C_3  and  C_5 
REMARK    2  A    between atoms: C_4  and  C_6 
REMARK    3  A    between atoms: C_7  and  C_10 
REMARK    4  A    between atoms: C_8  and  C_9 
REMARK    5  A    between atoms: C_11  and  C_12 
ROOT
HETATM    1  O   UNK     0      -7.404 -14.447   1.727  0.00  0.00    -0.189 OA
HETATM    2  C   UNK     0      -7.056 -14.552  -0.820  0.00  0.00     0.029 C 
HETATM    3  C   UNK     0      -7.480 -14.731   0.430  0.00  0.00     0.150 C 
ENDROOT
BRANCH   3   4
HETATM    4  C   UNK     0      -8.467 -15.588   0.675  0.00  0.00     0.128 C 
HETATM    5  N   UNK     0      -7.989 -15.789   1.900  0.00  0.00    -0.146 N 
HETATM    6  C   UNK     0      -9.378 -15.848  -0.256  0.00  0.00     0.025 C 
ENDBRANCH   3   4
BRANCH   2   7
HETATM    7  C   UNK     0      -6.068 -13.695  -1.065  0.00  0.00     0.002 C 
HETATM    8  C   UNK     0      -6.081 -12.952  -2.165  0.00  0.00     0.000 C 
BRANCH   8   9
HETATM    9  C   UNK     0      -5.093 -12.095  -2.410  0.00  0.00     0.000 C 
HETATM   10  C   UNK     0      -4.160 -11.882  -1.483  0.00  0.00     0.000 C 
BRANCH  10  11
HETATM   11  C   UNK     0      -3.172 -11.026  -1.727  0.00  0.00     0.000 C 
HETATM   12  C   UNK     0      -2.612 -10.345  -0.733  0.00  0.00     0.000 C 
BRANCH  12  13
HETATM   13  C   UNK     0      -1.624  -9.489  -0.976  0.00  0.00     0.000 C 
HETATM   14  C   UNK     0      -1.153  -8.726   0.009  0.00  0.00     0.000 C 
ENDBRANCH  12  13
ENDBRANCH  10  11
ENDBRANCH   8   9
ENDBRANCH   2   7
TORSDOF 5
ENDMDL
MODEL 3
REMARK VINA RESULT:      -5.7     25.647     26.632
REMARK  5 active torsions:
REMARK  status: ('A' for Active; 'I' for Inactive)
REMARK    1  A    between atoms: C_3  and  C_5 
REMARK    2  A    between atoms: C_4  and  C_6 
REMARK    3  A    between atoms: C_7  and  C_10 
REMARK    4  A    between atoms: C_8  and  C_9 
REMARK    5  A    between atoms: C_11  and  C_12 
ROOT
HETATM    1  O   UNK     0      -0.335  15.227   3.487  0.00  0.00    -0.189 OA
HETATM    2  C   UNK     0      -2.067  15.777   5.308  0.00  0.00     0.029 C 
HETATM    3  C   UNK     0      -0.965  15.680   4.567  0.00  0.00     0.150 C 
ENDROOT
BRANCH   3   4
HETATM    4  C   UNK     0       0.153  16.279   4.967  0.00  0.00     0.128 C 
HETATM    5  N   UNK     0      -0.466  17.456   4.935  0.00  0.00    -0.146 N 
HETATM    6  C   UNK     0       1.252  15.569   5.196  0.00  0.00     0.025 C 
ENDBRANCH   3   4
BRANCH   2   7
HETATM    7  C   UNK     0      -3.185  15.178   4.908  0.00  0.00     0.002 C 
HETATM    8  C   UNK     0      -4.176  15.887   4.377  0.00  0.00     0.000 C 
BRANCH   8   9
HETATM    9  C   UNK     0      -5.293  15.286   3.977  0.00  0.00     0.000 C 
HETATM   10  C   UNK     0      -5.632  14.108   4.498  0.00  0.00     0.000 C 
BRANCH  10  11
HETATM   11  C   UNK     0      -6.749  13.508   4.099  0.00  0.00     0.000 C 
HETATM   12  C   UNK     0      -6.976  13.298   2.807  0.00  0.00     0.000 C 
BRANCH  12  13
HETATM   13  C   UNK     0      -8.093  12.697   2.408  0.00  0.00     0.000 C 
HETATM   14  C   UNK     0      -8.890  13.302   1.529  0.00  0.00     0.000 C 
ENDBRANCH  12  13
ENDBRANCH  10  11
ENDBRANCH   8   9
ENDBRANCH   2   7
TORSDOF 5
ENDMDL
MODEL 4
REMARK VINA RESULT:      -5.6      3.945      7.693
REMARK  5 active torsions:
REMARK  status: ('A' for Active; 'I' for Inactive)
REMARK    1  A    between atoms: C_3  and  C_5 
REMARK    2  A    between atoms: C_4  and  C_6 
REMARK    3  A    between atoms: C_7  and  C_10 
REMARK    4  A    between atoms: C_8  and  C_9 
REMARK    5  A    between atoms: C_11  and  C_12 
ROOT
HETATM    1  O   UNK     0      -5.005 -15.094  -2.491  0.00  0.00    -0.189 OA
HETATM    2  C   UNK     0      -5.279 -12.832  -1.296  0.00  0.00     0.029 C 
HETATM    3  C   UNK     0      -5.479 -13.980  -1.940  0.00  0.00     0.150 C 
ENDROOT
BRANCH   3   4
HETATM    4  C   UNK     0      -6.715 -14.342  -2.273  0.00  0.00     0.128 C 
HETATM    5  N   UNK     0      -6.670 -13.530  -3.326  0.00  0.00    -0.146 N 
HETATM    6  C   UNK     0      -7.379 -15.225  -1.535  0.00  0.00     0.025 C 
ENDBRANCH   3   4
BRANCH   2   7
HETATM    7  C   UNK     0      -4.043 -12.470  -0.963  0.00  0.00     0.002 C 
HETATM    8  C   UNK     0      -3.468 -11.424  -1.547  0.00  0.00     0.000 C 
BRANCH   8   9
HETATM    9  C   UNK     0      -2.232 -11.063  -1.213  0.00  0.00     0.000 C 
HETATM   10  C   UNK     0      -1.973  -9.789  -0.924  0.00  0.00     0.000 C 
BRANCH  10  11
HETATM   11  C   UNK     0      -0.737  -9.427  -0.591  0.00  0.00     0.000 C 
HETATM   12  C   UNK     0      -0.009 -10.187   0.220  0.00  0.00     0.000 C 
BRANCH  12  13
HETATM   13  C   UNK     0       1.226  -9.825   0.553  0.00  0.00     0.000 C 
HETATM   14  C   UNK     0       2.267 -10.477   0.039  0.00  0.00     0.000 C 
ENDBRANCH  12  13
ENDBRANCH  10  11
ENDBRANCH   8   9
ENDBRANCH   2   7
TORSDOF 5
ENDMDL
MODEL 5
REMARK VINA RESULT:      -5.6     25.846     27.442
REMARK  5 active torsions:
REMARK  status: ('A' for Active; 'I' for Inactive)
REMARK    1  A    between atoms: C_3  and  C_5 
REMARK    2  A    between atoms: C_4  and  C_6 
REMARK    3  A    between atoms: C_7  and  C_10 
REMARK    4  A    between atoms: C_8  and  C_9 
REMARK    5  A    between atoms: C_11  and  C_12 
ROOT
HETATM    1  O   UNK     0      -7.528  14.482   1.899  0.00  0.00    -0.189 OA
HETATM    2  C   UNK     0      -6.804  13.937   4.306  0.00  0.00     0.029 C 
HETATM    3  C   UNK     0      -7.490  14.136   3.182  0.00  0.00     0.150 C 
ENDROOT
BRANCH   3   4
HETATM    4  C   UNK     0      -8.804  13.932   3.167  0.00  0.00     0.128 C 
HETATM    5  N   UNK     0      -8.998  15.144   3.679  0.00  0.00    -0.146 N 
HETATM    6  C   UNK     0      -9.301  12.785   2.718  0.00  0.00     0.025 C 
ENDBRANCH   3   4
BRANCH   2   7
HETATM    7  C   UNK     0      -5.490  14.141   4.322  0.00  0.00     0.002 C 
HETATM    8  C   UNK     0      -4.999  15.371   4.211  0.00  0.00     0.000 C 
BRANCH   8   9
HETATM    9  C   UNK     0      -3.684  15.574   4.227  0.00  0.00     0.000 C 
HETATM   10  C   UNK     0      -3.035  15.605   5.390  0.00  0.00     0.000 C 
BRANCH  10  11
HETATM   11  C   UNK     0      -1.721  15.808   5.406  0.00  0.00     0.000 C 
HETATM   12  C   UNK     0      -0.935  15.198   4.527  0.00  0.00     0.000 C 
BRANCH  12  13
HETATM   13  C   UNK     0       0.379  15.401   4.543  0.00  0.00     0.000 C 
HETATM   14  C   UNK     0       1.186  14.561   3.897  0.00  0.00     0.000 C 
ENDBRANCH  12  13
ENDBRANCH  10  11
ENDBRANCH   8   9
ENDBRANCH   2   7
TORSDOF 5
ENDMDL
