MODEL 1
REMARK VINA RESULT:      -6.1      0.000      0.000
REMARK  5 active torsions:
REMARK  status: ('A' for Active; 'I' for Inactive)
REMARK    1  A    between atoms: C_3  and  C_5 
REMARK    2  A    between atoms: C_4  and  C_6 
REMARK    3  A    between atoms: C_7  and  C_10 
REMARK    4  A    between atoms: C_8  and  C_9 
REMARK    5  A    between atoms: C_11  and  C_12 
ROOT
HETATM    1  O   UNK     0      -3.932 -13.891  -0.985  0.00  0.00    -0.189 OA
HETATM    2  C   UNK     0      -3.639 -11.371  -1.411  0.00  0.00     0.029 C 
HETATM    3  C   UNK     0      -4.118 -12.606  -1.270  0.00  0.00     0.150 C 
ENDROOT
BRANCH   3   4
HETATM    4  C   UNK     0      -5.410 -12.840  -1.483  0.00  0.00     0.128 C 
HETATM    5  N   UNK     0      -5.400 -13.764  -0.527  0.00  0.00    -0.146 N 
HETATM    6  C   UNK     0      -6.071 -12.162  -2.415  0.00  0.00     0.025 C 
ENDBRANCH   3   4
BRANCH   2   7
HETATM    7  C   UNK     0      -2.347 -11.137  -1.198  0.00  0.00     0.002 C 
HETATM    8  C   UNK     0      -1.924  -9.910  -0.915  0.00  0.00     0.000 C 
BRANCH   8   9
HETATM    9  C   UNK     0      -0.632  -9.676  -0.702  0.00  0.00     0.000 C 
HETATM   10  C   UNK     0       0.204 -10.699  -0.529  0.00  0.00     0.000 C 
BRANCH  10  11
HETATM   11  C   UNK     0       1.496 -10.466  -0.316  0.00  0.00     0.000 C 
HETATM   12  C   UNK     0       1.950 -10.276   0.918  0.00  0.00     0.000 C 
BRANCH  12  13
HETATM   13  C   UNK     0       3.242 -10.043   1.131  0.00  0.00     0.000 C 
HETATM   14  C   UNK     0       3.698  -9.940   2.378  0.00  0.00     0.000 C 
ENDBRANCH  12  13
ENDBRANCH  10  11
ENDBRANCH   8   9
ENDBRANCH   2   7
TORSDOF 5
ENDMDL
MODEL 2
REMARK VINA RESULT:      -6.0      2.969      7.179
REMARK  5 active torsions:
REMARK  status: ('A' for Active; 'I' for Inactive)
REMARK    1  A    between atoms: C_3  and  C_5 
REMARK    2  A    between atoms: C_4  and  C_6 
REMARK    3  A    between atoms: C_7  and  C_10 
REMARK    4  A    between atoms: C_8  and  C_9 
REMARK    5  A    between atoms: C_11  and  C_12 
ROOT
HETATM    1  O   UNK     0       1.860 -12.689   1.141  0.00  0.00    -0.189 OA
HETATM    2  C   UNK     0       1.522 -10.312   0.215  0.00  0.00     0.029 C 
HETATM    3  C   UNK     0       1.951 -11.390   0.870  0.00  0.00     0.150 C 
ENDROOT
BRANCH   3   4
HETATM    4  C   UNK     0       2.973 -11.285   1.715  0.00  0.00     0.128 C 
HETATM    5  N   UNK     0       2.906 -12.591   1.958  0.00  0.00    -0.146 N 
HETATM    6  C   UNK     0       3.548 -10.107   1.933  0.00  0.00     0.025 C 
ENDBRANCH   3   4
BRANCH   2   7
HETATM    7  C   UNK     0       0.500 -10.417  -0.629  0.00  0.00     0.002 C 
HETATM    8  C   UNK     0      -0.734 -10.128  -0.231  0.00  0.00     0.000 C 
BRANCH   8   9
HETATM    9  C   UNK     0      -1.755 -10.233  -1.077  0.00  0.00     0.000 C 
HETATM   10  C   UNK     0      -2.602 -11.254  -0.964  0.00  0.00     0.000 C 
BRANCH  10  11
HETATM   11  C   UNK     0      -3.624 -11.360  -1.809  0.00  0.00     0.000 C 
HETATM   12  C   UNK     0      -4.668 -12.125  -1.510  0.00  0.00     0.000 C 
BRANCH  12  13
HETATM   13  C   UNK     0      -5.690 -12.231  -2.355  0.00  0.00     0.000 C 
HETATM   14  C   UNK     0      -5.980 -13.413  -2.895  0.00  0.00     0.000 C 
ENDBRANCH  12  13
ENDBRANCH  10  11
ENDBRANCH   8   9
ENDBRANCH   2   7
TORSDOF 5
ENDMDL
MODEL 3
REMARK VINA RESULT:      -5.7      2.603      4.100
REMARK  5 active torsions:
REMARK  status: ('A' for Active; 'I' for Inactive)
REMARK    1  A    between atoms: C_3  and  C_5 
REMARK    2  A    between atoms: C_4  and  C_6 
REMARK    3  A    between atoms: C_7  and  C_10 
REMARK    4  A    between atoms: C_8  and  C_9 
REMARK    5  A    between atoms: C_11  and  C_12 
ROOT
HETATM    1  O   UNK     0      -7.611 -15.001  -0.321  0.00  0.00    -0.189 OA
HETATM    2  C   UNK     0      -6.545 -13.964  -2.421  0.00  0.00     0.029 C 
HETATM    3  C   UNK     0      -7.178 -14.753  -1.554  0.00  0.00     0.150 C 
ENDROOT
BRANCH   3   4
HETATM    4  C   UNK     0      -7.694 -15.907  -1.968  0.00  0.00     0.128 C 
HETATM    5  N   UNK     0      -6.470 -16.415  -2.080  0.00  0.00    -0.146 N 
HETATM    6  C   UNK     0      -9.010 -16.054  -2.080  0.00  0.00     0.025 C 
ENDBRANCH   3   4
BRANCH   2   7
HETATM    7  C   UNK     0      -6.029 -12.810  -2.008  0.00  0.00     0.002 C 
HETATM    8  C   UNK     0      -4.758 -12.739  -1.629  0.00  0.00     0.000 C 
BRANCH   8   9
HETATM    9  C   UNK     0      -4.243 -11.585  -1.216  0.00  0.00     0.000 C 
HETATM   10  C   UNK     0      -2.979 -11.285  -1.507  0.00  0.00     0.000 C 
BRANCH  10  11
HETATM   11  C   UNK     0      -2.463 -10.131  -1.095  0.00  0.00     0.000 C 
HETATM   12  C   UNK     0      -1.213 -10.074  -0.648  0.00  0.00     0.000 C 
BRANCH  12  13
HETATM   13  C   UNK     0      -0.697  -8.920  -0.235  0.00  0.00     0.000 C 
HETATM   14  C   UNK     0      -1.330  -8.208   0.695  0.00  0.00     0.000 C 
ENDBRANCH  12  13
ENDBRANCH  10  11
ENDBRANCH   8   9
ENDBRANCH   2   7
TORSDOF 5
ENDMDL
MODEL 4
REMARK VINA RESULT:      -5.5      4.138      7.778
REMARK  5 active torsions:
REMARK  status: ('A' for Active; 'I' for Inactive)
REMARK    1  A    between atoms: C_3  and  C_5 
REMARK    2  A    between atoms: C_4  and  C_6 
REMARK    3  A    between atoms: C_7  and  C_10 
REMARK    4  A    between atoms: C_8  and  C_9 
REMARK    5  A    between atoms: C_11  and  C_12 
ROOT
HETATM    1  O   UNK     0       4.661 -10.807  -1.699  0.00  0.00    -0.189 OA
HETATM    2  C   UNK     0       3.193 -10.403   0.374  0.00  0.00     0.029 C 
HETATM    3  C   UNK     0       4.201 -10.492  -0.492  0.00  0.00     0.150 C 
ENDROOT
BRANCH   3   4
HETATM    4  C   UNK     0       5.423 -10.121  -0.122  0.00  0.00     0.128 C 
HETATM    5  N   UNK     0       5.942 -11.106  -0.850  0.00  0.00    -0.146 N 
HETATM    6  C   UNK     0       5.594  -9.085   0.691  0.00  0.00     0.025 C 
ENDBRANCH   3   4
BRANCH   2   7
HETATM    7  C   UNK     0       1.970 -10.774   0.004  0.00  0.00     0.002 C 
HETATM    8  C   UNK     0       0.933  -9.971   0.210  0.00  0.00     0.000 C 
BRANCH   8   9
HETATM    9  C   UNK     0      -0.290 -10.343  -0.160  0.00  0.00     0.000 C 
HETATM   10  C   UNK     0      -1.117  -9.448  -0.698  0.00  0.00     0.000 C 
BRANCH  10  11
HETATM   11  C   UNK     0      -2.339  -9.820  -1.068  0.00  0.00     0.000 C 
HETATM   12  C   UNK     0      -2.606 -11.096  -1.325  0.00  0.00     0.000 C 
BRANCH  12  13
HETATM   13  C   UNK     0      -3.828 -11.467  -1.695  0.00  0.00     0.000 C 
HETATM   14  C   UNK     0      -4.395 -12.530  -1.129  0.00  0.00     0.000 C 
ENDBRANCH  12  13
ENDBRANCH  10  11
ENDBRANCH   8   9
ENDBRANCH   2   7
TORSDOF 5
ENDMDL
MODEL 5
REMARK VINA RESULT:      -5.4      8.710     11.388
REMARK  5 active torsions:
REMARK  status: ('A' for Active; 'I' for Inactive)
REMARK    1  A    between atoms: C_3  and  C_5 
REMARK    2  A    between atoms: C_4  and  C_6 
REMARK    3  A    between atoms: C_7  and  C_10 
REMARK    4  A    between atoms: C_8  and  C_9 
REMARK    5  A    between atoms: C_11  and  C_12 
ROOT
HETATM    1  O   UNK     0       8.098  -6.172  -4.100  0.00  0.00    -0.189 OA
HETATM    2  C   UNK     0       7.752  -4.716  -2.007  0.00  0.00     0.029 C 
HETATM    3  C   UNK     0       8.167  -5.230  -3.164  0.00  0.00     0.150 C 
ENDROOT
BRANCH   3   4
HETATM    4  C   UNK     0       9.123  -4.614  -3.854  0.00  0.00     0.128 C 
HETATM    5  N   UNK     0       9.307  -5.714  -4.579  0.00  0.00    -0.146 N 
HETATM    6  C   UNK     0       9.449  -3.356  -3.578  0.00  0.00     0.025 C 
ENDBRANCH   3   4
BRANCH   2   7
HETATM    7  C   UNK     0       6.796  -5.331  -1.317  0.00  0.00     0.002 C 
HETATM    8  C   UNK     0       6.899  -6.624  -1.032  0.00  0.00     0.000 C 
BRANCH   8   9
HETATM    9  C   UNK     0       5.942  -7.239  -0.342  0.00  0.00     0.000 C 
HETATM   10  C   UNK     0       5.787  -8.556  -0.459  0.00  0.00     0.000 C 
BRANCH  10  11
HETATM   11  C   UNK     0       4.830  -9.171   0.231  0.00  0.00     0.000 C 
HETATM   12  C   UNK     0       4.717  -8.981   1.541  0.00  0.00     0.000 C 
BRANCH  12  13
HETATM   13  C   UNK     0       3.761  -9.596   2.231  0.00  0.00     0.000 C 
HETATM   14  C   UNK     0       4.065 -10.650   2.985  0.00  0.00     0.000 C 
ENDBRANCH  12  13
ENDBRANCH  10  11
ENDBRANCH   8   9
ENDBRANCH   2   7
TORSDOF 5
ENDMDL
