MODEL 1
REMARK VINA RESULT:      -6.1      0.000      0.000
REMARK  5 active torsions:
REMARK  status: ('A' for Active; 'I' for Inactive)
REMARK    1  A    between atoms: C_3  and  C_5 
REMARK    2  A    between atoms: C_4  and  C_6 
REMARK    3  A    between atoms: C_7  and  C_10 
REMARK    4  A    between atoms: C_8  and  C_9 
REMARK    5  A    between atoms: C_11  and  C_12 
ROOT
HETATM    1  O   UNK     0       2.315 -11.838  -0.369  0.00  0.00    -0.189 OA
HETATM    2  C   UNK     0       0.937  -9.931   0.670  0.00  0.00     0.029 C 
HETATM    3  C   UNK     0       1.911 -10.753   0.285  0.00  0.00     0.150 C 
ENDROOT
BRANCH   3   4
HETATM    4  C   UNK     0       3.165 -10.508   0.654  0.00  0.00     0.128 C 
HETATM    5  N   UNK     0       3.542 -10.518  -0.621  0.00  0.00    -0.146 N 
HETATM    6  C   UNK     0       3.474 -10.376   1.939  0.00  0.00     0.025 C 
ENDBRANCH   3   4
BRANCH   2   7
HETATM    7  C   UNK     0      -0.317 -10.176   0.301  0.00  0.00     0.002 C 
HETATM    8  C   UNK     0      -0.882  -9.470  -0.673  0.00  0.00     0.000 C 
BRANCH   8   9
HETATM    9  C   UNK     0      -2.136  -9.716  -1.041  0.00  0.00     0.000 C 
HETATM   10  C   UNK     0      -2.485 -10.946  -1.416  0.00  0.00     0.000 C 
BRANCH  10  11
HETATM   11  C   UNK     0      -3.739 -11.192  -1.784  0.00  0.00     0.000 C 
HETATM   12  C   UNK     0      -4.391 -12.239  -1.291  0.00  0.00     0.000 C 
BRANCH  12  13
HETATM   13  C   UNK     0      -5.645 -12.486  -1.659  0.00  0.00     0.000 C 
HETATM   14  C   UNK     0      -5.883 -13.275  -2.705  0.00  0.00     0.000 C 
ENDBRANCH  12  13
ENDBRANCH  10  11
ENDBRANCH   8   9
ENDBRANCH   2   7
TORSDOF 5
ENDMDL
MODEL 2
REMARK VINA RESULT:      -5.7      5.078      8.396
REMARK  5 active torsions:
REMARK  status: ('A' for Active; 'I' for Inactive)
REMARK    1  A    between atoms: C_3  and  C_5 
REMARK    2  A    between atoms: C_4  and  C_6 
REMARK    3  A    between atoms: C_7  and  C_10 
REMARK    4  A    between atoms: C_8  and  C_9 
REMARK    5  A    between atoms: C_11  and  C_12 
ROOT
HETATM    1  O   UNK     0      -6.836 -14.728   2.088  0.00  0.00    -0.189 OA
HETATM    2  C   UNK     0      -7.083 -14.418  -0.454  0.00  0.00     0.029 C 
HETATM    3  C   UNK     0      -7.248 -14.756   0.824  0.00  0.00     0.150 C 
ENDROOT
BRANCH   3   4
HETATM    4  C   UNK     0      -8.301 -15.485   1.183  0.00  0.00     0.128 C 
HETATM    5  N   UNK     0      -9.073 -14.405   1.112  0.00  0.00    -0.146 N 
HETATM    6  C   UNK     0      -8.168 -16.784   1.426  0.00  0.00     0.025 C 
ENDBRANCH   3   4
BRANCH   2   7
HETATM    7  C   UNK     0      -6.030 -13.689  -0.813  0.00  0.00     0.002 C 
HETATM    8  C   UNK     0      -6.108 -12.860  -1.848  0.00  0.00     0.000 C 
BRANCH   8   9
HETATM    9  C   UNK     0      -5.055 -12.131  -2.206  0.00  0.00     0.000 C 
HETATM   10  C   UNK     0      -4.142 -11.799  -1.295  0.00  0.00     0.000 C 
BRANCH  10  11
HETATM   11  C   UNK     0      -3.088 -11.070  -1.653  0.00  0.00     0.000 C 
HETATM   12  C   UNK     0      -2.506 -10.256  -0.779  0.00  0.00     0.000 C 
BRANCH  12  13
HETATM   13  C   UNK     0      -1.452  -9.527  -1.137  0.00  0.00     0.000 C 
HETATM   14  C   UNK     0      -0.900  -8.690  -0.261  0.00  0.00     0.000 C 
ENDBRANCH  12  13
ENDBRANCH  10  11
ENDBRANCH   8   9
ENDBRANCH   2   7
TORSDOF 5
ENDMDL
MODEL 3
REMARK VINA RESULT:      -5.4      4.752      8.336
REMARK  5 active torsions:
REMARK  status: ('A' for Active; 'I' for Inactive)
REMARK    1  A    between atoms: C_3  and  C_5 
REMARK    2  A    between atoms: C_4  and  C_6 
REMARK    3  A    between atoms: C_7  and  C_10 
REMARK    4  A    between atoms: C_8  and  C_9 
REMARK    5  A    between atoms: C_11  and  C_12 
ROOT
HETATM    1  O   UNK     0      -6.938 -15.519   0.812  0.00  0.00    -0.189 OA
HETATM    2  C   UNK     0      -6.669 -14.374  -1.476  0.00  0.00     0.029 C 
HETATM    3  C   UNK     0      -6.992 -15.192  -0.477  0.00  0.00     0.150 C 
ENDROOT
BRANCH   3   4
HETATM    4  C   UNK     0      -7.734 -16.269  -0.719  0.00  0.00     0.128 C 
HETATM    5  N   UNK     0      -7.200 -16.875   0.338  0.00  0.00    -0.146 N 
HETATM    6  C   UNK     0      -8.570 -16.291  -1.751  0.00  0.00     0.025 C 
ENDBRANCH   3   4
BRANCH   2   7
HETATM    7  C   UNK     0      -5.927 -13.297  -1.234  0.00  0.00     0.002 C 
HETATM    8  C   UNK     0      -5.374 -12.622  -2.236  0.00  0.00     0.000 C 
BRANCH   8   9
HETATM    9  C   UNK     0      -4.631 -11.546  -1.993  0.00  0.00     0.000 C 
HETATM   10  C   UNK     0      -3.395 -11.690  -1.520  0.00  0.00     0.000 C 
BRANCH  10  11
HETATM   11  C   UNK     0      -2.651 -10.615  -1.277  0.00  0.00     0.000 C 
HETATM   12  C   UNK     0      -1.422 -10.743  -0.791  0.00  0.00     0.000 C 
BRANCH  12  13
HETATM   13  C   UNK     0      -0.679  -9.667  -0.547  0.00  0.00     0.000 C 
HETATM   14  C   UNK     0      -1.211  -8.627   0.092  0.00  0.00     0.000 C 
ENDBRANCH  12  13
ENDBRANCH  10  11
ENDBRANCH   8   9
ENDBRANCH   2   7
TORSDOF 5
ENDMDL
MODEL 4
REMARK VINA RESULT:      -5.4      3.601      5.174
REMARK  5 active torsions:
REMARK  status: ('A' for Active; 'I' for Inactive)
REMARK    1  A    between atoms: C_3  and  C_5 
REMARK    2  A    between atoms: C_4  and  C_6 
REMARK    3  A    between atoms: C_7  and  C_10 
REMARK    4  A    between atoms: C_8  and  C_9 
REMARK    5  A    between atoms: C_11  and  C_12 
ROOT
HETATM    1  O   UNK     0       4.128 -13.023  -4.055  0.00  0.00    -0.189 OA
HETATM    2  C   UNK     0       4.777 -11.622  -1.997  0.00  0.00     0.029 C 
HETATM    3  C   UNK     0       4.773 -12.437  -3.050  0.00  0.00     0.150 C 
ENDROOT
BRANCH   3   4
HETATM    4  C   UNK     0       5.896 -13.053  -3.411  0.00  0.00     0.128 C 
HETATM    5  N   UNK     0       6.108 -12.122  -4.338  0.00  0.00    -0.146 N 
HETATM    6  C   UNK     0       6.280 -14.165  -2.796  0.00  0.00     0.025 C 
ENDBRANCH   3   4
BRANCH   2   7
HETATM    7  C   UNK     0       3.654 -11.006  -1.636  0.00  0.00     0.002 C 
HETATM    8  C   UNK     0       3.153 -11.182  -0.418  0.00  0.00     0.000 C 
BRANCH   8   9
HETATM    9  C   UNK     0       2.030 -10.566  -0.058  0.00  0.00     0.000 C 
HETATM   10  C   UNK     0       0.856 -11.156  -0.273  0.00  0.00     0.000 C 
BRANCH  10  11
HETATM   11  C   UNK     0      -0.267 -10.541   0.087  0.00  0.00     0.000 C 
HETATM   12  C   UNK     0      -0.427  -9.243  -0.145  0.00  0.00     0.000 C 
BRANCH  12  13
HETATM   13  C   UNK     0      -1.550  -8.627   0.215  0.00  0.00     0.000 C 
HETATM   14  C   UNK     0      -1.589  -7.936   1.352  0.00  0.00     0.000 C 
ENDBRANCH  12  13
ENDBRANCH  10  11
ENDBRANCH   8   9
ENDBRANCH   2   7
TORSDOF 5
ENDMDL
MODEL 5
REMARK VINA RESULT:      -5.3      5.802      9.851
REMARK  5 active torsions:
REMARK  status: ('A' for Active; 'I' for Inactive)
REMARK    1  A    between atoms: C_3  and  C_5 
REMARK    2  A    between atoms: C_4  and  C_6 
REMARK    3  A    between atoms: C_7  and  C_10 
REMARK    4  A    between atoms: C_8  and  C_9 
REMARK    5  A    between atoms: C_11  and  C_12 
ROOT
HETATM    1  O   UNK     0       4.142 -11.021  -1.354  0.00  0.00    -0.189 OA
HETATM    2  C   UNK     0       4.912  -9.041   0.096  0.00  0.00     0.029 C 
HETATM    3  C   UNK     0       4.328 -10.141  -0.374  0.00  0.00     0.150 C 
ENDROOT
BRANCH   3   4
HETATM    4  C   UNK     0       3.477 -10.816   0.393  0.00  0.00     0.128 C 
HETATM    5  N   UNK     0       4.418 -11.722   0.641  0.00  0.00    -0.146 N 
HETATM    6  C   UNK     0       2.235 -10.377   0.568  0.00  0.00     0.025 C 
ENDBRANCH   3   4
BRANCH   2   7
HETATM    7  C   UNK     0       5.763  -8.366  -0.671  0.00  0.00     0.002 C 
HETATM    8  C   UNK     0       5.875  -7.047  -0.553  0.00  0.00     0.000 C 
BRANCH   8   9
HETATM    9  C   UNK     0       6.727  -6.373  -1.321  0.00  0.00     0.000 C 
HETATM   10  C   UNK     0       6.802  -5.048  -1.217  0.00  0.00     0.000 C 
BRANCH  10  11
HETATM   11  C   UNK     0       7.653  -4.373  -1.985  0.00  0.00     0.000 C 
HETATM   12  C   UNK     0       8.130  -4.917  -3.099  0.00  0.00     0.000 C 
BRANCH  12  13
HETATM   13  C   UNK     0       8.981  -4.242  -3.866  0.00  0.00     0.000 C 
HETATM   14  C   UNK     0       9.589  -3.159  -3.385  0.00  0.00     0.000 C 
ENDBRANCH  12  13
ENDBRANCH  10  11
ENDBRANCH   8   9
ENDBRANCH   2   7
TORSDOF 5
ENDMDL
