MODEL 1
REMARK VINA RESULT:      -5.1      0.000      0.000
REMARK  5 active torsions:
REMARK  status: ('A' for Active; 'I' for Inactive)
REMARK    1  A    between atoms: C_3  and  C_5 
REMARK    2  A    between atoms: C_4  and  C_6 
REMARK    3  A    between atoms: C_7  and  C_10 
REMARK    4  A    between atoms: C_8  and  C_9 
REMARK    5  A    between atoms: C_11  and  C_12 
ROOT
HETATM    1  O   UNK     0      35.995  -3.457  28.735  0.00  0.00    -0.189 OA
HETATM    2  C   UNK     0      34.156  -5.216  28.357  0.00  0.00     0.029 C 
HETATM    3  C   UNK     0      35.284  -4.508  28.337  0.00  0.00     0.150 C 
ENDROOT
BRANCH   3   4
HETATM    4  C   UNK     0      36.310  -4.922  27.599  0.00  0.00     0.128 C 
HETATM    5  N   UNK     0      35.535  -5.849  27.043  0.00  0.00    -0.146 N 
HETATM    6  C   UNK     0      37.496  -4.333  27.704  0.00  0.00     0.025 C 
ENDBRANCH   3   4
BRANCH   2   7
HETATM    7  C   UNK     0      33.131  -4.801  29.096  0.00  0.00     0.002 C 
HETATM    8  C   UNK     0      32.342  -3.824  28.663  0.00  0.00     0.000 C 
BRANCH   8   9
HETATM    9  C   UNK     0      31.316  -3.410  29.402  0.00  0.00     0.000 C 
HETATM   10  C   UNK     0      30.784  -2.210  29.178  0.00  0.00     0.000 C 
BRANCH  10  11
HETATM   11  C   UNK     0      29.759  -1.795  29.917  0.00  0.00     0.000 C 
HETATM   12  C   UNK     0      29.769  -1.960  31.235  0.00  0.00     0.000 C 
BRANCH  12  13
HETATM   13  C   UNK     0      28.744  -1.545  31.974  0.00  0.00     0.000 C 
HETATM   14  C   UNK     0      28.407  -2.217  33.073  0.00  0.00     0.000 C 
ENDBRANCH  12  13
ENDBRANCH  10  11
ENDBRANCH   8   9
ENDBRANCH   2   7
TORSDOF 5
ENDMDL
MODEL 2
REMARK VINA RESULT:      -5.0      2.613      7.101
REMARK  5 active torsions:
REMARK  status: ('A' for Active; 'I' for Inactive)
REMARK    1  A    between atoms: C_3  and  C_5 
REMARK    2  A    between atoms: C_4  and  C_6 
REMARK    3  A    between atoms: C_7  and  C_10 
REMARK    4  A    between atoms: C_8  and  C_9 
REMARK    5  A    between atoms: C_11  and  C_12 
ROOT
HETATM    1  O   UNK     0      31.683  -1.678  30.980  0.00  0.00    -0.189 OA
HETATM    2  C   UNK     0      31.578  -3.335  29.015  0.00  0.00     0.029 C 
HETATM    3  C   UNK     0      31.290  -2.481  29.995  0.00  0.00     0.150 C 
ENDROOT
BRANCH   3   4
HETATM    4  C   UNK     0      30.022  -2.166  30.244  0.00  0.00     0.128 C 
HETATM    5  N   UNK     0      29.990  -1.422  29.143  0.00  0.00    -0.146 N 
HETATM    6  C   UNK     0      29.408  -2.648  31.319  0.00  0.00     0.025 C 
ENDBRANCH   3   4
BRANCH   2   7
HETATM    7  C   UNK     0      32.847  -3.649  28.766  0.00  0.00     0.002 C 
HETATM    8  C   UNK     0      33.172  -4.879  28.384  0.00  0.00     0.000 C 
BRANCH   8   9
HETATM    9  C   UNK     0      34.440  -5.193  28.135  0.00  0.00     0.000 C 
HETATM   10  C   UNK     0      35.398  -4.294  28.357  0.00  0.00     0.000 C 
BRANCH  10  11
HETATM   11  C   UNK     0      36.666  -4.606  28.109  0.00  0.00     0.000 C 
HETATM   12  C   UNK     0      37.641  -3.756  28.413  0.00  0.00     0.000 C 
BRANCH  12  13
HETATM   13  C   UNK     0      38.909  -4.068  28.164  0.00  0.00     0.000 C 
HETATM   14  C   UNK     0      39.850  -3.129  28.248  0.00  0.00     0.000 C 
ENDBRANCH  12  13
ENDBRANCH  10  11
ENDBRANCH   8   9
ENDBRANCH   2   7
TORSDOF 5
ENDMDL
MODEL 3
REMARK VINA RESULT:      -5.0      2.423      3.518
REMARK  5 active torsions:
REMARK  status: ('A' for Active; 'I' for Inactive)
REMARK    1  A    between atoms: C_3  and  C_5 
REMARK    2  A    between atoms: C_4  and  C_6 
REMARK    3  A    between atoms: C_7  and  C_10 
REMARK    4  A    between atoms: C_8  and  C_9 
REMARK    5  A    between atoms: C_11  and  C_12 
ROOT
HETATM    1  O   UNK     0      38.349  -3.485  30.509  0.00  0.00    -0.189 OA
HETATM    2  C   UNK     0      37.286  -4.278  28.305  0.00  0.00     0.029 C 
HETATM    3  C   UNK     0      38.128  -3.953  29.284  0.00  0.00     0.150 C 
ENDROOT
BRANCH   3   4
HETATM    4  C   UNK     0      39.436  -4.116  29.110  0.00  0.00     0.128 C 
HETATM    5  N   UNK     0      39.337  -3.602  27.887  0.00  0.00    -0.146 N 
HETATM    6  C   UNK     0      40.183  -4.640  30.075  0.00  0.00     0.025 C 
ENDBRANCH   3   4
BRANCH   2   7
HETATM    7  C   UNK     0      35.977  -4.116  28.479  0.00  0.00     0.002 C 
HETATM    8  C   UNK     0      35.130  -5.087  28.158  0.00  0.00     0.000 C 
BRANCH   8   9
HETATM    9  C   UNK     0      33.822  -4.923  28.332  0.00  0.00     0.000 C 
HETATM   10  C   UNK     0      33.379  -3.945  29.120  0.00  0.00     0.000 C 
BRANCH  10  11
HETATM   11  C   UNK     0      32.070  -3.781  29.295  0.00  0.00     0.000 C 
HETATM   12  C   UNK     0      31.374  -3.005  28.472  0.00  0.00     0.000 C 
BRANCH  12  13
HETATM   13  C   UNK     0      30.066  -2.840  28.647  0.00  0.00     0.000 C 
HETATM   14  C   UNK     0      29.471  -1.741  28.187  0.00  0.00     0.000 C 
ENDBRANCH  12  13
ENDBRANCH  10  11
ENDBRANCH   8   9
ENDBRANCH   2   7
TORSDOF 5
ENDMDL
MODEL 4
REMARK VINA RESULT:      -4.8     23.775     24.781
REMARK  5 active torsions:
REMARK  status: ('A' for Active; 'I' for Inactive)
REMARK    1  A    between atoms: C_3  and  C_5 
REMARK    2  A    between atoms: C_4  and  C_6 
REMARK    3  A    between atoms: C_7  and  C_10 
REMARK    4  A    between atoms: C_8  and  C_9 
REMARK    5  A    between atoms: C_11  and  C_12 
ROOT
HETATM    1  O   UNK     0      33.553   4.334   3.580  0.00  0.00    -0.189 OA
HETATM    2  C   UNK     0      32.763   5.193   5.873  0.00  0.00     0.029 C 
HETATM    3  C   UNK     0      33.321   5.058   4.671  0.00  0.00     0.150 C 
ENDROOT
BRANCH   3   4
HETATM    4  C   UNK     0      34.038   6.056   4.161  0.00  0.00     0.128 C 
HETATM    5  N   UNK     0      33.662   5.700   2.936  0.00  0.00    -0.146 N 
HETATM    6  C   UNK     0      34.724   6.867   4.958  0.00  0.00     0.025 C 
ENDBRANCH   3   4
BRANCH   2   7
HETATM    7  C   UNK     0      32.046   4.196   6.382  0.00  0.00     0.002 C 
HETATM    8  C   UNK     0      32.648   3.136   6.911  0.00  0.00     0.000 C 
BRANCH   8   9
HETATM    9  C   UNK     0      31.930   2.139   7.421  0.00  0.00     0.000 C 
HETATM   10  C   UNK     0      31.958   0.942   6.839  0.00  0.00     0.000 C 
BRANCH  10  11
HETATM   11  C   UNK     0      31.240  -0.056   7.348  0.00  0.00     0.000 C 
HETATM   12  C   UNK     0      30.334  -0.680   6.604  0.00  0.00     0.000 C 
BRANCH  12  13
HETATM   13  C   UNK     0      29.616  -1.678   7.113  0.00  0.00     0.000 C 
HETATM   14  C   UNK     0      28.374  -1.886   6.680  0.00  0.00     0.000 C 
ENDBRANCH  12  13
ENDBRANCH  10  11
ENDBRANCH   8   9
ENDBRANCH   2   7
TORSDOF 5
ENDMDL
MODEL 5
REMARK VINA RESULT:      -4.8     36.820     38.059
REMARK  5 active torsions:
REMARK  status: ('A' for Active; 'I' for Inactive)
REMARK    1  A    between atoms: C_3  and  C_5 
REMARK    2  A    between atoms: C_4  and  C_6 
REMARK    3  A    between atoms: C_7  and  C_10 
REMARK    4  A    between atoms: C_8  and  C_9 
REMARK    5  A    between atoms: C_11  and  C_12 
ROOT
HETATM    1  O   UNK     0       3.153  -5.579   1.219  0.00  0.00    -0.189 OA
HETATM    2  C   UNK     0       5.723  -5.648   1.128  0.00  0.00     0.029 C 
HETATM    3  C   UNK     0       4.426  -5.574   0.834  0.00  0.00     0.150 C 
ENDROOT
BRANCH   3   4
HETATM    4  C   UNK     0       4.044  -5.415  -0.430  0.00  0.00     0.128 C 
HETATM    5  N   UNK     0       4.771  -4.305  -0.510  0.00  0.00    -0.146 N 
HETATM    6  C   UNK     0       3.224  -6.292  -0.999  0.00  0.00     0.025 C 
ENDBRANCH   3   4
BRANCH   2   7
HETATM    7  C   UNK     0       6.105  -5.807   2.392  0.00  0.00     0.002 C 
HETATM    8  C   UNK     0       6.050  -4.789   3.244  0.00  0.00     0.000 C 
BRANCH   8   9
HETATM    9  C   UNK     0       6.432  -4.948   4.508  0.00  0.00     0.000 C 
HETATM   10  C   UNK     0       6.446  -6.167   5.044  0.00  0.00     0.000 C 
BRANCH  10  11
HETATM   11  C   UNK     0       6.828  -6.328   6.308  0.00  0.00     0.000 C 
HETATM   12  C   UNK     0       6.388  -7.361   7.017  0.00  0.00     0.000 C 
BRANCH  12  13
HETATM   13  C   UNK     0       6.771  -7.522   8.281  0.00  0.00     0.000 C 
HETATM   14  C   UNK     0       7.342  -8.664   8.658  0.00  0.00     0.000 C 
ENDBRANCH  12  13
ENDBRANCH  10  11
ENDBRANCH   8   9
ENDBRANCH   2   7
TORSDOF 5
ENDMDL
