MODEL 1
REMARK VINA RESULT:      -5.1      0.000      0.000
REMARK  5 active torsions:
REMARK  status: ('A' for Active; 'I' for Inactive)
REMARK    1  A    between atoms: C_3  and  C_5 
REMARK    2  A    between atoms: C_4  and  C_6 
REMARK    3  A    between atoms: C_7  and  C_10 
REMARK    4  A    between atoms: C_8  and  C_9 
REMARK    5  A    between atoms: C_11  and  C_12 
ROOT
HETATM    1  O   UNK     0      31.347  -1.986  30.607  0.00  0.00    -0.189 OA
HETATM    2  C   UNK     0      31.745  -3.450  28.529  0.00  0.00     0.029 C 
HETATM    3  C   UNK     0      31.216  -2.690  29.485  0.00  0.00     0.150 C 
ENDROOT
BRANCH   3   4
HETATM    4  C   UNK     0      29.921  -2.390  29.449  0.00  0.00     0.128 C 
HETATM    5  N   UNK     0      29.759  -2.944  30.647  0.00  0.00    -0.146 N 
HETATM    6  C   UNK     0      29.406  -1.761  28.398  0.00  0.00     0.025 C 
ENDBRANCH   3   4
BRANCH   2   7
HETATM    7  C   UNK     0      33.041  -3.751  28.566  0.00  0.00     0.002 C 
HETATM    8  C   UNK     0      33.464  -4.950  28.184  0.00  0.00     0.000 C 
BRANCH   8   9
HETATM    9  C   UNK     0      34.760  -5.250  28.221  0.00  0.00     0.000 C 
HETATM   10  C   UNK     0      35.657  -4.277  28.367  0.00  0.00     0.000 C 
BRANCH  10  11
HETATM   11  C   UNK     0      36.953  -4.575  28.405  0.00  0.00     0.000 C 
HETATM   12  C   UNK     0      37.847  -3.758  27.859  0.00  0.00     0.000 C 
BRANCH  12  13
HETATM   13  C   UNK     0      39.143  -4.056  27.897  0.00  0.00     0.000 C 
HETATM   14  C   UNK     0      39.846  -3.807  28.999  0.00  0.00     0.000 C 
ENDBRANCH  12  13
ENDBRANCH  10  11
ENDBRANCH   8   9
ENDBRANCH   2   7
TORSDOF 5
ENDMDL
MODEL 2
REMARK VINA RESULT:      -4.9      3.799      7.622
REMARK  5 active torsions:
REMARK  status: ('A' for Active; 'I' for Inactive)
REMARK    1  A    between atoms: C_3  and  C_5 
REMARK    2  A    between atoms: C_4  and  C_6 
REMARK    3  A    between atoms: C_7  and  C_10 
REMARK    4  A    between atoms: C_8  and  C_9 
REMARK    5  A    between atoms: C_11  and  C_12 
ROOT
HETATM    1  O   UNK     0      38.946  -2.194  26.424  0.00  0.00    -0.189 OA
HETATM    2  C   UNK     0      37.881  -3.921  28.006  0.00  0.00     0.029 C 
HETATM    3  C   UNK     0      38.676  -3.269  27.159  0.00  0.00     0.150 C 
ENDROOT
BRANCH   3   4
HETATM    4  C   UNK     0      39.803  -3.838  26.743  0.00  0.00     0.128 C 
HETATM    5  N   UNK     0      39.098  -4.756  26.088  0.00  0.00    -0.146 N 
HETATM    6  C   UNK     0      40.981  -3.334  27.096  0.00  0.00     0.025 C 
ENDBRANCH   3   4
BRANCH   2   7
HETATM    7  C   UNK     0      36.753  -3.353  28.423  0.00  0.00     0.002 C 
HETATM    8  C   UNK     0      35.682  -4.095  28.683  0.00  0.00     0.000 C 
BRANCH   8   9
HETATM    9  C   UNK     0      34.555  -3.525  29.100  0.00  0.00     0.000 C 
HETATM   10  C   UNK     0      33.382  -4.004  28.688  0.00  0.00     0.000 C 
BRANCH  10  11
HETATM   11  C   UNK     0      32.254  -3.435  29.104  0.00  0.00     0.000 C 
HETATM   12  C   UNK     0      31.245  -3.248  28.261  0.00  0.00     0.000 C 
BRANCH  12  13
HETATM   13  C   UNK     0      30.117  -2.679  28.678  0.00  0.00     0.000 C 
HETATM   14  C   UNK     0      29.929  -2.457  29.977  0.00  0.00     0.000 C 
ENDBRANCH  12  13
ENDBRANCH  10  11
ENDBRANCH   8   9
ENDBRANCH   2   7
TORSDOF 5
ENDMDL
MODEL 3
REMARK VINA RESULT:      -4.7     23.843     24.692
REMARK  5 active torsions:
REMARK  status: ('A' for Active; 'I' for Inactive)
REMARK    1  A    between atoms: C_3  and  C_5 
REMARK    2  A    between atoms: C_4  and  C_6 
REMARK    3  A    between atoms: C_7  and  C_10 
REMARK    4  A    between atoms: C_8  and  C_9 
REMARK    5  A    between atoms: C_11  and  C_12 
ROOT
HETATM    1  O   UNK     0      33.294   4.471   3.479  0.00  0.00    -0.189 OA
HETATM    2  C   UNK     0      34.182   4.207   5.879  0.00  0.00     0.029 C 
HETATM    3  C   UNK     0      33.926   4.622   4.640  0.00  0.00     0.150 C 
ENDROOT
BRANCH   3   4
HETATM    4  C   UNK     0      34.515   5.721   4.177  0.00  0.00     0.128 C 
HETATM    5  N   UNK     0      34.245   5.340   2.931  0.00  0.00    -0.146 N 
HETATM    6  C   UNK     0      35.045   6.604   5.015  0.00  0.00     0.025 C 
ENDBRANCH   3   4
BRANCH   2   7
HETATM    7  C   UNK     0      33.593   3.108   6.342  0.00  0.00     0.002 C 
HETATM    8  C   UNK     0      32.422   3.184   6.964  0.00  0.00     0.000 C 
BRANCH   8   9
HETATM    9  C   UNK     0      31.834   2.085   7.427  0.00  0.00     0.000 C 
HETATM   10  C   UNK     0      31.788   0.992   6.668  0.00  0.00     0.000 C 
BRANCH  10  11
HETATM   11  C   UNK     0      31.200  -0.108   7.130  0.00  0.00     0.000 C 
HETATM   12  C   UNK     0      30.144  -0.619   6.506  0.00  0.00     0.000 C 
BRANCH  12  13
HETATM   13  C   UNK     0      29.556  -1.719   6.968  0.00  0.00     0.000 C 
HETATM   14  C   UNK     0      28.268  -1.937   6.709  0.00  0.00     0.000 C 
ENDBRANCH  12  13
ENDBRANCH  10  11
ENDBRANCH   8   9
ENDBRANCH   2   7
TORSDOF 5
ENDMDL
MODEL 4
REMARK VINA RESULT:      -4.7     23.702     24.542
REMARK  5 active torsions:
REMARK  status: ('A' for Active; 'I' for Inactive)
REMARK    1  A    between atoms: C_3  and  C_5 
REMARK    2  A    between atoms: C_4  and  C_6 
REMARK    3  A    between atoms: C_7  and  C_10 
REMARK    4  A    between atoms: C_8  and  C_9 
REMARK    5  A    between atoms: C_11  and  C_12 
ROOT
HETATM    1  O   UNK     0      30.811   6.515   4.330  0.00  0.00    -0.189 OA
HETATM    2  C   UNK     0      32.236   5.526   6.230  0.00  0.00     0.029 C 
HETATM    3  C   UNK     0      31.708   6.308   5.290  0.00  0.00     0.150 C 
ENDROOT
BRANCH   3   4
HETATM    4  C   UNK     0      32.214   7.520   5.079  0.00  0.00     0.128 C 
HETATM    5  N   UNK     0      31.461   8.006   6.061  0.00  0.00    -0.146 N 
HETATM    6  C   UNK     0      33.119   7.713   4.126  0.00  0.00     0.025 C 
ENDBRANCH   3   4
BRANCH   2   7
HETATM    7  C   UNK     0      31.730   4.315   6.442  0.00  0.00     0.002 C 
HETATM    8  C   UNK     0      32.500   3.335   6.901  0.00  0.00     0.000 C 
BRANCH   8   9
HETATM    9  C   UNK     0      31.993   2.123   7.113  0.00  0.00     0.000 C 
HETATM   10  C   UNK     0      32.170   1.167   6.203  0.00  0.00     0.000 C 
BRANCH  10  11
HETATM   11  C   UNK     0      31.663  -0.045   6.414  0.00  0.00     0.000 C 
HETATM   12  C   UNK     0      30.446  -0.185   6.926  0.00  0.00     0.000 C 
BRANCH  12  13
HETATM   13  C   UNK     0      29.939  -1.397   7.136  0.00  0.00     0.000 C 
HETATM   14  C   UNK     0      28.737  -1.703   6.651  0.00  0.00     0.000 C 
ENDBRANCH  12  13
ENDBRANCH  10  11
ENDBRANCH   8   9
ENDBRANCH   2   7
TORSDOF 5
ENDMDL
MODEL 5
REMARK VINA RESULT:      -4.7     34.957     38.012
REMARK  5 active torsions:
REMARK  status: ('A' for Active; 'I' for Inactive)
REMARK    1  A    between atoms: C_3  and  C_5 
REMARK    2  A    between atoms: C_4  and  C_6 
REMARK    3  A    between atoms: C_7  and  C_10 
REMARK    4  A    between atoms: C_8  and  C_9 
REMARK    5  A    between atoms: C_11  and  C_12 
ROOT
HETATM    1  O   UNK     0       3.531  -6.520   1.490  0.00  0.00    -0.189 OA
HETATM    2  C   UNK     0       5.892  -5.542   1.781  0.00  0.00     0.029 C 
HETATM    3  C   UNK     0       4.706  -5.925   1.311  0.00  0.00     0.150 C 
ENDROOT
BRANCH   3   4
HETATM    4  C   UNK     0       4.377  -5.653   0.052  0.00  0.00     0.128 C 
HETATM    5  N   UNK     0       3.807  -6.849  -0.058  0.00  0.00    -0.146 N 
HETATM    6  C   UNK     0       4.702  -4.484  -0.491  0.00  0.00     0.025 C 
ENDBRANCH   3   4
BRANCH   2   7
HETATM    7  C   UNK     0       6.222  -5.814   3.041  0.00  0.00     0.002 C 
HETATM    8  C   UNK     0       6.314  -4.839   3.938  0.00  0.00     0.000 C 
BRANCH   8   9
HETATM    9  C   UNK     0       6.643  -5.112   5.197  0.00  0.00     0.000 C 
HETATM   10  C   UNK     0       6.660  -6.376   5.615  0.00  0.00     0.000 C 
BRANCH  10  11
HETATM   11  C   UNK     0       6.989  -6.650   6.874  0.00  0.00     0.000 C 
HETATM   12  C   UNK     0       6.294  -7.541   7.573  0.00  0.00     0.000 C 
BRANCH  12  13
HETATM   13  C   UNK     0       6.623  -7.815   8.832  0.00  0.00     0.000 C 
HETATM   14  C   UNK     0       7.397  -8.865   9.098  0.00  0.00     0.000 C 
ENDBRANCH  12  13
ENDBRANCH  10  11
ENDBRANCH   8   9
ENDBRANCH   2   7
TORSDOF 5
ENDMDL
