MODEL 1
REMARK VINA RESULT:      -5.2      0.000      0.000
REMARK  5 active torsions:
REMARK  status: ('A' for Active; 'I' for Inactive)
REMARK    1  A    between atoms: C_3  and  C_5 
REMARK    2  A    between atoms: C_4  and  C_6 
REMARK    3  A    between atoms: C_7  and  C_10 
REMARK    4  A    between atoms: C_8  and  C_9 
REMARK    5  A    between atoms: C_11  and  C_12 
ROOT
HETATM    1  O   UNK     0      31.196  -1.959  30.642  0.00  0.00    -0.189 OA
HETATM    2  C   UNK     0      31.676  -3.347  28.530  0.00  0.00     0.029 C 
HETATM    3  C   UNK     0      31.111  -2.615  29.488  0.00  0.00     0.150 C 
ENDROOT
BRANCH   3   4
HETATM    4  C   UNK     0      29.826  -2.287  29.396  0.00  0.00     0.128 C 
HETATM    5  N   UNK     0      29.627  -2.717  30.639  0.00  0.00    -0.146 N 
HETATM    6  C   UNK     0      29.346  -1.751  28.279  0.00  0.00     0.025 C 
ENDBRANCH   3   4
BRANCH   2   7
HETATM    7  C   UNK     0      32.962  -3.675  28.622  0.00  0.00     0.002 C 
HETATM    8  C   UNK     0      33.380  -4.872  28.226  0.00  0.00     0.000 C 
BRANCH   8   9
HETATM    9  C   UNK     0      34.666  -5.200  28.318  0.00  0.00     0.000 C 
HETATM   10  C   UNK     0      35.575  -4.250  28.533  0.00  0.00     0.000 C 
BRANCH  10  11
HETATM   11  C   UNK     0      36.861  -4.576  28.626  0.00  0.00     0.000 C 
HETATM   12  C   UNK     0      37.801  -3.646  28.498  0.00  0.00     0.000 C 
BRANCH  12  13
HETATM   13  C   UNK     0      39.087  -3.972  28.591  0.00  0.00     0.000 C 
HETATM   14  C   UNK     0      40.021  -3.046  28.377  0.00  0.00     0.000 C 
ENDBRANCH  12  13
ENDBRANCH  10  11
ENDBRANCH   8   9
ENDBRANCH   2   7
TORSDOF 5
ENDMDL
MODEL 2
REMARK VINA RESULT:      -5.1     23.557     24.539
REMARK  5 active torsions:
REMARK  status: ('A' for Active; 'I' for Inactive)
REMARK    1  A    between atoms: C_3  and  C_5 
REMARK    2  A    between atoms: C_4  and  C_6 
REMARK    3  A    between atoms: C_7  and  C_10 
REMARK    4  A    between atoms: C_8  and  C_9 
REMARK    5  A    between atoms: C_11  and  C_12 
ROOT
HETATM    1  O   UNK     0      32.179   6.333   4.032  0.00  0.00    -0.189 OA
HETATM    2  C   UNK     0      31.874   5.814   6.533  0.00  0.00     0.029 C 
HETATM    3  C   UNK     0      32.065   6.405   5.355  0.00  0.00     0.150 C 
ENDROOT
BRANCH   3   4
HETATM    4  C   UNK     0      32.251   7.721   5.299  0.00  0.00     0.128 C 
HETATM    5  N   UNK     0      33.307   7.538   4.512  0.00  0.00    -0.146 N 
HETATM    6  C   UNK     0      31.435   8.543   5.949  0.00  0.00     0.025 C 
ENDBRANCH   3   4
BRANCH   2   7
HETATM    7  C   UNK     0      31.689   4.498   6.589  0.00  0.00     0.002 C 
HETATM    8  C   UNK     0      32.703   3.667   6.380  0.00  0.00     0.000 C 
BRANCH   8   9
HETATM    9  C   UNK     0      32.517   2.351   6.436  0.00  0.00     0.000 C 
HETATM   10  C   UNK     0      31.728   1.836   7.377  0.00  0.00     0.000 C 
BRANCH  10  11
HETATM   11  C   UNK     0      31.541   0.520   7.434  0.00  0.00     0.000 C 
HETATM   12  C   UNK     0      30.445  -0.026   6.919  0.00  0.00     0.000 C 
BRANCH  12  13
HETATM   13  C   UNK     0      30.258  -1.342   6.975  0.00  0.00     0.000 C 
HETATM   14  C   UNK     0      29.051  -1.848   6.733  0.00  0.00     0.000 C 
ENDBRANCH  12  13
ENDBRANCH  10  11
ENDBRANCH   8   9
ENDBRANCH   2   7
TORSDOF 5
ENDMDL
MODEL 3
REMARK VINA RESULT:      -5.0      3.812      7.548
REMARK  5 active torsions:
REMARK  status: ('A' for Active; 'I' for Inactive)
REMARK    1  A    between atoms: C_3  and  C_5 
REMARK    2  A    between atoms: C_4  and  C_6 
REMARK    3  A    between atoms: C_7  and  C_10 
REMARK    4  A    between atoms: C_8  and  C_9 
REMARK    5  A    between atoms: C_11  and  C_12 
ROOT
HETATM    1  O   UNK     0      38.835  -2.158  26.824  0.00  0.00    -0.189 OA
HETATM    2  C   UNK     0      37.582  -3.549  28.588  0.00  0.00     0.029 C 
HETATM    3  C   UNK     0      38.504  -2.991  27.806  0.00  0.00     0.150 C 
ENDROOT
BRANCH   3   4
HETATM    4  C   UNK     0      39.783  -3.328  27.950  0.00  0.00     0.128 C 
HETATM    5  N   UNK     0      39.831  -3.694  26.672  0.00  0.00    -0.146 N 
HETATM    6  C   UNK     0      40.388  -3.183  29.124  0.00  0.00     0.025 C 
ENDBRANCH   3   4
BRANCH   2   7
HETATM    7  C   UNK     0      36.304  -3.213  28.444  0.00  0.00     0.002 C 
HETATM    8  C   UNK     0      35.394  -3.635  29.316  0.00  0.00     0.000 C 
BRANCH   8   9
HETATM    9  C   UNK     0      34.116  -3.298  29.171  0.00  0.00     0.000 C 
HETATM   10  C   UNK     0      33.291  -4.108  28.509  0.00  0.00     0.000 C 
BRANCH  10  11
HETATM   11  C   UNK     0      32.013  -3.772  28.364  0.00  0.00     0.000 C 
HETATM   12  C   UNK     0      31.364  -3.153  29.344  0.00  0.00     0.000 C 
BRANCH  12  13
HETATM   13  C   UNK     0      30.085  -2.817  29.198  0.00  0.00     0.000 C 
HETATM   14  C   UNK     0      29.745  -1.883  28.313  0.00  0.00     0.000 C 
ENDBRANCH  12  13
ENDBRANCH  10  11
ENDBRANCH   8   9
ENDBRANCH   2   7
TORSDOF 5
ENDMDL
MODEL 4
REMARK VINA RESULT:      -4.8      2.971      7.131
REMARK  5 active torsions:
REMARK  status: ('A' for Active; 'I' for Inactive)
REMARK    1  A    between atoms: C_3  and  C_5 
REMARK    2  A    between atoms: C_4  and  C_6 
REMARK    3  A    between atoms: C_7  and  C_10 
REMARK    4  A    between atoms: C_8  and  C_9 
REMARK    5  A    between atoms: C_11  and  C_12 
ROOT
HETATM    1  O   UNK     0      35.924  -4.232  29.705  0.00  0.00    -0.189 OA
HETATM    2  C   UNK     0      33.938  -4.585  28.108  0.00  0.00     0.029 C 
HETATM    3  C   UNK     0      35.145  -4.529  28.669  0.00  0.00     0.150 C 
ENDROOT
BRANCH   3   4
HETATM    4  C   UNK     0      36.210  -4.936  27.985  0.00  0.00     0.128 C 
HETATM    5  N   UNK     0      35.454  -5.812  27.329  0.00  0.00    -0.146 N 
HETATM    6  C   UNK     0      37.400  -4.387  28.203  0.00  0.00     0.025 C 
ENDBRANCH   3   4
BRANCH   2   7
HETATM    7  C   UNK     0      32.873  -4.178  28.793  0.00  0.00     0.002 C 
HETATM    8  C   UNK     0      31.858  -3.590  28.170  0.00  0.00     0.000 C 
BRANCH   8   9
HETATM    9  C   UNK     0      30.793  -3.183  28.856  0.00  0.00     0.000 C 
HETATM   10  C   UNK     0      30.767  -3.326  30.180  0.00  0.00     0.000 C 
BRANCH  10  11
HETATM   11  C   UNK     0      29.702  -2.920  30.866  0.00  0.00     0.000 C 
HETATM   12  C   UNK     0      29.780  -1.860  31.663  0.00  0.00     0.000 C 
BRANCH  12  13
HETATM   13  C   UNK     0      28.716  -1.454  32.349  0.00  0.00     0.000 C 
HETATM   14  C   UNK     0      28.146  -2.273  33.230  0.00  0.00     0.000 C 
ENDBRANCH  12  13
ENDBRANCH  10  11
ENDBRANCH   8   9
ENDBRANCH   2   7
TORSDOF 5
ENDMDL
MODEL 5
REMARK VINA RESULT:      -4.6     23.919     24.924
REMARK  5 active torsions:
REMARK  status: ('A' for Active; 'I' for Inactive)
REMARK    1  A    between atoms: C_3  and  C_5 
REMARK    2  A    between atoms: C_4  and  C_6 
REMARK    3  A    between atoms: C_7  and  C_10 
REMARK    4  A    between atoms: C_8  and  C_9 
REMARK    5  A    between atoms: C_11  and  C_12 
ROOT
HETATM    1  O   UNK     0      30.170   7.637   4.274  0.00  0.00    -0.189 OA
HETATM    2  C   UNK     0      31.663   7.166   6.315  0.00  0.00     0.029 C 
HETATM    3  C   UNK     0      31.080   7.697   5.242  0.00  0.00     0.150 C 
ENDROOT
BRANCH   3   4
HETATM    4  C   UNK     0      31.499   8.870   4.776  0.00  0.00     0.128 C 
HETATM    5  N   UNK     0      31.842   8.292   3.628  0.00  0.00    -0.146 N 
HETATM    6  C   UNK     0      31.415   9.961   5.528  0.00  0.00     0.025 C 
ENDBRANCH   3   4
BRANCH   2   7
HETATM    7  C   UNK     0      31.245   5.993   6.781  0.00  0.00     0.002 C 
HETATM    8  C   UNK     0      31.828   4.866   6.388  0.00  0.00     0.000 C 
BRANCH   8   9
HETATM    9  C   UNK     0      31.409   3.693   6.855  0.00  0.00     0.000 C 
HETATM   10  C   UNK     0      32.297   2.747   7.153  0.00  0.00     0.000 C 
BRANCH  10  11
HETATM   11  C   UNK     0      31.879   1.574   7.620  0.00  0.00     0.000 C 
HETATM   12  C   UNK     0      31.242   0.722   6.824  0.00  0.00     0.000 C 
BRANCH  12  13
HETATM   13  C   UNK     0      30.823  -0.451   7.291  0.00  0.00     0.000 C 
HETATM   14  C   UNK     0      29.765  -1.042   6.740  0.00  0.00     0.000 C 
ENDBRANCH  12  13
ENDBRANCH  10  11
ENDBRANCH   8   9
ENDBRANCH   2   7
TORSDOF 5
ENDMDL
