MODEL 1
REMARK VINA RESULT:      -6.0      0.000      0.000
REMARK  5 active torsions:
REMARK  status: ('A' for Active; 'I' for Inactive)
REMARK    1  A    between atoms: C_3  and  C_5 
REMARK    2  A    between atoms: C_4  and  C_6 
REMARK    3  A    between atoms: C_7  and  C_10 
REMARK    4  A    between atoms: C_8  and  C_9 
REMARK    5  A    between atoms: C_11  and  C_12 
ROOT
HETATM    1  O   UNK     0       6.214  48.887  24.459  0.00  0.00    -0.189 OA
HETATM    2  C   UNK     0       7.114  51.005  25.609  0.00  0.00     0.029 C 
HETATM    3  C   UNK     0       6.560  50.134  24.768  0.00  0.00     0.150 C 
ENDROOT
BRANCH   3   4
HETATM    4  C   UNK     0       6.049  50.561  23.617  0.00  0.00     0.128 C 
HETATM    5  N   UNK     0       5.777  49.306  23.272  0.00  0.00    -0.146 N 
HETATM    6  C   UNK     0       6.026  51.859  23.332  0.00  0.00     0.025 C 
ENDBRANCH   3   4
BRANCH   2   7
HETATM    7  C   UNK     0       7.624  50.578  26.761  0.00  0.00     0.002 C 
HETATM    8  C   UNK     0       7.008  50.839  27.908  0.00  0.00     0.000 C 
BRANCH   8   9
HETATM    9  C   UNK     0       7.519  50.411  29.059  0.00  0.00     0.000 C 
HETATM   10  C   UNK     0       7.116  49.248  29.568  0.00  0.00     0.000 C 
BRANCH  10  11
HETATM   11  C   UNK     0       7.627  48.819  30.719  0.00  0.00     0.000 C 
HETATM   12  C   UNK     0       8.779  49.306  31.166  0.00  0.00     0.000 C 
BRANCH  12  13
HETATM   13  C   UNK     0       9.290  48.877  32.317  0.00  0.00     0.000 C 
HETATM   14  C   UNK     0       9.657  49.758  33.245  0.00  0.00     0.000 C 
ENDBRANCH  12  13
ENDBRANCH  10  11
ENDBRANCH   8   9
ENDBRANCH   2   7
TORSDOF 5
ENDMDL
MODEL 2
REMARK VINA RESULT:      -5.8      1.283      1.396
REMARK  5 active torsions:
REMARK  status: ('A' for Active; 'I' for Inactive)
REMARK    1  A    between atoms: C_3  and  C_5 
REMARK    2  A    between atoms: C_4  and  C_6 
REMARK    3  A    between atoms: C_7  and  C_10 
REMARK    4  A    between atoms: C_8  and  C_9 
REMARK    5  A    between atoms: C_11  and  C_12 
ROOT
HETATM    1  O   UNK     0       6.488  51.864  24.056  0.00  0.00    -0.189 OA
HETATM    2  C   UNK     0       6.719  49.520  25.091  0.00  0.00     0.029 C 
HETATM    3  C   UNK     0       6.420  50.562  24.317  0.00  0.00     0.150 C 
ENDROOT
BRANCH   3   4
HETATM    4  C   UNK     0       5.698  50.379  23.215  0.00  0.00     0.128 C 
HETATM    5  N   UNK     0       4.683  51.034  23.771  0.00  0.00    -0.146 N 
HETATM    6  C   UNK     0       6.207  49.722  22.179  0.00  0.00     0.025 C 
ENDBRANCH   3   4
BRANCH   2   7
HETATM    7  C   UNK     0       7.440  49.703  26.193  0.00  0.00     0.002 C 
HETATM    8  C   UNK     0       6.872  50.171  27.299  0.00  0.00     0.000 C 
BRANCH   8   9
HETATM    9  C   UNK     0       7.595  50.354  28.401  0.00  0.00     0.000 C 
HETATM   10  C   UNK     0       7.417  49.550  29.447  0.00  0.00     0.000 C 
BRANCH  10  11
HETATM   11  C   UNK     0       8.139  49.731  30.549  0.00  0.00     0.000 C 
HETATM   12  C   UNK     0       8.662  48.692  31.189  0.00  0.00     0.000 C 
BRANCH  12  13
HETATM   13  C   UNK     0       9.384  48.873  32.291  0.00  0.00     0.000 C 
HETATM   14  C   UNK     0       9.105  49.891  33.104  0.00  0.00     0.000 C 
ENDBRANCH  12  13
ENDBRANCH  10  11
ENDBRANCH   8   9
ENDBRANCH   2   7
TORSDOF 5
ENDMDL
MODEL 3
REMARK VINA RESULT:      -5.8     10.901     15.199
REMARK  5 active torsions:
REMARK  status: ('A' for Active; 'I' for Inactive)
REMARK    1  A    between atoms: C_3  and  C_5 
REMARK    2  A    between atoms: C_4  and  C_6 
REMARK    3  A    between atoms: C_7  and  C_10 
REMARK    4  A    between atoms: C_8  and  C_9 
REMARK    5  A    between atoms: C_11  and  C_12 
ROOT
HETATM    1  O   UNK     0       1.878  53.762  20.179  0.00  0.00    -0.189 OA
HETATM    2  C   UNK     0       1.460  55.032  17.980  0.00  0.00     0.029 C 
HETATM    3  C   UNK     0       1.948  54.585  19.136  0.00  0.00     0.150 C 
ENDROOT
BRANCH   3   4
HETATM    4  C   UNK     0       3.055  55.127  19.638  0.00  0.00     0.128 C 
HETATM    5  N   UNK     0       3.327  53.987  20.267  0.00  0.00    -0.146 N 
HETATM    6  C   UNK     0       3.379  56.382  19.351  0.00  0.00     0.025 C 
ENDBRANCH   3   4
BRANCH   2   7
HETATM    7  C   UNK     0       0.354  54.490  17.478  0.00  0.00     0.002 C 
HETATM    8  C   UNK     0      -0.117  54.892  16.303  0.00  0.00     0.000 C 
BRANCH   8   9
HETATM    9  C   UNK     0      -1.224  54.350  15.802  0.00  0.00     0.000 C 
HETATM   10  C   UNK     0      -1.384  54.280  14.481  0.00  0.00     0.000 C 
BRANCH  10  11
HETATM   11  C   UNK     0      -2.490  53.739  13.979  0.00  0.00     0.000 C 
HETATM   12  C   UNK     0      -3.301  53.025  14.753  0.00  0.00     0.000 C 
BRANCH  12  13
HETATM   13  C   UNK     0      -4.407  52.483  14.250  0.00  0.00     0.000 C 
HETATM   14  C   UNK     0      -4.823  51.299  14.695  0.00  0.00     0.000 C 
ENDBRANCH  12  13
ENDBRANCH  10  11
ENDBRANCH   8   9
ENDBRANCH   2   7
TORSDOF 5
ENDMDL
MODEL 4
REMARK VINA RESULT:      -5.7     10.169     10.865
REMARK  5 active torsions:
REMARK  status: ('A' for Active; 'I' for Inactive)
REMARK    1  A    between atoms: C_3  and  C_5 
REMARK    2  A    between atoms: C_4  and  C_6 
REMARK    3  A    between atoms: C_7  and  C_10 
REMARK    4  A    between atoms: C_8  and  C_9 
REMARK    5  A    between atoms: C_11  and  C_12 
ROOT
HETATM    1  O   UNK     0      -0.899  46.351  34.273  0.00  0.00    -0.189 OA
HETATM    2  C   UNK     0       1.281  47.359  35.197  0.00  0.00     0.029 C 
HETATM    3  C   UNK     0       0.061  47.168  34.697  0.00  0.00     0.150 C 
ENDROOT
BRANCH   3   4
HETATM    4  C   UNK     0      -0.715  48.216  34.433  0.00  0.00     0.128 C 
HETATM    5  N   UNK     0      -0.715  47.890  33.143  0.00  0.00    -0.146 N 
HETATM    6  C   UNK     0      -1.107  49.026  35.410  0.00  0.00     0.025 C 
ENDBRANCH   3   4
BRANCH   2   7
HETATM    7  C   UNK     0       2.056  46.311  35.461  0.00  0.00     0.002 C 
HETATM    8  C   UNK     0       2.640  45.640  34.474  0.00  0.00     0.000 C 
BRANCH   8   9
HETATM    9  C   UNK     0       3.415  44.593  34.739  0.00  0.00     0.000 C 
HETATM   10  C   UNK     0       3.768  43.767  33.755  0.00  0.00     0.000 C 
BRANCH  10  11
HETATM   11  C   UNK     0       4.543  42.720  34.019  0.00  0.00     0.000 C 
HETATM   12  C   UNK     0       4.444  42.085  35.182  0.00  0.00     0.000 C 
BRANCH  12  13
HETATM   13  C   UNK     0       5.219  41.038  35.446  0.00  0.00     0.000 C 
HETATM   14  C   UNK     0       5.650  40.831  36.690  0.00  0.00     0.000 C 
ENDBRANCH  12  13
ENDBRANCH  10  11
ENDBRANCH   8   9
ENDBRANCH   2   7
TORSDOF 5
ENDMDL
MODEL 5
REMARK VINA RESULT:      -5.7      6.965      8.786
REMARK  5 active torsions:
REMARK  status: ('A' for Active; 'I' for Inactive)
REMARK    1  A    between atoms: C_3  and  C_5 
REMARK    2  A    between atoms: C_4  and  C_6 
REMARK    3  A    between atoms: C_7  and  C_10 
REMARK    4  A    between atoms: C_8  and  C_9 
REMARK    5  A    between atoms: C_11  and  C_12 
ROOT
HETATM    1  O   UNK     0       4.927  48.700  31.779  0.00  0.00    -0.189 OA
HETATM    2  C   UNK     0       3.648  48.940  33.998  0.00  0.00     0.029 C 
HETATM    3  C   UNK     0       4.230  49.149  32.819  0.00  0.00     0.150 C 
ENDROOT
BRANCH   3   4
HETATM    4  C   UNK     0       4.181  50.357  32.264  0.00  0.00     0.128 C 
HETATM    5  N   UNK     0       3.936  49.804  31.080  0.00  0.00    -0.146 N 
HETATM    6  C   UNK     0       4.368  51.445  33.003  0.00  0.00     0.025 C 
ENDBRANCH   3   4
BRANCH   2   7
HETATM    7  C   UNK     0       3.696  47.732  34.553  0.00  0.00     0.002 C 
HETATM    8  C   UNK     0       2.633  46.936  34.525  0.00  0.00     0.000 C 
BRANCH   8   9
HETATM    9  C   UNK     0       2.683  45.729  35.080  0.00  0.00     0.000 C 
HETATM   10  C   UNK     0       3.305  44.736  34.446  0.00  0.00     0.000 C 
BRANCH  10  11
HETATM   11  C   UNK     0       3.355  43.528  35.000  0.00  0.00     0.000 C 
HETATM   12  C   UNK     0       4.392  42.729  34.777  0.00  0.00     0.000 C 
BRANCH  12  13
HETATM   13  C   UNK     0       4.442  41.520  35.331  0.00  0.00     0.000 C 
HETATM   14  C   UNK     0       5.523  41.153  36.017  0.00  0.00     0.000 C 
ENDBRANCH  12  13
ENDBRANCH  10  11
ENDBRANCH   8   9
ENDBRANCH   2   7
TORSDOF 5
ENDMDL
