MODEL 1
REMARK VINA RESULT:      -5.9      0.000      0.000
REMARK  5 active torsions:
REMARK  status: ('A' for Active; 'I' for Inactive)
REMARK    1  A    between atoms: C_3  and  C_5 
REMARK    2  A    between atoms: C_4  and  C_6 
REMARK    3  A    between atoms: C_7  and  C_10 
REMARK    4  A    between atoms: C_8  and  C_9 
REMARK    5  A    between atoms: C_11  and  C_12 
ROOT
HETATM    1  O   UNK     0       4.249  48.451  31.017  0.00  0.00    -0.189 OA
HETATM    2  C   UNK     0       2.503  47.552  32.678  0.00  0.00     0.029 C 
HETATM    3  C   UNK     0       3.162  48.252  31.757  0.00  0.00     0.150 C 
ENDROOT
BRANCH   3   4
HETATM    4  C   UNK     0       2.586  49.312  31.196  0.00  0.00     0.128 C 
HETATM    5  N   UNK     0       3.389  49.191  30.143  0.00  0.00    -0.146 N 
HETATM    6  C   UNK     0       1.604  49.952  31.821  0.00  0.00     0.025 C 
ENDBRANCH   3   4
BRANCH   2   7
HETATM    7  C   UNK     0       3.078  46.492  33.238  0.00  0.00     0.002 C 
HETATM    8  C   UNK     0       3.058  45.313  32.626  0.00  0.00     0.000 C 
BRANCH   8   9
HETATM    9  C   UNK     0       3.634  44.254  33.187  0.00  0.00     0.000 C 
HETATM   10  C   UNK     0       3.517  44.057  34.499  0.00  0.00     0.000 C 
BRANCH  10  11
HETATM   11  C   UNK     0       4.092  42.998  35.061  0.00  0.00     0.000 C 
HETATM   12  C   UNK     0       4.790  42.141  34.323  0.00  0.00     0.000 C 
BRANCH  12  13
HETATM   13  C   UNK     0       5.365  41.082  34.885  0.00  0.00     0.000 C 
HETATM   14  C   UNK     0       5.440  40.997  36.212  0.00  0.00     0.000 C 
ENDBRANCH  12  13
ENDBRANCH  10  11
ENDBRANCH   8   9
ENDBRANCH   2   7
TORSDOF 5
ENDMDL
MODEL 2
REMARK VINA RESULT:      -5.8      7.337      8.996
REMARK  5 active torsions:
REMARK  status: ('A' for Active; 'I' for Inactive)
REMARK    1  A    between atoms: C_3  and  C_5 
REMARK    2  A    between atoms: C_4  and  C_6 
REMARK    3  A    between atoms: C_7  and  C_10 
REMARK    4  A    between atoms: C_8  and  C_9 
REMARK    5  A    between atoms: C_11  and  C_12 
ROOT
HETATM    1  O   UNK     0       4.857  50.953  24.677  0.00  0.00    -0.189 OA
HETATM    2  C   UNK     0       7.130  49.755  24.824  0.00  0.00     0.029 C 
HETATM    3  C   UNK     0       5.993  50.313  24.412  0.00  0.00     0.150 C 
ENDROOT
BRANCH   3   4
HETATM    4  C   UNK     0       5.691  50.315  23.116  0.00  0.00     0.128 C 
HETATM    5  N   UNK     0       5.937  51.621  23.061  0.00  0.00    -0.146 N 
HETATM    6  C   UNK     0       5.327  49.191  22.509  0.00  0.00     0.025 C 
ENDBRANCH   3   4
BRANCH   2   7
HETATM    7  C   UNK     0       7.432  49.753  26.119  0.00  0.00     0.002 C 
HETATM    8  C   UNK     0       7.698  50.892  26.750  0.00  0.00     0.000 C 
BRANCH   8   9
HETATM    9  C   UNK     0       8.000  50.889  28.045  0.00  0.00     0.000 C 
HETATM   10  C   UNK     0       7.111  50.437  28.928  0.00  0.00     0.000 C 
BRANCH  10  11
HETATM   11  C   UNK     0       7.412  50.434  30.224  0.00  0.00     0.000 C 
HETATM   12  C   UNK     0       8.110  49.433  30.750  0.00  0.00     0.000 C 
BRANCH  12  13
HETATM   13  C   UNK     0       8.411  49.430  32.045  0.00  0.00     0.000 C 
HETATM   14  C   UNK     0       9.630  49.067  32.439  0.00  0.00     0.000 C 
ENDBRANCH  12  13
ENDBRANCH  10  11
ENDBRANCH   8   9
ENDBRANCH   2   7
TORSDOF 5
ENDMDL
MODEL 3
REMARK VINA RESULT:      -5.7      2.942      3.201
REMARK  5 active torsions:
REMARK  status: ('A' for Active; 'I' for Inactive)
REMARK    1  A    between atoms: C_3  and  C_5 
REMARK    2  A    between atoms: C_4  and  C_6 
REMARK    3  A    between atoms: C_7  and  C_10 
REMARK    4  A    between atoms: C_8  and  C_9 
REMARK    5  A    between atoms: C_11  and  C_12 
ROOT
HETATM    1  O   UNK     0      -0.231  46.923  33.150  0.00  0.00    -0.189 OA
HETATM    2  C   UNK     0       1.018  47.356  35.357  0.00  0.00     0.029 C 
HETATM    3  C   UNK     0       0.246  47.447  34.275  0.00  0.00     0.150 C 
ENDROOT
BRANCH   3   4
HETATM    4  C   UNK     0      -0.473  48.547  34.069  0.00  0.00     0.128 C 
HETATM    5  N   UNK     0      -1.184  48.287  35.162  0.00  0.00    -0.146 N 
HETATM    6  C   UNK     0      -0.225  49.326  33.022  0.00  0.00     0.025 C 
ENDBRANCH   3   4
BRANCH   2   7
HETATM    7  C   UNK     0       1.737  46.257  35.563  0.00  0.00     0.002 C 
HETATM    8  C   UNK     0       2.632  45.860  34.665  0.00  0.00     0.000 C 
BRANCH   8   9
HETATM    9  C   UNK     0       3.350  44.760  34.873  0.00  0.00     0.000 C 
HETATM   10  C   UNK     0       3.587  43.926  33.862  0.00  0.00     0.000 C 
BRANCH  10  11
HETATM   11  C   UNK     0       4.306  42.826  34.068  0.00  0.00     0.000 C 
HETATM   12  C   UNK     0       4.480  42.358  35.299  0.00  0.00     0.000 C 
BRANCH  12  13
HETATM   13  C   UNK     0       5.199  41.258  35.506  0.00  0.00     0.000 C 
HETATM   14  C   UNK     0       5.885  40.718  34.500  0.00  0.00     0.000 C 
ENDBRANCH  12  13
ENDBRANCH  10  11
ENDBRANCH   8   9
ENDBRANCH   2   7
TORSDOF 5
ENDMDL
MODEL 4
REMARK VINA RESULT:      -5.7      6.081      6.831
REMARK  5 active torsions:
REMARK  status: ('A' for Active; 'I' for Inactive)
REMARK    1  A    between atoms: C_3  and  C_5 
REMARK    2  A    between atoms: C_4  and  C_6 
REMARK    3  A    between atoms: C_7  and  C_10 
REMARK    4  A    between atoms: C_8  and  C_9 
REMARK    5  A    between atoms: C_11  and  C_12 
ROOT
HETATM    1  O   UNK     0       4.702  54.159  32.202  0.00  0.00    -0.189 OA
HETATM    2  C   UNK     0       4.345  52.402  30.357  0.00  0.00     0.029 C 
HETATM    3  C   UNK     0       4.287  53.481  31.136  0.00  0.00     0.150 C 
ENDROOT
BRANCH   3   4
HETATM    4  C   UNK     0       3.445  54.466  30.837  0.00  0.00     0.128 C 
HETATM    5  N   UNK     0       2.560  53.576  30.397  0.00  0.00    -0.146 N 
HETATM    6  C   UNK     0       3.781  55.731  31.065  0.00  0.00     0.025 C 
ENDBRANCH   3   4
BRANCH   2   7
HETATM    7  C   UNK     0       5.187  51.417  30.656  0.00  0.00     0.002 C 
HETATM    8  C   UNK     0       6.500  51.612  30.590  0.00  0.00     0.000 C 
BRANCH   8   9
HETATM    9  C   UNK     0       7.341  50.626  30.889  0.00  0.00     0.000 C 
HETATM   10  C   UNK     0       7.002  49.366  30.625  0.00  0.00     0.000 C 
BRANCH  10  11
HETATM   11  C   UNK     0       7.843  48.380  30.923  0.00  0.00     0.000 C 
HETATM   12  C   UNK     0       8.863  48.592  31.747  0.00  0.00     0.000 C 
BRANCH  12  13
HETATM   13  C   UNK     0       9.704  47.606  32.046  0.00  0.00     0.000 C 
HETATM   14  C   UNK     0       9.657  46.467  31.357  0.00  0.00     0.000 C 
ENDBRANCH  12  13
ENDBRANCH  10  11
ENDBRANCH   8   9
ENDBRANCH   2   7
TORSDOF 5
ENDMDL
MODEL 5
REMARK VINA RESULT:      -5.7      8.309      9.966
REMARK  5 active torsions:
REMARK  status: ('A' for Active; 'I' for Inactive)
REMARK    1  A    between atoms: C_3  and  C_5 
REMARK    2  A    between atoms: C_4  and  C_6 
REMARK    3  A    between atoms: C_7  and  C_10 
REMARK    4  A    between atoms: C_8  and  C_9 
REMARK    5  A    between atoms: C_11  and  C_12 
ROOT
HETATM    1  O   UNK     0       6.272  52.315  23.373  0.00  0.00    -0.189 OA
HETATM    2  C   UNK     0       6.187  50.035  24.562  0.00  0.00     0.029 C 
HETATM    3  C   UNK     0       6.154  51.024  23.671  0.00  0.00     0.150 C 
ENDROOT
BRANCH   3   4
HETATM    4  C   UNK     0       5.882  50.755  22.397  0.00  0.00     0.128 C 
HETATM    5  N   UNK     0       5.454  52.003  22.225  0.00  0.00    -0.146 N 
HETATM    6  C   UNK     0       6.112  49.545  21.901  0.00  0.00     0.025 C 
ENDBRANCH   3   4
BRANCH   2   7
HETATM    7  C   UNK     0       6.459  50.304  25.836  0.00  0.00     0.002 C 
HETATM    8  C   UNK     0       7.644  50.795  26.181  0.00  0.00     0.000 C 
BRANCH   8   9
HETATM    9  C   UNK     0       7.915  51.064  27.455  0.00  0.00     0.000 C 
HETATM   10  C   UNK     0       7.023  50.763  28.397  0.00  0.00     0.000 C 
BRANCH  10  11
HETATM   11  C   UNK     0       7.293  51.032  29.671  0.00  0.00     0.000 C 
HETATM   12  C   UNK     0       6.362  51.556  30.461  0.00  0.00     0.000 C 
BRANCH  12  13
HETATM   13  C   UNK     0       6.633  51.824  31.735  0.00  0.00     0.000 C 
HETATM   14  C   UNK     0       6.188  52.954  32.281  0.00  0.00     0.000 C 
ENDBRANCH  12  13
ENDBRANCH  10  11
ENDBRANCH   8   9
ENDBRANCH   2   7
TORSDOF 5
ENDMDL
