MODEL 1
REMARK VINA RESULT:      -6.0      0.000      0.000
REMARK  5 active torsions:
REMARK  status: ('A' for Active; 'I' for Inactive)
REMARK    1  A    between atoms: C_3  and  C_5 
REMARK    2  A    between atoms: C_4  and  C_6 
REMARK    3  A    between atoms: C_7  and  C_10 
REMARK    4  A    between atoms: C_8  and  C_9 
REMARK    5  A    between atoms: C_11  and  C_12 
ROOT
HETATM    1  O   UNK     0       6.320  51.594  24.363  0.00  0.00    -0.189 OA
HETATM    2  C   UNK     0       6.404  49.097  24.975  0.00  0.00     0.029 C 
HETATM    3  C   UNK     0       6.233  50.267  24.363  0.00  0.00     0.150 C 
ENDROOT
BRANCH   3   4
HETATM    4  C   UNK     0       5.735  50.300  23.130  0.00  0.00     0.128 C 
HETATM    5  N   UNK     0       5.852  51.625  23.118  0.00  0.00    -0.146 N 
HETATM    6  C   UNK     0       5.382  49.175  22.517  0.00  0.00     0.025 C 
ENDBRANCH   3   4
BRANCH   2   7
HETATM    7  C   UNK     0       6.902  49.064  26.208  0.00  0.00     0.002 C 
HETATM    8  C   UNK     0       6.103  48.870  27.251  0.00  0.00     0.000 C 
BRANCH   8   9
HETATM    9  C   UNK     0       6.602  48.838  28.484  0.00  0.00     0.000 C 
HETATM   10  C   UNK     0       7.324  49.864  28.930  0.00  0.00     0.000 C 
BRANCH  10  11
HETATM   11  C   UNK     0       7.823  49.832  30.163  0.00  0.00     0.000 C 
HETATM   12  C   UNK     0       7.835  48.698  30.854  0.00  0.00     0.000 C 
BRANCH  12  13
HETATM   13  C   UNK     0       8.335  48.667  32.087  0.00  0.00     0.000 C 
HETATM   14  C   UNK     0       9.608  48.999  32.292  0.00  0.00     0.000 C 
ENDBRANCH  12  13
ENDBRANCH  10  11
ENDBRANCH   8   9
ENDBRANCH   2   7
TORSDOF 5
ENDMDL
MODEL 2
REMARK VINA RESULT:      -5.8     10.317     10.985
REMARK  5 active torsions:
REMARK  status: ('A' for Active; 'I' for Inactive)
REMARK    1  A    between atoms: C_3  and  C_5 
REMARK    2  A    between atoms: C_4  and  C_6 
REMARK    3  A    between atoms: C_7  and  C_10 
REMARK    4  A    between atoms: C_8  and  C_9 
REMARK    5  A    between atoms: C_11  and  C_12 
ROOT
HETATM    1  O   UNK     0      -0.900  46.514  34.721  0.00  0.00    -0.189 OA
HETATM    2  C   UNK     0       1.429  47.447  35.292  0.00  0.00     0.029 C 
HETATM    3  C   UNK     0       0.147  47.298  34.962  0.00  0.00     0.150 C 
ENDROOT
BRANCH   3   4
HETATM    4  C   UNK     0      -0.601  48.371  34.719  0.00  0.00     0.128 C 
HETATM    5  N   UNK     0      -1.258  48.170  35.858  0.00  0.00    -0.146 N 
HETATM    6  C   UNK     0      -0.412  49.086  33.615  0.00  0.00     0.025 C 
ENDBRANCH   3   4
BRANCH   2   7
HETATM    7  C   UNK     0       2.176  46.374  35.535  0.00  0.00     0.002 C 
HETATM    8  C   UNK     0       2.546  45.573  34.542  0.00  0.00     0.000 C 
BRANCH   8   9
HETATM    9  C   UNK     0       3.293  44.501  34.786  0.00  0.00     0.000 C 
HETATM   10  C   UNK     0       3.747  43.768  33.770  0.00  0.00     0.000 C 
BRANCH  10  11
HETATM   11  C   UNK     0       4.494  42.695  34.013  0.00  0.00     0.000 C 
HETATM   12  C   UNK     0       4.580  42.199  35.242  0.00  0.00     0.000 C 
BRANCH  12  13
HETATM   13  C   UNK     0       5.327  41.126  35.485  0.00  0.00     0.000 C 
HETATM   14  C   UNK     0       5.963  40.523  34.482  0.00  0.00     0.000 C 
ENDBRANCH  12  13
ENDBRANCH  10  11
ENDBRANCH   8   9
ENDBRANCH   2   7
TORSDOF 5
ENDMDL
MODEL 3
REMARK VINA RESULT:      -5.8      6.588      8.116
REMARK  5 active torsions:
REMARK  status: ('A' for Active; 'I' for Inactive)
REMARK    1  A    between atoms: C_3  and  C_5 
REMARK    2  A    between atoms: C_4  and  C_6 
REMARK    3  A    between atoms: C_7  and  C_10 
REMARK    4  A    between atoms: C_8  and  C_9 
REMARK    5  A    between atoms: C_11  and  C_12 
ROOT
HETATM    1  O   UNK     0       4.928  49.434  31.050  0.00  0.00    -0.189 OA
HETATM    2  C   UNK     0       2.981  48.096  32.069  0.00  0.00     0.029 C 
HETATM    3  C   UNK     0       3.738  49.013  31.469  0.00  0.00     0.150 C 
ENDROOT
BRANCH   3   4
HETATM    4  C   UNK     0       3.179  50.123  30.997  0.00  0.00     0.128 C 
HETATM    5  N   UNK     0       2.781  49.462  29.914  0.00  0.00    -0.146 N 
HETATM    6  C   UNK     0       3.238  51.255  31.691  0.00  0.00     0.025 C 
ENDBRANCH   3   4
BRANCH   2   7
HETATM    7  C   UNK     0       3.541  46.986  32.542  0.00  0.00     0.002 C 
HETATM    8  C   UNK     0       2.828  45.871  32.660  0.00  0.00     0.000 C 
BRANCH   8   9
HETATM    9  C   UNK     0       3.388  44.761  33.133  0.00  0.00     0.000 C 
HETATM   10  C   UNK     0       3.248  44.448  34.420  0.00  0.00     0.000 C 
BRANCH  10  11
HETATM   11  C   UNK     0       3.808  43.339  34.893  0.00  0.00     0.000 C 
HETATM   12  C   UNK     0       4.556  42.574  34.106  0.00  0.00     0.000 C 
BRANCH  12  13
HETATM   13  C   UNK     0       5.116  41.464  34.580  0.00  0.00     0.000 C 
HETATM   14  C   UNK     0       5.300  41.325  35.891  0.00  0.00     0.000 C 
ENDBRANCH  12  13
ENDBRANCH  10  11
ENDBRANCH   8   9
ENDBRANCH   2   7
TORSDOF 5
ENDMDL
MODEL 4
REMARK VINA RESULT:      -5.7      1.883      2.352
REMARK  5 active torsions:
REMARK  status: ('A' for Active; 'I' for Inactive)
REMARK    1  A    between atoms: C_3  and  C_5 
REMARK    2  A    between atoms: C_4  and  C_6 
REMARK    3  A    between atoms: C_7  and  C_10 
REMARK    4  A    between atoms: C_8  and  C_9 
REMARK    5  A    between atoms: C_11  and  C_12 
ROOT
HETATM    1  O   UNK     0       5.076  50.797  25.864  0.00  0.00    -0.189 OA
HETATM    2  C   UNK     0       7.623  50.947  26.197  0.00  0.00     0.029 C 
HETATM    3  C   UNK     0       6.394  50.853  25.693  0.00  0.00     0.150 C 
ENDROOT
BRANCH   3   4
HETATM    4  C   UNK     0       6.227  50.759  24.376  0.00  0.00     0.128 C 
HETATM    5  N   UNK     0       6.220  49.433  24.471  0.00  0.00    -0.146 N 
HETATM    6  C   UNK     0       6.149  51.855  23.629  0.00  0.00     0.025 C 
ENDBRANCH   3   4
BRANCH   2   7
HETATM    7  C   UNK     0       7.789  51.040  27.514  0.00  0.00     0.002 C 
HETATM    8  C   UNK     0       7.492  50.015  28.304  0.00  0.00     0.000 C 
BRANCH   8   9
HETATM    9  C   UNK     0       7.659  50.109  29.620  0.00  0.00     0.000 C 
HETATM   10  C   UNK     0       6.973  51.019  30.308  0.00  0.00     0.000 C 
BRANCH  10  11
HETATM   11  C   UNK     0       7.140  51.114  31.624  0.00  0.00     0.000 C 
HETATM   12  C   UNK     0       7.306  50.022  32.362  0.00  0.00     0.000 C 
BRANCH  12  13
HETATM   13  C   UNK     0       7.473  50.116  33.678  0.00  0.00     0.000 C 
HETATM   14  C   UNK     0       6.541  49.633  34.498  0.00  0.00     0.000 C 
ENDBRANCH  12  13
ENDBRANCH  10  11
ENDBRANCH   8   9
ENDBRANCH   2   7
TORSDOF 5
ENDMDL
MODEL 5
REMARK VINA RESULT:      -5.6      7.076      8.485
REMARK  5 active torsions:
REMARK  status: ('A' for Active; 'I' for Inactive)
REMARK    1  A    between atoms: C_3  and  C_5 
REMARK    2  A    between atoms: C_4  and  C_6 
REMARK    3  A    between atoms: C_7  and  C_10 
REMARK    4  A    between atoms: C_8  and  C_9 
REMARK    5  A    between atoms: C_11  and  C_12 
ROOT
HETATM    1  O   UNK     0       4.611  50.970  31.449  0.00  0.00    -0.189 OA
HETATM    2  C   UNK     0       4.921  50.887  34.002  0.00  0.00     0.029 C 
HETATM    3  C   UNK     0       4.802  51.268  32.731  0.00  0.00     0.150 C 
ENDROOT
BRANCH   3   4
HETATM    4  C   UNK     0       4.896  52.557  32.418  0.00  0.00     0.128 C 
HETATM    5  N   UNK     0       3.624  52.555  32.028  0.00  0.00    -0.146 N 
HETATM    6  C   UNK     0       6.038  53.211  32.595  0.00  0.00     0.025 C 
ENDBRANCH   3   4
BRANCH   2   7
HETATM    7  C   UNK     0       4.827  49.597  34.315  0.00  0.00     0.002 C 
HETATM    8  C   UNK     0       3.666  48.961  34.205  0.00  0.00     0.000 C 
BRANCH   8   9
HETATM    9  C   UNK     0       3.573  47.672  34.519  0.00  0.00     0.000 C 
HETATM   10  C   UNK     0       2.448  47.203  35.056  0.00  0.00     0.000 C 
BRANCH  10  11
HETATM   11  C   UNK     0       2.355  45.914  35.370  0.00  0.00     0.000 C 
HETATM   12  C   UNK     0       3.165  45.025  34.808  0.00  0.00     0.000 C 
BRANCH  12  13
HETATM   13  C   UNK     0       3.071  43.735  35.122  0.00  0.00     0.000 C 
HETATM   14  C   UNK     0       4.042  42.896  34.765  0.00  0.00     0.000 C 
ENDBRANCH  12  13
ENDBRANCH  10  11
ENDBRANCH   8   9
ENDBRANCH   2   7
TORSDOF 5
ENDMDL
