MODEL 1
REMARK VINA RESULT:      -5.0      0.000      0.000
REMARK  5 active torsions:
REMARK  status: ('A' for Active; 'I' for Inactive)
REMARK    1  A    between atoms: C_3  and  C_5 
REMARK    2  A    between atoms: C_4  and  C_6 
REMARK    3  A    between atoms: C_7  and  C_10 
REMARK    4  A    between atoms: C_8  and  C_9 
REMARK    5  A    between atoms: C_11  and  C_12 
ROOT
HETATM    1  O   UNK     0     -10.761  37.318  93.932  0.00  0.00    -0.189 OA
HETATM    2  C   UNK     0     -10.650  35.727  91.913  0.00  0.00     0.029 C 
HETATM    3  C   UNK     0     -10.480  36.328  93.090  0.00  0.00     0.150 C 
ENDROOT
BRANCH   3   4
HETATM    4  C   UNK     0      -9.646  35.804  93.983  0.00  0.00     0.128 C 
HETATM    5  N   UNK     0      -8.717  35.673  93.040  0.00  0.00    -0.146 N 
HETATM    6  C   UNK     0     -10.023  35.653  95.248  0.00  0.00     0.025 C 
ENDBRANCH   3   4
BRANCH   2   7
HETATM    7  C   UNK     0     -11.484  36.251  91.020  0.00  0.00     0.002 C 
HETATM    8  C   UNK     0     -12.374  35.484  90.400  0.00  0.00     0.000 C 
BRANCH   8   9
HETATM    9  C   UNK     0     -13.208  36.008  89.506  0.00  0.00     0.000 C 
HETATM   10  C   UNK     0     -13.638  37.260  89.660  0.00  0.00     0.000 C 
BRANCH  10  11
HETATM   11  C   UNK     0     -14.471  37.785  88.767  0.00  0.00     0.000 C 
HETATM   12  C   UNK     0     -14.066  38.016  87.523  0.00  0.00     0.000 C 
BRANCH  12  13
HETATM   13  C   UNK     0     -14.900  38.542  86.630  0.00  0.00     0.000 C 
HETATM   14  C   UNK     0     -16.080  39.016  87.027  0.00  0.00     0.000 C 
ENDBRANCH  12  13
ENDBRANCH  10  11
ENDBRANCH   8   9
ENDBRANCH   2   7
TORSDOF 5
ENDMDL
MODEL 2
REMARK VINA RESULT:      -4.4     14.346     15.829
REMARK  5 active torsions:
REMARK  status: ('A' for Active; 'I' for Inactive)
REMARK    1  A    between atoms: C_3  and  C_5 
REMARK    2  A    between atoms: C_4  and  C_6 
REMARK    3  A    between atoms: C_7  and  C_10 
REMARK    4  A    between atoms: C_8  and  C_9 
REMARK    5  A    between atoms: C_11  and  C_12 
ROOT
HETATM    1  O   UNK     0     -19.581  38.271  76.941  0.00  0.00    -0.189 OA
HETATM    2  C   UNK     0     -18.766  36.819  78.903  0.00  0.00     0.029 C 
HETATM    3  C   UNK     0     -19.164  37.821  78.122  0.00  0.00     0.150 C 
ENDROOT
BRANCH   3   4
HETATM    4  C   UNK     0     -19.238  39.054  78.617  0.00  0.00     0.128 C 
HETATM    5  N   UNK     0     -20.075  38.625  79.559  0.00  0.00    -0.146 N 
HETATM    6  C   UNK     0     -18.555  40.046  78.057  0.00  0.00     0.025 C 
ENDBRANCH   3   4
BRANCH   2   7
HETATM    7  C   UNK     0     -18.692  35.587  78.407  0.00  0.00     0.002 C 
HETATM    8  C   UNK     0     -19.744  34.777  78.457  0.00  0.00     0.000 C 
BRANCH   8   9
HETATM    9  C   UNK     0     -19.669  33.545  77.961  0.00  0.00     0.000 C 
HETATM   10  C   UNK     0     -18.477  32.998  77.732  0.00  0.00     0.000 C 
BRANCH  10  11
HETATM   11  C   UNK     0     -18.401  31.766  77.236  0.00  0.00     0.000 C 
HETATM   12  C   UNK     0     -19.506  31.100  76.918  0.00  0.00     0.000 C 
BRANCH  12  13
HETATM   13  C   UNK     0     -19.430  29.868  76.423  0.00  0.00     0.000 C 
HETATM   14  C   UNK     0     -19.031  28.866  77.204  0.00  0.00     0.000 C 
ENDBRANCH  12  13
ENDBRANCH  10  11
ENDBRANCH   8   9
ENDBRANCH   2   7
TORSDOF 5
ENDMDL
MODEL 3
REMARK VINA RESULT:      -4.3     17.635     20.750
REMARK  5 active torsions:
REMARK  status: ('A' for Active; 'I' for Inactive)
REMARK    1  A    between atoms: C_3  and  C_5 
REMARK    2  A    between atoms: C_4  and  C_6 
REMARK    3  A    between atoms: C_7  and  C_10 
REMARK    4  A    between atoms: C_8  and  C_9 
REMARK    5  A    between atoms: C_11  and  C_12 
ROOT
HETATM    1  O   UNK     0       8.252  38.446 102.648  0.00  0.00    -0.189 OA
HETATM    2  C   UNK     0       8.211  36.683 100.775  0.00  0.00     0.029 C 
HETATM    3  C   UNK     0       8.513  37.421 101.841  0.00  0.00     0.150 C 
ENDROOT
BRANCH   3   4
HETATM    4  C   UNK     0       9.577  37.113 102.577  0.00  0.00     0.128 C 
HETATM    5  N   UNK     0      10.144  38.268 102.240  0.00  0.00    -0.146 N 
HETATM    6  C   UNK     0       9.628  35.963 103.239  0.00  0.00     0.025 C 
ENDBRANCH   3   4
BRANCH   2   7
HETATM    7  C   UNK     0       7.147  36.991 100.039  0.00  0.00     0.002 C 
HETATM    8  C   UNK     0       7.035  36.538  98.795  0.00  0.00     0.000 C 
BRANCH   8   9
HETATM    9  C   UNK     0       5.970  36.847  98.060  0.00  0.00     0.000 C 
HETATM   10  C   UNK     0       4.755  36.784  98.601  0.00  0.00     0.000 C 
BRANCH  10  11
HETATM   11  C   UNK     0       3.690  37.092  97.867  0.00  0.00     0.000 C 
HETATM   12  C   UNK     0       3.836  37.584  96.642  0.00  0.00     0.000 C 
BRANCH  12  13
HETATM   13  C   UNK     0       2.771  37.892  95.908  0.00  0.00     0.000 C 
HETATM   14  C   UNK     0       2.540  39.162  95.580  0.00  0.00     0.000 C 
ENDBRANCH  12  13
ENDBRANCH  10  11
ENDBRANCH   8   9
ENDBRANCH   2   7
TORSDOF 5
ENDMDL
MODEL 4
REMARK VINA RESULT:      -4.2     19.675     23.045
REMARK  5 active torsions:
REMARK  status: ('A' for Active; 'I' for Inactive)
REMARK    1  A    between atoms: C_3  and  C_5 
REMARK    2  A    between atoms: C_4  and  C_6 
REMARK    3  A    between atoms: C_7  and  C_10 
REMARK    4  A    between atoms: C_8  and  C_9 
REMARK    5  A    between atoms: C_11  and  C_12 
ROOT
HETATM    1  O   UNK     0       8.918  34.393 104.460  0.00  0.00    -0.189 OA
HETATM    2  C   UNK     0       9.795  36.223 102.879  0.00  0.00     0.029 C 
HETATM    3  C   UNK     0       9.624  35.357 103.876  0.00  0.00     0.150 C 
ENDROOT
BRANCH   3   4
HETATM    4  C   UNK     0      10.515  35.302 104.862  0.00  0.00     0.128 C 
HETATM    5  N   UNK     0      10.478  33.973 104.821  0.00  0.00    -0.146 N 
HETATM    6  C   UNK     0      10.997  36.418 105.396  0.00  0.00     0.025 C 
ENDBRANCH   3   4
BRANCH   2   7
HETATM    7  C   UNK     0       8.904  36.278 101.893  0.00  0.00     0.002 C 
HETATM    8  C   UNK     0       8.568  37.445 101.355  0.00  0.00     0.000 C 
BRANCH   8   9
HETATM    9  C   UNK     0       7.676  37.499 100.369  0.00  0.00     0.000 C 
HETATM   10  C   UNK     0       6.767  36.534 100.248  0.00  0.00     0.000 C 
BRANCH  10  11
HETATM   11  C   UNK     0       5.876  36.587  99.263  0.00  0.00     0.000 C 
HETATM   12  C   UNK     0       6.213  36.225  98.030  0.00  0.00     0.000 C 
BRANCH  12  13
HETATM   13  C   UNK     0       5.321  36.278  97.045  0.00  0.00     0.000 C 
HETATM   14  C   UNK     0       4.858  37.458  96.636  0.00  0.00     0.000 C 
ENDBRANCH  12  13
ENDBRANCH  10  11
ENDBRANCH   8   9
ENDBRANCH   2   7
TORSDOF 5
ENDMDL
MODEL 5
REMARK VINA RESULT:      -4.2     22.068     22.838
REMARK  5 active torsions:
REMARK  status: ('A' for Active; 'I' for Inactive)
REMARK    1  A    between atoms: C_3  and  C_5 
REMARK    2  A    between atoms: C_4  and  C_6 
REMARK    3  A    between atoms: C_7  and  C_10 
REMARK    4  A    between atoms: C_8  and  C_9 
REMARK    5  A    between atoms: C_11  and  C_12 
ROOT
HETATM    1  O   UNK     0     -29.998  22.851 100.738  0.00  0.00    -0.189 OA
HETATM    2  C   UNK     0     -27.590  22.494 101.570  0.00  0.00     0.029 C 
HETATM    3  C   UNK     0     -28.905  22.686 101.477  0.00  0.00     0.150 C 
ENDROOT
BRANCH   3   4
HETATM    4  C   UNK     0     -29.637  22.783 102.583  0.00  0.00     0.128 C 
HETATM    5  N   UNK     0     -30.645  23.280 101.871  0.00  0.00    -0.146 N 
HETATM    6  C   UNK     0     -29.140  22.404 103.755  0.00  0.00     0.025 C 
ENDBRANCH   3   4
BRANCH   2   7
HETATM    7  C   UNK     0     -26.858  22.396 100.464  0.00  0.00     0.002 C 
HETATM    8  C   UNK     0     -26.066  23.396 100.092  0.00  0.00     0.000 C 
BRANCH   8   9
HETATM    9  C   UNK     0     -25.334  23.297  98.986  0.00  0.00     0.000 C 
HETATM   10  C   UNK     0     -25.448  22.219  98.213  0.00  0.00     0.000 C 
BRANCH  10  11
HETATM   11  C   UNK     0     -24.716  22.120  97.107  0.00  0.00     0.000 C 
HETATM   12  C   UNK     0     -25.179  21.460  96.051  0.00  0.00     0.000 C 
BRANCH  12  13
HETATM   13  C   UNK     0     -24.448  21.361  94.945  0.00  0.00     0.000 C 
HETATM   14  C   UNK     0     -23.121  21.286  95.035  0.00  0.00     0.000 C 
ENDBRANCH  12  13
ENDBRANCH  10  11
ENDBRANCH   8   9
ENDBRANCH   2   7
TORSDOF 5
ENDMDL
