MODEL 1
REMARK VINA RESULT:      -4.6      0.000      0.000
REMARK  5 active torsions:
REMARK  status: ('A' for Active; 'I' for Inactive)
REMARK    1  A    between atoms: C_3  and  C_5 
REMARK    2  A    between atoms: C_4  and  C_6 
REMARK    3  A    between atoms: C_7  and  C_10 
REMARK    4  A    between atoms: C_8  and  C_9 
REMARK    5  A    between atoms: C_11  and  C_12 
ROOT
HETATM    1  O   UNK     0      -6.813  45.136  73.353  0.00  0.00    -0.189 OA
HETATM    2  C   UNK     0      -5.813  43.147  74.641  0.00  0.00     0.029 C 
HETATM    3  C   UNK     0      -6.038  44.151  73.795  0.00  0.00     0.150 C 
ENDROOT
BRANCH   3   4
HETATM    4  C   UNK     0      -5.132  44.447  72.867  0.00  0.00     0.128 C 
HETATM    5  N   UNK     0      -6.102  44.610  71.972  0.00  0.00    -0.146 N 
HETATM    6  C   UNK     0      -3.838  44.456  73.169  0.00  0.00     0.025 C 
ENDBRANCH   3   4
BRANCH   2   7
HETATM    7  C   UNK     0      -6.719  42.851  75.569  0.00  0.00     0.002 C 
HETATM    8  C   UNK     0      -6.560  41.786  76.348  0.00  0.00     0.000 C 
BRANCH   8   9
HETATM    9  C   UNK     0      -7.467  41.491  77.275  0.00  0.00     0.000 C 
HETATM   10  C   UNK     0      -7.278  41.889  78.532  0.00  0.00     0.000 C 
BRANCH  10  11
HETATM   11  C   UNK     0      -8.184  41.595  79.460  0.00  0.00     0.000 C 
HETATM   12  C   UNK     0      -9.059  40.615  79.259  0.00  0.00     0.000 C 
BRANCH  12  13
HETATM   13  C   UNK     0      -9.964  40.321  80.188  0.00  0.00     0.000 C 
HETATM   14  C   UNK     0      -9.619  39.571  81.233  0.00  0.00     0.000 C 
ENDBRANCH  12  13
ENDBRANCH  10  11
ENDBRANCH   8   9
ENDBRANCH   2   7
TORSDOF 5
ENDMDL
MODEL 2
REMARK VINA RESULT:      -4.5     16.846     19.839
REMARK  5 active torsions:
REMARK  status: ('A' for Active; 'I' for Inactive)
REMARK    1  A    between atoms: C_3  and  C_5 
REMARK    2  A    between atoms: C_4  and  C_6 
REMARK    3  A    between atoms: C_7  and  C_10 
REMARK    4  A    between atoms: C_8  and  C_9 
REMARK    5  A    between atoms: C_11  and  C_12 
ROOT
HETATM    1  O   UNK     0     -24.039  28.888  77.821  0.00  0.00    -0.189 OA
HETATM    2  C   UNK     0     -21.725  28.057  77.066  0.00  0.00     0.029 C 
HETATM    3  C   UNK     0     -22.995  28.151  77.455  0.00  0.00     0.150 C 
ENDROOT
BRANCH   3   4
HETATM    4  C   UNK     0     -23.724  27.047  77.596  0.00  0.00     0.128 C 
HETATM    5  N   UNK     0     -24.715  27.769  78.113  0.00  0.00    -0.146 N 
HETATM    6  C   UNK     0     -23.240  25.868  77.221  0.00  0.00     0.025 C 
ENDBRANCH   3   4
BRANCH   2   7
HETATM    7  C   UNK     0     -20.995  29.160  76.925  0.00  0.00     0.002 C 
HETATM    8  C   UNK     0     -19.669  29.098  76.959  0.00  0.00     0.000 C 
BRANCH   8   9
HETATM    9  C   UNK     0     -18.940  30.202  76.818  0.00  0.00     0.000 C 
HETATM   10  C   UNK     0     -19.363  31.345  77.354  0.00  0.00     0.000 C 
BRANCH  10  11
HETATM   11  C   UNK     0     -18.635  32.449  77.214  0.00  0.00     0.000 C 
HETATM   12  C   UNK     0     -19.037  33.593  77.756  0.00  0.00     0.000 C 
BRANCH  12  13
HETATM   13  C   UNK     0     -18.309  34.697  77.616  0.00  0.00     0.000 C 
HETATM   14  C   UNK     0     -18.790  35.864  78.040  0.00  0.00     0.000 C 
ENDBRANCH  12  13
ENDBRANCH  10  11
ENDBRANCH   8   9
ENDBRANCH   2   7
TORSDOF 5
ENDMDL
MODEL 3
REMARK VINA RESULT:      -4.2     28.065     30.680
REMARK  5 active torsions:
REMARK  status: ('A' for Active; 'I' for Inactive)
REMARK    1  A    between atoms: C_3  and  C_5 
REMARK    2  A    between atoms: C_4  and  C_6 
REMARK    3  A    between atoms: C_7  and  C_10 
REMARK    4  A    between atoms: C_8  and  C_9 
REMARK    5  A    between atoms: C_11  and  C_12 
ROOT
HETATM    1  O   UNK     0     -31.462  46.818  97.367  0.00  0.00    -0.189 OA
HETATM    2  C   UNK     0     -30.010  44.696  97.454  0.00  0.00     0.029 C 
HETATM    3  C   UNK     0     -30.579  45.877  97.689  0.00  0.00     0.150 C 
ENDROOT
BRANCH   3   4
HETATM    4  C   UNK     0     -30.181  46.606  98.728  0.00  0.00     0.128 C 
HETATM    5  N   UNK     0     -31.444  46.941  98.978  0.00  0.00    -0.146 N 
HETATM    6  C   UNK     0     -28.892  46.687  99.038  0.00  0.00     0.025 C 
ENDBRANCH   3   4
BRANCH   2   7
HETATM    7  C   UNK     0     -30.408  43.967  96.416  0.00  0.00     0.002 C 
HETATM    8  C   UNK     0     -30.169  44.376  95.175  0.00  0.00     0.000 C 
BRANCH   8   9
HETATM    9  C   UNK     0     -30.568  43.646  94.137  0.00  0.00     0.000 C 
HETATM   10  C   UNK     0     -29.989  43.817  92.949  0.00  0.00     0.000 C 
BRANCH  10  11
HETATM   11  C   UNK     0     -30.387  43.088  91.911  0.00  0.00     0.000 C 
HETATM   12  C   UNK     0     -29.673  43.065  90.791  0.00  0.00     0.000 C 
BRANCH  12  13
HETATM   13  C   UNK     0     -30.071  42.336  89.753  0.00  0.00     0.000 C 
HETATM   14  C   UNK     0     -31.282  41.782  89.760  0.00  0.00     0.000 C 
ENDBRANCH  12  13
ENDBRANCH  10  11
ENDBRANCH   8   9
ENDBRANCH   2   7
TORSDOF 5
ENDMDL
MODEL 4
REMARK VINA RESULT:      -4.1     16.686     17.782
REMARK  5 active torsions:
REMARK  status: ('A' for Active; 'I' for Inactive)
REMARK    1  A    between atoms: C_3  and  C_5 
REMARK    2  A    between atoms: C_4  and  C_6 
REMARK    3  A    between atoms: C_7  and  C_10 
REMARK    4  A    between atoms: C_8  and  C_9 
REMARK    5  A    between atoms: C_11  and  C_12 
ROOT
HETATM    1  O   UNK     0       9.540  34.903  71.416  0.00  0.00    -0.189 OA
HETATM    2  C   UNK     0       9.927  33.644  73.626  0.00  0.00     0.029 C 
HETATM    3  C   UNK     0      10.014  34.129  72.389  0.00  0.00     0.150 C 
ENDROOT
BRANCH   3   4
HETATM    4  C   UNK     0      11.016  33.751  71.600  0.00  0.00     0.128 C 
HETATM    5  N   UNK     0      10.254  33.960  70.531  0.00  0.00    -0.146 N 
HETATM    6  C   UNK     0      12.180  33.380  72.123  0.00  0.00     0.025 C 
ENDBRANCH   3   4
BRANCH   2   7
HETATM    7  C   UNK     0       8.925  34.022  74.414  0.00  0.00     0.002 C 
HETATM    8  C   UNK     0       9.164  34.726  75.515  0.00  0.00     0.000 C 
BRANCH   8   9
HETATM    9  C   UNK     0       8.161  35.104  76.303  0.00  0.00     0.000 C 
HETATM   10  C   UNK     0       7.904  34.421  77.417  0.00  0.00     0.000 C 
BRANCH  10  11
HETATM   11  C   UNK     0       6.901  34.798  78.205  0.00  0.00     0.000 C 
HETATM   12  C   UNK     0       6.590  36.083  78.330  0.00  0.00     0.000 C 
BRANCH  12  13
HETATM   13  C   UNK     0       5.587  36.460  79.118  0.00  0.00     0.000 C 
HETATM   14  C   UNK     0       4.730  37.389  78.698  0.00  0.00     0.000 C 
ENDBRANCH  12  13
ENDBRANCH  10  11
ENDBRANCH   8   9
ENDBRANCH   2   7
TORSDOF 5
ENDMDL
MODEL 5
REMARK VINA RESULT:      -4.0     18.616     21.986
REMARK  5 active torsions:
REMARK  status: ('A' for Active; 'I' for Inactive)
REMARK    1  A    between atoms: C_3  and  C_5 
REMARK    2  A    between atoms: C_4  and  C_6 
REMARK    3  A    between atoms: C_7  and  C_10 
REMARK    4  A    between atoms: C_8  and  C_9 
REMARK    5  A    between atoms: C_11  and  C_12 
ROOT
HETATM    1  O   UNK     0      11.045  59.872  75.554  0.00  0.00    -0.189 OA
HETATM    2  C   UNK     0       9.297  58.431  76.774  0.00  0.00     0.029 C 
HETATM    3  C   UNK     0      10.219  59.335  76.448  0.00  0.00     0.150 C 
ENDROOT
BRANCH   3   4
HETATM    4  C   UNK     0      10.629  60.216  77.356  0.00  0.00     0.128 C 
HETATM    5  N   UNK     0      11.408  59.288  77.904  0.00  0.00    -0.146 N 
HETATM    6  C   UNK     0      10.166  61.461  77.342  0.00  0.00     0.025 C 
ENDBRANCH   3   4
BRANCH   2   7
HETATM    7  C   UNK     0       8.886  57.550  75.866  0.00  0.00     0.002 C 
HETATM    8  C   UNK     0       8.182  56.485  76.232  0.00  0.00     0.000 C 
BRANCH   8   9
HETATM    9  C   UNK     0       7.772  55.605  75.324  0.00  0.00     0.000 C 
HETATM   10  C   UNK     0       8.193  55.712  74.065  0.00  0.00     0.000 C 
BRANCH  10  11
HETATM   11  C   UNK     0       7.783  54.832  73.155  0.00  0.00     0.000 C 
HETATM   12  C   UNK     0       7.251  53.675  73.531  0.00  0.00     0.000 C 
BRANCH  12  13
HETATM   13  C   UNK     0       6.842  52.795  72.622  0.00  0.00     0.000 C 
HETATM   14  C   UNK     0       6.350  51.620  73.013  0.00  0.00     0.000 C 
ENDBRANCH  12  13
ENDBRANCH  10  11
ENDBRANCH   8   9
ENDBRANCH   2   7
TORSDOF 5
ENDMDL
