MODEL 1
REMARK VINA RESULT:      -4.8      0.000      0.000
REMARK  5 active torsions:
REMARK  status: ('A' for Active; 'I' for Inactive)
REMARK    1  A    between atoms: C_3  and  C_5 
REMARK    2  A    between atoms: C_4  and  C_6 
REMARK    3  A    between atoms: C_7  and  C_10 
REMARK    4  A    between atoms: C_8  and  C_9 
REMARK    5  A    between atoms: C_11  and  C_12 
ROOT
HETATM    1  O   UNK     0      -7.452  64.645  93.599  0.00  0.00    -0.189 OA
HETATM    2  C   UNK     0      -8.103  62.182  93.959  0.00  0.00     0.029 C 
HETATM    3  C   UNK     0      -7.537  63.318  93.555  0.00  0.00     0.150 C 
ENDROOT
BRANCH   3   4
HETATM    4  C   UNK     0      -6.549  63.284  92.666  0.00  0.00     0.128 C 
HETATM    5  N   UNK     0      -6.019  64.375  93.213  0.00  0.00    -0.146 N 
HETATM    6  C   UNK     0      -6.505  62.327  91.746  0.00  0.00     0.025 C 
ENDBRANCH   3   4
BRANCH   2   7
HETATM    7  C   UNK     0      -9.091  62.217  94.848  0.00  0.00     0.002 C 
HETATM    8  C   UNK     0     -10.330  61.900  94.488  0.00  0.00     0.000 C 
BRANCH   8   9
HETATM    9  C   UNK     0     -11.319  61.935  95.378  0.00  0.00     0.000 C 
HETATM   10  C   UNK     0     -12.170  62.959  95.378  0.00  0.00     0.000 C 
BRANCH  10  11
HETATM   11  C   UNK     0     -13.159  62.994  96.267  0.00  0.00     0.000 C 
HETATM   12  C   UNK     0     -13.846  64.114  96.464  0.00  0.00     0.000 C 
BRANCH  12  13
HETATM   13  C   UNK     0     -14.835  64.150  97.353  0.00  0.00     0.000 C 
HETATM   14  C   UNK     0     -14.552  64.170  98.654  0.00  0.00     0.000 C 
ENDBRANCH  12  13
ENDBRANCH  10  11
ENDBRANCH   8   9
ENDBRANCH   2   7
TORSDOF 5
ENDMDL
MODEL 2
REMARK VINA RESULT:      -4.7     30.864     32.510
REMARK  5 active torsions:
REMARK  status: ('A' for Active; 'I' for Inactive)
REMARK    1  A    between atoms: C_3  and  C_5 
REMARK    2  A    between atoms: C_4  and  C_6 
REMARK    3  A    between atoms: C_7  and  C_10 
REMARK    4  A    between atoms: C_8  and  C_9 
REMARK    5  A    between atoms: C_11  and  C_12 
ROOT
HETATM    1  O   UNK     0       8.780  38.380 104.688  0.00  0.00    -0.189 OA
HETATM    2  C   UNK     0      10.116  38.527 102.494  0.00  0.00     0.029 C 
HETATM    3  C   UNK     0       9.731  38.522 103.769  0.00  0.00     0.150 C 
ENDROOT
BRANCH   3   4
HETATM    4  C   UNK     0      10.621  38.760 104.728  0.00  0.00     0.128 C 
HETATM    5  N   UNK     0      10.980  37.479 104.714  0.00  0.00    -0.146 N 
HETATM    6  C   UNK     0      10.763  39.984 105.225  0.00  0.00     0.025 C 
ENDBRANCH   3   4
BRANCH   2   7
HETATM    7  C   UNK     0       9.226  38.288 101.535  0.00  0.00     0.002 C 
HETATM    8  C   UNK     0       8.607  37.115 101.469  0.00  0.00     0.000 C 
BRANCH   8   9
HETATM    9  C   UNK     0       7.717  36.877 100.510  0.00  0.00     0.000 C 
HETATM   10  C   UNK     0       7.511  37.789  99.560  0.00  0.00     0.000 C 
BRANCH  10  11
HETATM   11  C   UNK     0       6.621  37.552  98.601  0.00  0.00     0.000 C 
HETATM   12  C   UNK     0       6.352  36.306  98.225  0.00  0.00     0.000 C 
BRANCH  12  13
HETATM   13  C   UNK     0       5.462  36.070  97.265  0.00  0.00     0.000 C 
HETATM   14  C   UNK     0       4.874  37.090  96.644  0.00  0.00     0.000 C 
ENDBRANCH  12  13
ENDBRANCH  10  11
ENDBRANCH   8   9
ENDBRANCH   2   7
TORSDOF 5
ENDMDL
MODEL 3
REMARK VINA RESULT:      -4.3     36.350     39.501
REMARK  5 active torsions:
REMARK  status: ('A' for Active; 'I' for Inactive)
REMARK    1  A    between atoms: C_3  and  C_5 
REMARK    2  A    between atoms: C_4  and  C_6 
REMARK    3  A    between atoms: C_7  and  C_10 
REMARK    4  A    between atoms: C_8  and  C_9 
REMARK    5  A    between atoms: C_11  and  C_12 
ROOT
HETATM    1  O   UNK     0      10.636  30.709  76.290  0.00  0.00    -0.189 OA
HETATM    2  C   UNK     0      10.980  33.255  76.150  0.00  0.00     0.029 C 
HETATM    3  C   UNK     0      11.096  31.932  76.044  0.00  0.00     0.150 C 
ENDROOT
BRANCH   3   4
HETATM    4  C   UNK     0      12.136  31.411  75.398  0.00  0.00     0.128 C 
HETATM    5  N   UNK     0      11.316  30.926  74.470  0.00  0.00    -0.146 N 
HETATM    6  C   UNK     0      13.367  31.566  75.872  0.00  0.00     0.025 C 
ENDBRANCH   3   4
BRANCH   2   7
HETATM    7  C   UNK     0       9.940  33.776  76.795  0.00  0.00     0.002 C 
HETATM    8  C   UNK     0       8.905  34.264  76.120  0.00  0.00     0.000 C 
BRANCH   8   9
HETATM    9  C   UNK     0       7.866  34.784  76.766  0.00  0.00     0.000 C 
HETATM   10  C   UNK     0       7.614  34.412  78.019  0.00  0.00     0.000 C 
BRANCH  10  11
HETATM   11  C   UNK     0       6.575  34.932  78.666  0.00  0.00     0.000 C 
HETATM   12  C   UNK     0       6.244  36.207  78.492  0.00  0.00     0.000 C 
BRANCH  12  13
HETATM   13  C   UNK     0       5.205  36.727  79.139  0.00  0.00     0.000 C 
HETATM   14  C   UNK     0       4.302  37.443  78.471  0.00  0.00     0.000 C 
ENDBRANCH  12  13
ENDBRANCH  10  11
ENDBRANCH   8   9
ENDBRANCH   2   7
TORSDOF 5
ENDMDL
MODEL 4
REMARK VINA RESULT:      -4.1     35.387     39.131
REMARK  5 active torsions:
REMARK  status: ('A' for Active; 'I' for Inactive)
REMARK    1  A    between atoms: C_3  and  C_5 
REMARK    2  A    between atoms: C_4  and  C_6 
REMARK    3  A    between atoms: C_7  and  C_10 
REMARK    4  A    between atoms: C_8  and  C_9 
REMARK    5  A    between atoms: C_11  and  C_12 
ROOT
HETATM    1  O   UNK     0       9.216  37.062  79.049  0.00  0.00    -0.189 OA
HETATM    2  C   UNK     0       7.342  35.584  78.089  0.00  0.00     0.029 C 
HETATM    3  C   UNK     0       8.055  36.473  78.778  0.00  0.00     0.150 C 
ENDROOT
BRANCH   3   4
HETATM    4  C   UNK     0       7.457  37.232  79.693  0.00  0.00     0.128 C 
HETATM    5  N   UNK     0       7.656  36.286  80.607  0.00  0.00    -0.146 N 
HETATM    6  C   UNK     0       6.983  38.429  79.368  0.00  0.00     0.025 C 
ENDBRANCH   3   4
BRANCH   2   7
HETATM    7  C   UNK     0       7.940  34.826  77.174  0.00  0.00     0.002 C 
HETATM    8  C   UNK     0       8.310  35.344  76.009  0.00  0.00     0.000 C 
BRANCH   8   9
HETATM    9  C   UNK     0       8.908  34.585  75.095  0.00  0.00     0.000 C 
HETATM   10  C   UNK     0       8.404  33.387  74.800  0.00  0.00     0.000 C 
BRANCH  10  11
HETATM   11  C   UNK     0       9.001  32.627  73.886  0.00  0.00     0.000 C 
HETATM   12  C   UNK     0       9.859  33.161  73.024  0.00  0.00     0.000 C 
BRANCH  12  13
HETATM   13  C   UNK     0      10.456  32.401  72.111  0.00  0.00     0.000 C 
HETATM   14  C   UNK     0      10.476  31.078  72.263  0.00  0.00     0.000 C 
ENDBRANCH  12  13
ENDBRANCH  10  11
ENDBRANCH   8   9
ENDBRANCH   2   7
TORSDOF 5
ENDMDL
MODEL 5
REMARK VINA RESULT:      -4.1     34.658     38.471
REMARK  5 active torsions:
REMARK  status: ('A' for Active; 'I' for Inactive)
REMARK    1  A    between atoms: C_3  and  C_5 
REMARK    2  A    between atoms: C_4  and  C_6 
REMARK    3  A    between atoms: C_7  and  C_10 
REMARK    4  A    between atoms: C_8  and  C_9 
REMARK    5  A    between atoms: C_11  and  C_12 
ROOT
HETATM    1  O   UNK     0       9.460  39.165  78.643  0.00  0.00    -0.189 OA
HETATM    2  C   UNK     0       8.046  37.361  77.474  0.00  0.00     0.029 C 
HETATM    3  C   UNK     0       8.503  38.491  78.013  0.00  0.00     0.150 C 
ENDROOT
BRANCH   3   4
HETATM    4  C   UNK     0       7.745  39.584  77.993  0.00  0.00     0.128 C 
HETATM    5  N   UNK     0       6.762  38.913  78.588  0.00  0.00    -0.146 N 
HETATM    6  C   UNK     0       8.209  40.714  77.472  0.00  0.00     0.025 C 
ENDBRANCH   3   4
BRANCH   2   7
HETATM    7  C   UNK     0       8.804  36.268  77.493  0.00  0.00     0.002 C 
HETATM    8  C   UNK     0      10.000  36.269  76.916  0.00  0.00     0.000 C 
BRANCH   8   9
HETATM    9  C   UNK     0      10.757  35.175  76.936  0.00  0.00     0.000 C 
HETATM   10  C   UNK     0      10.315  34.057  76.362  0.00  0.00     0.000 C 
BRANCH  10  11
HETATM   11  C   UNK     0      11.072  32.963  76.381  0.00  0.00     0.000 C 
HETATM   12  C   UNK     0      12.299  33.003  76.887  0.00  0.00     0.000 C 
BRANCH  12  13
HETATM   13  C   UNK     0      13.055  31.909  76.906  0.00  0.00     0.000 C 
HETATM   14  C   UNK     0      12.487  30.711  76.783  0.00  0.00     0.000 C 
ENDBRANCH  12  13
ENDBRANCH  10  11
ENDBRANCH   8   9
ENDBRANCH   2   7
TORSDOF 5
ENDMDL
