MODEL 1
REMARK VINA RESULT:      -6.7      0.000      0.000
REMARK  5 active torsions:
REMARK  status: ('A' for Active; 'I' for Inactive)
REMARK    1  A    between atoms: C_3  and  C_5 
REMARK    2  A    between atoms: C_4  and  C_6 
REMARK    3  A    between atoms: C_7  and  C_10 
REMARK    4  A    between atoms: C_8  and  C_9 
REMARK    5  A    between atoms: C_11  and  C_12 
ROOT
HETATM    1  O   UNK     0       7.865  -2.433   0.889  0.00  0.00    -0.189 OA
HETATM    2  C   UNK     0       6.388  -3.365   2.779  0.00  0.00     0.029 C 
HETATM    3  C   UNK     0       7.250  -2.662   2.046  0.00  0.00     0.150 C 
ENDROOT
BRANCH   3   4
HETATM    4  C   UNK     0       7.911  -1.648   2.598  0.00  0.00     0.128 C 
HETATM    5  N   UNK     0       8.892  -1.807   1.714  0.00  0.00    -0.146 N 
HETATM    6  C   UNK     0       7.400  -0.999   3.638  0.00  0.00     0.025 C 
ENDBRANCH   3   4
BRANCH   2   7
HETATM    7  C   UNK     0       5.727  -4.379   2.227  0.00  0.00     0.002 C 
HETATM    8  C   UNK     0       4.958  -4.181   1.162  0.00  0.00     0.000 C 
BRANCH   8   9
HETATM    9  C   UNK     0       4.298  -5.196   0.611  0.00  0.00     0.000 C 
HETATM   10  C   UNK     0       2.993  -5.082   0.373  0.00  0.00     0.000 C 
BRANCH  10  11
HETATM   11  C   UNK     0       2.332  -6.096  -0.178  0.00  0.00     0.000 C 
HETATM   12  C   UNK     0       1.093  -5.926  -0.627  0.00  0.00     0.000 C 
BRANCH  12  13
HETATM   13  C   UNK     0       0.432  -6.941  -1.178  0.00  0.00     0.000 C 
HETATM   14  C   UNK     0       1.059  -7.757  -2.023  0.00  0.00     0.000 C 
ENDBRANCH  12  13
ENDBRANCH  10  11
ENDBRANCH   8   9
ENDBRANCH   2   7
TORSDOF 5
ENDMDL
MODEL 2
REMARK VINA RESULT:      -6.6     12.477     16.309
REMARK  5 active torsions:
REMARK  status: ('A' for Active; 'I' for Inactive)
REMARK    1  A    between atoms: C_3  and  C_5 
REMARK    2  A    between atoms: C_4  and  C_6 
REMARK    3  A    between atoms: C_7  and  C_10 
REMARK    4  A    between atoms: C_8  and  C_9 
REMARK    5  A    between atoms: C_11  and  C_12 
ROOT
HETATM    1  O   UNK     0      -9.505  -4.875  -9.434  0.00  0.00    -0.189 OA
HETATM    2  C   UNK     0      -9.796  -5.336  -6.920  0.00  0.00     0.029 C 
HETATM    3  C   UNK     0      -9.990  -5.110  -8.218  0.00  0.00     0.150 C 
ENDROOT
BRANCH   3   4
HETATM    4  C   UNK     0     -11.228  -5.065  -8.702  0.00  0.00     0.128 C 
HETATM    5  N   UNK     0     -11.219  -6.388  -8.846  0.00  0.00    -0.146 N 
HETATM    6  C   UNK     0     -11.861  -3.904  -8.824  0.00  0.00     0.025 C 
ENDBRANCH   3   4
BRANCH   2   7
HETATM    7  C   UNK     0      -8.558  -5.381  -6.436  0.00  0.00     0.002 C 
HETATM    8  C   UNK     0      -7.770  -4.314  -6.505  0.00  0.00     0.000 C 
BRANCH   8   9
HETATM    9  C   UNK     0      -6.532  -4.359  -6.020  0.00  0.00     0.000 C 
HETATM   10  C   UNK     0      -6.099  -3.384  -5.224  0.00  0.00     0.000 C 
BRANCH  10  11
HETATM   11  C   UNK     0      -4.861  -3.428  -4.739  0.00  0.00     0.000 C 
HETATM   12  C   UNK     0      -4.149  -4.547  -4.815  0.00  0.00     0.000 C 
BRANCH  12  13
HETATM   13  C   UNK     0      -2.912  -4.592  -4.330  0.00  0.00     0.000 C 
HETATM   14  C   UNK     0      -1.895  -4.161  -5.074  0.00  0.00     0.000 C 
ENDBRANCH  12  13
ENDBRANCH  10  11
ENDBRANCH   8   9
ENDBRANCH   2   7
TORSDOF 5
ENDMDL
MODEL 3
REMARK VINA RESULT:      -6.4      5.282      7.601
REMARK  5 active torsions:
REMARK  status: ('A' for Active; 'I' for Inactive)
REMARK    1  A    between atoms: C_3  and  C_5 
REMARK    2  A    between atoms: C_4  and  C_6 
REMARK    3  A    between atoms: C_7  and  C_10 
REMARK    4  A    between atoms: C_8  and  C_9 
REMARK    5  A    between atoms: C_11  and  C_12 
ROOT
HETATM    1  O   UNK     0       8.234  -1.300   0.754  0.00  0.00    -0.189 OA
HETATM    2  C   UNK     0       6.920  -1.128   2.958  0.00  0.00     0.029 C 
HETATM    3  C   UNK     0       7.323  -1.057   1.691  0.00  0.00     0.150 C 
ENDROOT
BRANCH   3   4
HETATM    4  C   UNK     0       6.537  -0.491   0.780  0.00  0.00     0.128 C 
HETATM    5  N   UNK     0       6.244  -1.691   0.286  0.00  0.00    -0.146 N 
HETATM    6  C   UNK     0       6.391   0.829   0.744  0.00  0.00     0.025 C 
ENDBRANCH   3   4
BRANCH   2   7
HETATM    7  C   UNK     0       7.706  -1.694   3.870  0.00  0.00     0.002 C 
HETATM    8  C   UNK     0       8.157  -2.931   3.694  0.00  0.00     0.000 C 
BRANCH   8   9
HETATM    9  C   UNK     0       8.943  -3.497   4.605  0.00  0.00     0.000 C 
HETATM   10  C   UNK     0       9.755  -4.491   4.251  0.00  0.00     0.000 C 
BRANCH  10  11
HETATM   11  C   UNK     0      10.541  -5.057   5.162  0.00  0.00     0.000 C 
HETATM   12  C   UNK     0      10.638  -4.540   6.381  0.00  0.00     0.000 C 
BRANCH  12  13
HETATM   13  C   UNK     0      11.424  -5.107   7.293  0.00  0.00     0.000 C 
HETATM   14  C   UNK     0      11.899  -6.333   7.084  0.00  0.00     0.000 C 
ENDBRANCH  12  13
ENDBRANCH  10  11
ENDBRANCH   8   9
ENDBRANCH   2   7
TORSDOF 5
ENDMDL
MODEL 4
REMARK VINA RESULT:      -6.3      3.748      7.566
REMARK  5 active torsions:
REMARK  status: ('A' for Active; 'I' for Inactive)
REMARK    1  A    between atoms: C_3  and  C_5 
REMARK    2  A    between atoms: C_4  and  C_6 
REMARK    3  A    between atoms: C_7  and  C_10 
REMARK    4  A    between atoms: C_8  and  C_9 
REMARK    5  A    between atoms: C_11  and  C_12 
ROOT
HETATM    1  O   UNK     0       1.276  -7.705   1.210  0.00  0.00    -0.189 OA
HETATM    2  C   UNK     0       2.142  -5.793  -0.278  0.00  0.00     0.029 C 
HETATM    3  C   UNK     0       1.508  -6.857   0.212  0.00  0.00     0.150 C 
ENDROOT
BRANCH   3   4
HETATM    4  C   UNK     0       0.640  -7.516  -0.550  0.00  0.00     0.128 C 
HETATM    5  N   UNK     0      -0.042  -7.871   0.535  0.00  0.00    -0.146 N 
HETATM    6  C   UNK     0       0.789  -7.544  -1.870  0.00  0.00     0.025 C 
ENDBRANCH   3   4
BRANCH   2   7
HETATM    7  C   UNK     0       3.010  -5.134   0.484  0.00  0.00     0.002 C 
HETATM    8  C   UNK     0       4.275  -5.534   0.563  0.00  0.00     0.000 C 
BRANCH   8   9
HETATM    9  C   UNK     0       5.142  -4.874   1.325  0.00  0.00     0.000 C 
HETATM   10  C   UNK     0       5.576  -3.674   0.943  0.00  0.00     0.000 C 
BRANCH  10  11
HETATM   11  C   UNK     0       6.444  -3.013   1.705  0.00  0.00     0.000 C 
HETATM   12  C   UNK     0       6.428  -3.161   3.025  0.00  0.00     0.000 C 
BRANCH  12  13
HETATM   13  C   UNK     0       7.296  -2.500   3.786  0.00  0.00     0.000 C 
HETATM   14  C   UNK     0       7.305  -1.168   3.774  0.00  0.00     0.000 C 
ENDBRANCH  12  13
ENDBRANCH  10  11
ENDBRANCH   8   9
ENDBRANCH   2   7
TORSDOF 5
ENDMDL
MODEL 5
REMARK VINA RESULT:      -6.1      1.327      1.548
REMARK  5 active torsions:
REMARK  status: ('A' for Active; 'I' for Inactive)
REMARK    1  A    between atoms: C_3  and  C_5 
REMARK    2  A    between atoms: C_4  and  C_6 
REMARK    3  A    between atoms: C_7  and  C_10 
REMARK    4  A    between atoms: C_8  and  C_9 
REMARK    5  A    between atoms: C_11  and  C_12 
ROOT
HETATM    1  O   UNK     0       8.737  -3.847   0.366  0.00  0.00    -0.189 OA
HETATM    2  C   UNK     0       6.568  -2.769   1.235  0.00  0.00     0.029 C 
HETATM    3  C   UNK     0       7.837  -3.076   0.970  0.00  0.00     0.150 C 
ENDROOT
BRANCH   3   4
HETATM    4  C   UNK     0       8.816  -2.345   1.496  0.00  0.00     0.128 C 
HETATM    5  N   UNK     0       7.981  -1.318   1.623  0.00  0.00    -0.146 N 
HETATM    6  C   UNK     0      10.030  -2.861   1.654  0.00  0.00     0.025 C 
ENDBRANCH   3   4
BRANCH   2   7
HETATM    7  C   UNK     0       5.590  -3.500   0.709  0.00  0.00     0.002 C 
HETATM    8  C   UNK     0       5.430  -4.768   1.069  0.00  0.00     0.000 C 
BRANCH   8   9
HETATM    9  C   UNK     0       4.450  -5.498   0.542  0.00  0.00     0.000 C 
HETATM   10  C   UNK     0       3.200  -5.041   0.567  0.00  0.00     0.000 C 
BRANCH  10  11
HETATM   11  C   UNK     0       2.220  -5.770   0.041  0.00  0.00     0.000 C 
HETATM   12  C   UNK     0       1.146  -5.182  -0.473  0.00  0.00     0.000 C 
BRANCH  12  13
HETATM   13  C   UNK     0       0.166  -5.912  -0.999  0.00  0.00     0.000 C 
HETATM   14  C   UNK     0       0.185  -7.237  -0.867  0.00  0.00     0.000 C 
ENDBRANCH  12  13
ENDBRANCH  10  11
ENDBRANCH   8   9
ENDBRANCH   2   7
TORSDOF 5
ENDMDL
