MODEL 1
REMARK VINA RESULT:      -6.5      0.000      0.000
REMARK  5 active torsions:
REMARK  status: ('A' for Active; 'I' for Inactive)
REMARK    1  A    between atoms: C_3  and  C_5 
REMARK    2  A    between atoms: C_4  and  C_6 
REMARK    3  A    between atoms: C_7  and  C_10 
REMARK    4  A    between atoms: C_8  and  C_9 
REMARK    5  A    between atoms: C_11  and  C_12 
ROOT
HETATM    1  O   UNK     0       6.637  -1.066   0.943  0.00  0.00    -0.189 OA
HETATM    2  C   UNK     0       6.362  -3.269   2.242  0.00  0.00     0.029 C 
HETATM    3  C   UNK     0       6.742  -2.068   1.811  0.00  0.00     0.150 C 
ENDROOT
BRANCH   3   4
HETATM    4  C   UNK     0       7.689  -1.402   2.465  0.00  0.00     0.128 C 
HETATM    5  N   UNK     0       8.469  -1.455   1.389  0.00  0.00    -0.146 N 
HETATM    6  C   UNK     0       7.497  -1.019   3.723  0.00  0.00     0.025 C 
ENDBRANCH   3   4
BRANCH   2   7
HETATM    7  C   UNK     0       5.414  -3.935   1.588  0.00  0.00     0.002 C 
HETATM    8  C   UNK     0       5.484  -5.256   1.463  0.00  0.00     0.000 C 
BRANCH   8   9
HETATM    9  C   UNK     0       4.536  -5.921   0.809  0.00  0.00     0.000 C 
HETATM   10  C   UNK     0       3.431  -5.284   0.422  0.00  0.00     0.000 C 
BRANCH  10  11
HETATM   11  C   UNK     0       2.482  -5.948  -0.232  0.00  0.00     0.000 C 
HETATM   12  C   UNK     0       1.265  -5.433  -0.356  0.00  0.00     0.000 C 
BRANCH  12  13
HETATM   13  C   UNK     0       0.316  -6.097  -1.010  0.00  0.00     0.000 C 
HETATM   14  C   UNK     0       0.638  -7.167  -1.734  0.00  0.00     0.000 C 
ENDBRANCH  12  13
ENDBRANCH  10  11
ENDBRANCH   8   9
ENDBRANCH   2   7
TORSDOF 5
ENDMDL
MODEL 2
REMARK VINA RESULT:      -6.3      3.765      7.449
REMARK  5 active torsions:
REMARK  status: ('A' for Active; 'I' for Inactive)
REMARK    1  A    between atoms: C_3  and  C_5 
REMARK    2  A    between atoms: C_4  and  C_6 
REMARK    3  A    between atoms: C_7  and  C_10 
REMARK    4  A    between atoms: C_8  and  C_9 
REMARK    5  A    between atoms: C_11  and  C_12 
ROOT
HETATM    1  O   UNK     0       1.723  -8.087   0.812  0.00  0.00    -0.189 OA
HETATM    2  C   UNK     0       1.935  -5.773  -0.293  0.00  0.00     0.029 C 
HETATM    3  C   UNK     0       1.611  -7.028   0.016  0.00  0.00     0.150 C 
ENDROOT
BRANCH   3   4
HETATM    4  C   UNK     0       0.760  -7.698  -0.756  0.00  0.00     0.128 C 
HETATM    5  N   UNK     0      -0.079  -7.814   0.269  0.00  0.00    -0.146 N 
HETATM    6  C   UNK     0       1.053  -7.937  -2.030  0.00  0.00     0.025 C 
ENDBRANCH   3   4
BRANCH   2   7
HETATM    7  C   UNK     0       2.786  -5.103   0.480  0.00  0.00     0.002 C 
HETATM    8  C   UNK     0       4.074  -5.425   0.499  0.00  0.00     0.000 C 
BRANCH   8   9
HETATM    9  C   UNK     0       4.924  -4.754   1.271  0.00  0.00     0.000 C 
HETATM   10  C   UNK     0       5.498  -3.644   0.812  0.00  0.00     0.000 C 
BRANCH  10  11
HETATM   11  C   UNK     0       6.348  -2.972   1.583  0.00  0.00     0.000 C 
HETATM   12  C   UNK     0       6.472  -3.277   2.870  0.00  0.00     0.000 C 
BRANCH  12  13
HETATM   13  C   UNK     0       7.322  -2.606   3.642  0.00  0.00     0.000 C 
HETATM   14  C   UNK     0       7.350  -1.275   3.592  0.00  0.00     0.000 C 
ENDBRANCH  12  13
ENDBRANCH  10  11
ENDBRANCH   8   9
ENDBRANCH   2   7
TORSDOF 5
ENDMDL
MODEL 3
REMARK VINA RESULT:      -6.2     12.398     16.368
REMARK  5 active torsions:
REMARK  status: ('A' for Active; 'I' for Inactive)
REMARK    1  A    between atoms: C_3  and  C_5 
REMARK    2  A    between atoms: C_4  and  C_6 
REMARK    3  A    between atoms: C_7  and  C_10 
REMARK    4  A    between atoms: C_8  and  C_9 
REMARK    5  A    between atoms: C_11  and  C_12 
ROOT
HETATM    1  O   UNK     0      -9.745  -5.752  -9.630  0.00  0.00    -0.189 OA
HETATM    2  C   UNK     0      -9.865  -5.131  -7.137  0.00  0.00     0.029 C 
HETATM    3  C   UNK     0     -10.141  -5.390  -8.414  0.00  0.00     0.150 C 
ENDROOT
BRANCH   3   4
HETATM    4  C   UNK     0     -11.391  -5.275  -8.854  0.00  0.00     0.128 C 
HETATM    5  N   UNK     0     -11.443  -6.590  -9.047  0.00  0.00    -0.146 N 
HETATM    6  C   UNK     0     -11.977  -4.085  -8.912  0.00  0.00     0.025 C 
ENDBRANCH   3   4
BRANCH   2   7
HETATM    7  C   UNK     0      -8.615  -5.246  -6.696  0.00  0.00     0.002 C 
HETATM    8  C   UNK     0      -7.699  -4.342  -7.028  0.00  0.00     0.000 C 
BRANCH   8   9
HETATM    9  C   UNK     0      -6.450  -4.458  -6.587  0.00  0.00     0.000 C 
HETATM   10  C   UNK     0      -6.091  -5.540  -5.899  0.00  0.00     0.000 C 
BRANCH  10  11
HETATM   11  C   UNK     0      -4.841  -5.656  -5.457  0.00  0.00     0.000 C 
HETATM   12  C   UNK     0      -4.238  -4.630  -4.868  0.00  0.00     0.000 C 
BRANCH  12  13
HETATM   13  C   UNK     0      -2.989  -4.746  -4.426  0.00  0.00     0.000 C 
HETATM   14  C   UNK     0      -1.995  -4.165  -5.096  0.00  0.00     0.000 C 
ENDBRANCH  12  13
ENDBRANCH  10  11
ENDBRANCH   8   9
ENDBRANCH   2   7
TORSDOF 5
ENDMDL
MODEL 4
REMARK VINA RESULT:      -6.2      5.068      7.568
REMARK  5 active torsions:
REMARK  status: ('A' for Active; 'I' for Inactive)
REMARK    1  A    between atoms: C_3  and  C_5 
REMARK    2  A    between atoms: C_4  and  C_6 
REMARK    3  A    between atoms: C_7  and  C_10 
REMARK    4  A    between atoms: C_8  and  C_9 
REMARK    5  A    between atoms: C_11  and  C_12 
ROOT
HETATM    1  O   UNK     0       8.287  -1.330   0.746  0.00  0.00    -0.189 OA
HETATM    2  C   UNK     0       6.980  -1.363   2.961  0.00  0.00     0.029 C 
HETATM    3  C   UNK     0       7.369  -1.198   1.698  0.00  0.00     0.150 C 
ENDROOT
BRANCH   3   4
HETATM    4  C   UNK     0       6.542  -0.632   0.823  0.00  0.00     0.128 C 
HETATM    5  N   UNK     0       6.219  -1.834   0.352  0.00  0.00    -0.146 N 
HETATM    6  C   UNK     0       6.402   0.688   0.786  0.00  0.00     0.025 C 
ENDBRANCH   3   4
BRANCH   2   7
HETATM    7  C   UNK     0       7.806  -1.929   3.837  0.00  0.00     0.002 C 
HETATM    8  C   UNK     0       8.280  -3.151   3.623  0.00  0.00     0.000 C 
BRANCH   8   9
HETATM    9  C   UNK     0       9.106  -3.715   4.499  0.00  0.00     0.000 C 
HETATM   10  C   UNK     0       9.818  -4.783   4.141  0.00  0.00     0.000 C 
BRANCH  10  11
HETATM   11  C   UNK     0      10.644  -5.348   5.017  0.00  0.00     0.000 C 
HETATM   12  C   UNK     0      10.787  -4.836   6.234  0.00  0.00     0.000 C 
BRANCH  12  13
HETATM   13  C   UNK     0      11.614  -5.401   7.110  0.00  0.00     0.000 C 
HETATM   14  C   UNK     0      12.796  -5.859   6.701  0.00  0.00     0.000 C 
ENDBRANCH  12  13
ENDBRANCH  10  11
ENDBRANCH   8   9
ENDBRANCH   2   7
TORSDOF 5
ENDMDL
MODEL 5
REMARK VINA RESULT:      -6.0     11.011     14.237
REMARK  5 active torsions:
REMARK  status: ('A' for Active; 'I' for Inactive)
REMARK    1  A    between atoms: C_3  and  C_5 
REMARK    2  A    between atoms: C_4  and  C_6 
REMARK    3  A    between atoms: C_7  and  C_10 
REMARK    4  A    between atoms: C_8  and  C_9 
REMARK    5  A    between atoms: C_11  and  C_12 
ROOT
HETATM    1  O   UNK     0      -4.032  -3.025  -6.327  0.00  0.00    -0.189 OA
HETATM    2  C   UNK     0      -4.978  -5.307  -5.608  0.00  0.00     0.029 C 
HETATM    3  C   UNK     0      -4.265  -4.189  -5.726  0.00  0.00     0.150 C 
ENDROOT
BRANCH   3   4
HETATM    4  C   UNK     0      -3.236  -3.974  -4.911  0.00  0.00     0.128 C 
HETATM    5  N   UNK     0      -4.078  -3.683  -3.924  0.00  0.00    -0.146 N 
HETATM    6  C   UNK     0      -1.990  -4.116  -5.350  0.00  0.00     0.025 C 
ENDBRANCH   3   4
BRANCH   2   7
HETATM    7  C   UNK     0      -6.007  -5.522  -6.423  0.00  0.00     0.002 C 
HETATM    8  C   UNK     0      -7.027  -4.672  -6.457  0.00  0.00     0.000 C 
BRANCH   8   9
HETATM    9  C   UNK     0      -8.056  -4.888  -7.272  0.00  0.00     0.000 C 
HETATM   10  C   UNK     0      -9.193  -5.379  -6.783  0.00  0.00     0.000 C 
BRANCH  10  11
HETATM   11  C   UNK     0     -10.222  -5.595  -7.598  0.00  0.00     0.000 C 
HETATM   12  C   UNK     0     -10.822  -4.579  -8.208  0.00  0.00     0.000 C 
BRANCH  12  13
HETATM   13  C   UNK     0     -11.851  -4.795  -9.022  0.00  0.00     0.000 C 
HETATM   14  C   UNK     0     -12.854  -3.920  -9.065  0.00  0.00     0.000 C 
ENDBRANCH  12  13
ENDBRANCH  10  11
ENDBRANCH   8   9
ENDBRANCH   2   7
TORSDOF 5
ENDMDL
