MODEL 1
REMARK VINA RESULT:      -6.7      0.000      0.000
REMARK  5 active torsions:
REMARK  status: ('A' for Active; 'I' for Inactive)
REMARK    1  A    between atoms: C_3  and  C_5 
REMARK    2  A    between atoms: C_4  and  C_6 
REMARK    3  A    between atoms: C_7  and  C_10 
REMARK    4  A    between atoms: C_8  and  C_9 
REMARK    5  A    between atoms: C_11  and  C_12 
ROOT
HETATM    1  O   UNK     0       8.083  -2.619   0.983  0.00  0.00    -0.189 OA
HETATM    2  C   UNK     0       6.343  -3.283   2.759  0.00  0.00     0.029 C 
HETATM    3  C   UNK     0       7.331  -2.705   2.077  0.00  0.00     0.150 C 
ENDROOT
BRANCH   3   4
HETATM    4  C   UNK     0       8.002  -1.693   2.618  0.00  0.00     0.128 C 
HETATM    5  N   UNK     0       9.050  -1.977   1.850  0.00  0.00    -0.146 N 
HETATM    6  C   UNK     0       7.440  -0.937   3.554  0.00  0.00     0.025 C 
ENDBRANCH   3   4
BRANCH   2   7
HETATM    7  C   UNK     0       5.671  -4.295   2.217  0.00  0.00     0.002 C 
HETATM    8  C   UNK     0       4.996  -4.125   1.086  0.00  0.00     0.000 C 
BRANCH   8   9
HETATM    9  C   UNK     0       4.324  -5.138   0.545  0.00  0.00     0.000 C 
HETATM   10  C   UNK     0       3.006  -5.042   0.380  0.00  0.00     0.000 C 
BRANCH  10  11
HETATM   11  C   UNK     0       2.334  -6.054  -0.161  0.00  0.00     0.000 C 
HETATM   12  C   UNK     0       1.083  -5.886  -0.574  0.00  0.00     0.000 C 
BRANCH  12  13
HETATM   13  C   UNK     0       0.410  -6.898  -1.115  0.00  0.00     0.000 C 
HETATM   14  C   UNK     0       1.015  -7.701  -1.989  0.00  0.00     0.000 C 
ENDBRANCH  12  13
ENDBRANCH  10  11
ENDBRANCH   8   9
ENDBRANCH   2   7
TORSDOF 5
ENDMDL
MODEL 2
REMARK VINA RESULT:      -6.6     12.550     16.392
REMARK  5 active torsions:
REMARK  status: ('A' for Active; 'I' for Inactive)
REMARK    1  A    between atoms: C_3  and  C_5 
REMARK    2  A    between atoms: C_4  and  C_6 
REMARK    3  A    between atoms: C_7  and  C_10 
REMARK    4  A    between atoms: C_8  and  C_9 
REMARK    5  A    between atoms: C_11  and  C_12 
ROOT
HETATM    1  O   UNK     0      -9.456  -5.305  -9.366  0.00  0.00    -0.189 OA
HETATM    2  C   UNK     0      -9.923  -5.297  -6.836  0.00  0.00     0.029 C 
HETATM    3  C   UNK     0     -10.024  -5.289  -8.164  0.00  0.00     0.150 C 
ENDROOT
BRANCH   3   4
HETATM    4  C   UNK     0     -11.226  -5.241  -8.733  0.00  0.00     0.128 C 
HETATM    5  N   UNK     0     -11.176  -6.553  -8.946  0.00  0.00    -0.146 N 
HETATM    6  C   UNK     0     -11.876  -4.088  -8.838  0.00  0.00     0.025 C 
ENDBRANCH   3   4
BRANCH   2   7
HETATM    7  C   UNK     0      -8.721  -5.344  -6.267  0.00  0.00     0.002 C 
HETATM    8  C   UNK     0      -7.799  -4.436  -6.567  0.00  0.00     0.000 C 
BRANCH   8   9
HETATM    9  C   UNK     0      -6.598  -4.484  -5.997  0.00  0.00     0.000 C 
HETATM   10  C   UNK     0      -6.166  -3.447  -5.281  0.00  0.00     0.000 C 
BRANCH  10  11
HETATM   11  C   UNK     0      -4.965  -3.494  -4.711  0.00  0.00     0.000 C 
HETATM   12  C   UNK     0      -4.109  -4.461  -5.024  0.00  0.00     0.000 C 
BRANCH  12  13
HETATM   13  C   UNK     0      -2.909  -4.508  -4.454  0.00  0.00     0.000 C 
HETATM   14  C   UNK     0      -1.833  -4.138  -5.148  0.00  0.00     0.000 C 
ENDBRANCH  12  13
ENDBRANCH  10  11
ENDBRANCH   8   9
ENDBRANCH   2   7
TORSDOF 5
ENDMDL
MODEL 3
REMARK VINA RESULT:      -6.3      4.407      7.537
REMARK  5 active torsions:
REMARK  status: ('A' for Active; 'I' for Inactive)
REMARK    1  A    between atoms: C_3  and  C_5 
REMARK    2  A    between atoms: C_4  and  C_6 
REMARK    3  A    between atoms: C_7  and  C_10 
REMARK    4  A    between atoms: C_8  and  C_9 
REMARK    5  A    between atoms: C_11  and  C_12 
ROOT
HETATM    1  O   UNK     0       7.443  -1.936   0.249  0.00  0.00    -0.189 OA
HETATM    2  C   UNK     0       7.004  -0.749   2.489  0.00  0.00     0.029 C 
HETATM    3  C   UNK     0       6.981  -1.154   1.220  0.00  0.00     0.150 C 
ENDROOT
BRANCH   3   4
HETATM    4  C   UNK     0       6.126  -0.598   0.366  0.00  0.00     0.128 C 
HETATM    5  N   UNK     0       6.379   0.598   0.892  0.00  0.00    -0.146 N 
HETATM    6  C   UNK     0       5.477  -1.347  -0.518  0.00  0.00     0.025 C 
ENDBRANCH   3   4
BRANCH   2   7
HETATM    7  C   UNK     0       7.859  -1.305   3.343  0.00  0.00     0.002 C 
HETATM    8  C   UNK     0       7.704  -2.568   3.724  0.00  0.00     0.000 C 
BRANCH   8   9
HETATM    9  C   UNK     0       8.559  -3.123   4.579  0.00  0.00     0.000 C 
HETATM   10  C   UNK     0       9.478  -3.977   4.131  0.00  0.00     0.000 C 
BRANCH  10  11
HETATM   11  C   UNK     0      10.334  -4.532   4.984  0.00  0.00     0.000 C 
HETATM   12  C   UNK     0      10.368  -4.140   6.253  0.00  0.00     0.000 C 
BRANCH  12  13
HETATM   13  C   UNK     0      11.224  -4.695   7.106  0.00  0.00     0.000 C 
HETATM   14  C   UNK     0      11.438  -6.009   7.066  0.00  0.00     0.000 C 
ENDBRANCH  12  13
ENDBRANCH  10  11
ENDBRANCH   8   9
ENDBRANCH   2   7
TORSDOF 5
ENDMDL
MODEL 4
REMARK VINA RESULT:      -6.2      3.674      7.563
REMARK  5 active torsions:
REMARK  status: ('A' for Active; 'I' for Inactive)
REMARK    1  A    between atoms: C_3  and  C_5 
REMARK    2  A    between atoms: C_4  and  C_6 
REMARK    3  A    between atoms: C_7  and  C_10 
REMARK    4  A    between atoms: C_8  and  C_9 
REMARK    5  A    between atoms: C_11  and  C_12 
ROOT
HETATM    1  O   UNK     0       0.250  -4.660  -0.796  0.00  0.00    -0.189 OA
HETATM    2  C   UNK     0       2.305  -6.037  -0.089  0.00  0.00     0.029 C 
HETATM    3  C   UNK     0       1.146  -5.623  -0.598  0.00  0.00     0.150 C 
ENDROOT
BRANCH   3   4
HETATM    4  C   UNK     0       0.381  -6.474  -1.276  0.00  0.00     0.128 C 
HETATM    5  N   UNK     0      -0.535  -5.523  -1.436  0.00  0.00    -0.146 N 
HETATM    6  C   UNK     0       0.784  -7.723  -1.481  0.00  0.00     0.025 C 
ENDBRANCH   3   4
BRANCH   2   7
HETATM    7  C   UNK     0       3.070  -5.186   0.589  0.00  0.00     0.002 C 
HETATM    8  C   UNK     0       4.376  -5.400   0.704  0.00  0.00     0.000 C 
BRANCH   8   9
HETATM    9  C   UNK     0       5.140  -4.548   1.382  0.00  0.00     0.000 C 
HETATM   10  C   UNK     0       5.778  -3.575   0.734  0.00  0.00     0.000 C 
BRANCH  10  11
HETATM   11  C   UNK     0       6.542  -2.723   1.412  0.00  0.00     0.000 C 
HETATM   12  C   UNK     0       6.843  -2.955   2.685  0.00  0.00     0.000 C 
BRANCH  12  13
HETATM   13  C   UNK     0       7.607  -2.102   3.362  0.00  0.00     0.000 C 
HETATM   14  C   UNK     0       7.044  -1.232   4.198  0.00  0.00     0.000 C 
ENDBRANCH  12  13
ENDBRANCH  10  11
ENDBRANCH   8   9
ENDBRANCH   2   7
TORSDOF 5
ENDMDL
MODEL 5
REMARK VINA RESULT:      -6.2      3.820      7.631
REMARK  5 active torsions:
REMARK  status: ('A' for Active; 'I' for Inactive)
REMARK    1  A    between atoms: C_3  and  C_5 
REMARK    2  A    between atoms: C_4  and  C_6 
REMARK    3  A    between atoms: C_7  and  C_10 
REMARK    4  A    between atoms: C_8  and  C_9 
REMARK    5  A    between atoms: C_11  and  C_12 
ROOT
HETATM    1  O   UNK     0       1.260  -7.831   1.083  0.00  0.00    -0.189 OA
HETATM    2  C   UNK     0       1.981  -5.820  -0.351  0.00  0.00     0.029 C 
HETATM    3  C   UNK     0       1.443  -6.951   0.102  0.00  0.00     0.150 C 
ENDROOT
BRANCH   3   4
HETATM    4  C   UNK     0       0.681  -7.688  -0.701  0.00  0.00     0.128 C 
HETATM    5  N   UNK     0      -0.134  -7.953   0.316  0.00  0.00    -0.146 N 
HETATM    6  C   UNK     0       0.998  -7.832  -1.983  0.00  0.00     0.025 C 
ENDBRANCH   3   4
BRANCH   2   7
HETATM    7  C   UNK     0       2.743  -5.083   0.452  0.00  0.00     0.002 C 
HETATM    8  C   UNK     0       4.057  -5.275   0.495  0.00  0.00     0.000 C 
BRANCH   8   9
HETATM    9  C   UNK     0       4.818  -4.538   1.299  0.00  0.00     0.000 C 
HETATM   10  C   UNK     0       6.114  -4.391   1.028  0.00  0.00     0.000 C 
BRANCH  10  11
HETATM   11  C   UNK     0       6.876  -3.654   1.831  0.00  0.00     0.000 C 
HETATM   12  C   UNK     0       6.398  -3.205   2.986  0.00  0.00     0.000 C 
BRANCH  12  13
HETATM   13  C   UNK     0       7.160  -2.468   3.789  0.00  0.00     0.000 C 
HETATM   14  C   UNK     0       7.273  -1.158   3.575  0.00  0.00     0.000 C 
ENDBRANCH  12  13
ENDBRANCH  10  11
ENDBRANCH   8   9
ENDBRANCH   2   7
TORSDOF 5
ENDMDL
