MODEL 1
REMARK VINA RESULT:      -4.2      0.000      0.000
REMARK  5 active torsions:
REMARK  status: ('A' for Active; 'I' for Inactive)
REMARK    1  A    between atoms: C_3  and  C_5 
REMARK    2  A    between atoms: C_4  and  C_6 
REMARK    3  A    between atoms: C_7  and  C_10 
REMARK    4  A    between atoms: C_8  and  C_9 
REMARK    5  A    between atoms: C_11  and  C_12 
ROOT
HETATM    1  O   UNK     0      53.634  29.540  33.454  0.00  0.00    -0.189 OA
HETATM    2  C   UNK     0      53.822  27.074  34.165  0.00  0.00     0.029 C 
HETATM    3  C   UNK     0      54.043  28.295  33.680  0.00  0.00     0.150 C 
ENDROOT
BRANCH   3   4
HETATM    4  C   UNK     0      55.207  28.572  33.099  0.00  0.00     0.128 C 
HETATM    5  N   UNK     0      55.724  28.886  34.284  0.00  0.00    -0.146 N 
HETATM    6  C   UNK     0      55.351  28.443  31.785  0.00  0.00     0.025 C 
ENDBRANCH   3   4
BRANCH   2   7
HETATM    7  C   UNK     0      52.658  26.797  34.745  0.00  0.00     0.002 C 
HETATM    8  C   UNK     0      52.295  27.424  35.859  0.00  0.00     0.000 C 
BRANCH   8   9
HETATM    9  C   UNK     0      51.131  27.146  36.439  0.00  0.00     0.000 C 
HETATM   10  C   UNK     0      50.115  28.000  36.322  0.00  0.00     0.000 C 
BRANCH  10  11
HETATM   11  C   UNK     0      48.950  27.722  36.902  0.00  0.00     0.000 C 
HETATM   12  C   UNK     0      48.894  26.883  37.930  0.00  0.00     0.000 C 
BRANCH  12  13
HETATM   13  C   UNK     0      47.729  26.606  38.509  0.00  0.00     0.000 C 
HETATM   14  C   UNK     0      47.367  25.337  38.689  0.00  0.00     0.000 C 
ENDBRANCH  12  13
ENDBRANCH  10  11
ENDBRANCH   8   9
ENDBRANCH   2   7
TORSDOF 5
ENDMDL
MODEL 2
REMARK VINA RESULT:      -4.0     19.010     19.758
REMARK  5 active torsions:
REMARK  status: ('A' for Active; 'I' for Inactive)
REMARK    1  A    between atoms: C_3  and  C_5 
REMARK    2  A    between atoms: C_4  and  C_6 
REMARK    3  A    between atoms: C_7  and  C_10 
REMARK    4  A    between atoms: C_8  and  C_9 
REMARK    5  A    between atoms: C_11  and  C_12 
ROOT
HETATM    1  O   UNK     0      38.942  42.316  27.876  0.00  0.00    -0.189 OA
HETATM    2  C   UNK     0      38.973  39.785  27.419  0.00  0.00     0.029 C 
HETATM    3  C   UNK     0      39.090  41.109  27.338  0.00  0.00     0.150 C 
ENDROOT
BRANCH   3   4
HETATM    4  C   UNK     0      39.581  41.662  26.232  0.00  0.00     0.128 C 
HETATM    5  N   UNK     0      39.536  42.859  26.811  0.00  0.00    -0.146 N 
HETATM    6  C   UNK     0      39.868  40.910  25.175  0.00  0.00     0.025 C 
ENDBRANCH   3   4
BRANCH   2   7
HETATM    7  C   UNK     0      38.482  39.232  28.524  0.00  0.00     0.002 C 
HETATM    8  C   UNK     0      37.169  39.133  28.700  0.00  0.00     0.000 C 
BRANCH   8   9
HETATM    9  C   UNK     0      36.678  38.580  29.805  0.00  0.00     0.000 C 
HETATM   10  C   UNK     0      35.460  38.041  29.789  0.00  0.00     0.000 C 
BRANCH  10  11
HETATM   11  C   UNK     0      34.969  37.488  30.894  0.00  0.00     0.000 C 
HETATM   12  C   UNK     0      35.654  37.534  32.031  0.00  0.00     0.000 C 
BRANCH  12  13
HETATM   13  C   UNK     0      35.163  36.981  33.137  0.00  0.00     0.000 C 
HETATM   14  C   UNK     0      35.095  35.655  33.238  0.00  0.00     0.000 C 
ENDBRANCH  12  13
ENDBRANCH  10  11
ENDBRANCH   8   9
ENDBRANCH   2   7
TORSDOF 5
ENDMDL
MODEL 3
REMARK VINA RESULT:      -4.0     26.989     29.101
REMARK  5 active torsions:
REMARK  status: ('A' for Active; 'I' for Inactive)
REMARK    1  A    between atoms: C_3  and  C_5 
REMARK    2  A    between atoms: C_4  and  C_6 
REMARK    3  A    between atoms: C_7  and  C_10 
REMARK    4  A    between atoms: C_8  and  C_9 
REMARK    5  A    between atoms: C_11  and  C_12 
ROOT
HETATM    1  O   UNK     0      38.116  28.155  58.984  0.00  0.00    -0.189 OA
HETATM    2  C   UNK     0      40.032  27.211  60.419  0.00  0.00     0.029 C 
HETATM    3  C   UNK     0      39.059  27.390  59.526  0.00  0.00     0.150 C 
ENDROOT
BRANCH   3   4
HETATM    4  C   UNK     0      38.753  26.411  58.679  0.00  0.00     0.128 C 
HETATM    5  N   UNK     0      38.425  27.312  57.757  0.00  0.00    -0.146 N 
HETATM    6  C   UNK     0      38.881  25.141  59.045  0.00  0.00     0.025 C 
ENDBRANCH   3   4
BRANCH   2   7
HETATM    7  C   UNK     0      40.338  28.190  61.266  0.00  0.00     0.002 C 
HETATM    8  C   UNK     0      41.588  28.626  61.366  0.00  0.00     0.000 C 
BRANCH   8   9
HETATM    9  C   UNK     0      41.893  29.604  62.214  0.00  0.00     0.000 C 
HETATM   10  C   UNK     0      40.933  30.410  62.664  0.00  0.00     0.000 C 
BRANCH  10  11
HETATM   11  C   UNK     0      41.237  31.389  63.511  0.00  0.00     0.000 C 
HETATM   12  C   UNK     0      41.202  31.179  64.823  0.00  0.00     0.000 C 
BRANCH  12  13
HETATM   13  C   UNK     0      41.506  32.158  65.670  0.00  0.00     0.000 C 
HETATM   14  C   UNK     0      40.893  33.336  65.566  0.00  0.00     0.000 C 
ENDBRANCH  12  13
ENDBRANCH  10  11
ENDBRANCH   8   9
ENDBRANCH   2   7
TORSDOF 5
ENDMDL
MODEL 4
REMARK VINA RESULT:      -4.0     17.285     18.380
REMARK  5 active torsions:
REMARK  status: ('A' for Active; 'I' for Inactive)
REMARK    1  A    between atoms: C_3  and  C_5 
REMARK    2  A    between atoms: C_4  and  C_6 
REMARK    3  A    between atoms: C_7  and  C_10 
REMARK    4  A    between atoms: C_8  and  C_9 
REMARK    5  A    between atoms: C_11  and  C_12 
ROOT
HETATM    1  O   UNK     0      38.138  41.473  27.491  0.00  0.00    -0.189 OA
HETATM    2  C   UNK     0      39.646  39.389  27.463  0.00  0.00     0.029 C 
HETATM    3  C   UNK     0      38.919  40.456  27.138  0.00  0.00     0.150 C 
ENDROOT
BRANCH   3   4
HETATM    4  C   UNK     0      38.823  40.826  25.863  0.00  0.00     0.128 C 
HETATM    5  N   UNK     0      37.539  40.482  25.860  0.00  0.00    -0.146 N 
HETATM    6  C   UNK     0      39.882  41.309  25.222  0.00  0.00     0.025 C 
ENDBRANCH   3   4
BRANCH   2   7
HETATM    7  C   UNK     0      39.741  39.019  28.737  0.00  0.00     0.002 C 
HETATM    8  C   UNK     0      38.701  38.476  29.359  0.00  0.00     0.000 C 
BRANCH   8   9
HETATM    9  C   UNK     0      38.798  38.106  30.634  0.00  0.00     0.000 C 
HETATM   10  C   UNK     0      39.905  38.386  31.319  0.00  0.00     0.000 C 
BRANCH  10  11
HETATM   11  C   UNK     0      40.002  38.017  32.593  0.00  0.00     0.000 C 
HETATM   12  C   UNK     0      39.337  36.958  33.040  0.00  0.00     0.000 C 
BRANCH  12  13
HETATM   13  C   UNK     0      39.434  36.589  34.314  0.00  0.00     0.000 C 
HETATM   14  C   UNK     0      40.616  36.636  34.926  0.00  0.00     0.000 C 
ENDBRANCH  12  13
ENDBRANCH  10  11
ENDBRANCH   8   9
ENDBRANCH   2   7
TORSDOF 5
ENDMDL
MODEL 5
REMARK VINA RESULT:      -3.9      4.252      8.254
REMARK  5 active torsions:
REMARK  status: ('A' for Active; 'I' for Inactive)
REMARK    1  A    between atoms: C_3  and  C_5 
REMARK    2  A    between atoms: C_4  and  C_6 
REMARK    3  A    between atoms: C_7  and  C_10 
REMARK    4  A    between atoms: C_8  and  C_9 
REMARK    5  A    between atoms: C_11  and  C_12 
ROOT
HETATM    1  O   UNK     0      47.130  24.016  38.708  0.00  0.00    -0.189 OA
HETATM    2  C   UNK     0      47.072  26.519  39.297  0.00  0.00     0.029 C 
HETATM    3  C   UNK     0      46.925  25.196  39.286  0.00  0.00     0.150 C 
ENDROOT
BRANCH   3   4
HETATM    4  C   UNK     0      46.271  24.597  40.277  0.00  0.00     0.128 C 
HETATM    5  N   UNK     0      47.376  23.933  40.606  0.00  0.00    -0.146 N 
HETATM    6  C   UNK     0      44.988  24.865  40.495  0.00  0.00     0.025 C 
ENDBRANCH   3   4
BRANCH   2   7
HETATM    7  C   UNK     0      47.726  27.119  38.306  0.00  0.00     0.002 C 
HETATM    8  C   UNK     0      49.021  26.887  38.118  0.00  0.00     0.000 C 
BRANCH   8   9
HETATM    9  C   UNK     0      49.674  27.487  37.126  0.00  0.00     0.000 C 
HETATM   10  C   UNK     0      50.882  27.051  36.775  0.00  0.00     0.000 C 
BRANCH  10  11
HETATM   11  C   UNK     0      51.537  27.650  35.783  0.00  0.00     0.000 C 
HETATM   12  C   UNK     0      52.776  27.283  35.477  0.00  0.00     0.000 C 
BRANCH  12  13
HETATM   13  C   UNK     0      53.430  27.881  34.486  0.00  0.00     0.000 C 
HETATM   14  C   UNK     0      54.171  27.156  33.650  0.00  0.00     0.000 C 
ENDBRANCH  12  13
ENDBRANCH  10  11
ENDBRANCH   8   9
ENDBRANCH   2   7
TORSDOF 5
ENDMDL
