MODEL 1
REMARK VINA RESULT:      -4.1      0.000      0.000
REMARK  5 active torsions:
REMARK  status: ('A' for Active; 'I' for Inactive)
REMARK    1  A    between atoms: C_3  and  C_5 
REMARK    2  A    between atoms: C_4  and  C_6 
REMARK    3  A    between atoms: C_7  and  C_10 
REMARK    4  A    between atoms: C_8  and  C_9 
REMARK    5  A    between atoms: C_11  and  C_12 
ROOT
HETATM    1  O   UNK     0      37.821  26.826  60.507  0.00  0.00    -0.189 OA
HETATM    2  C   UNK     0      40.361  27.235  60.483  0.00  0.00     0.029 C 
HETATM    3  C   UNK     0      39.128  26.780  60.267  0.00  0.00     0.150 C 
ENDROOT
BRANCH   3   4
HETATM    4  C   UNK     0      38.936  25.780  59.410  0.00  0.00     0.128 C 
HETATM    5  N   UNK     0      38.684  26.658  58.443  0.00  0.00    -0.146 N 
HETATM    6  C   UNK     0      39.055  24.519  59.810  0.00  0.00     0.025 C 
ENDBRANCH   3   4
BRANCH   2   7
HETATM    7  C   UNK     0      40.553  28.234  61.340  0.00  0.00     0.002 C 
HETATM    8  C   UNK     0      41.758  28.778  61.480  0.00  0.00     0.000 C 
BRANCH   8   9
HETATM    9  C   UNK     0      41.949  29.777  62.337  0.00  0.00     0.000 C 
HETATM   10  C   UNK     0      40.919  30.535  62.707  0.00  0.00     0.000 C 
BRANCH  10  11
HETATM   11  C   UNK     0      41.110  31.535  63.563  0.00  0.00     0.000 C 
HETATM   12  C   UNK     0      41.255  31.289  64.861  0.00  0.00     0.000 C 
BRANCH  12  13
HETATM   13  C   UNK     0      41.445  32.289  65.718  0.00  0.00     0.000 C 
HETATM   14  C   UNK     0      40.476  33.180  65.920  0.00  0.00     0.000 C 
ENDBRANCH  12  13
ENDBRANCH  10  11
ENDBRANCH   8   9
ENDBRANCH   2   7
TORSDOF 5
ENDMDL
MODEL 2
REMARK VINA RESULT:      -4.1     44.597     45.667
REMARK  5 active torsions:
REMARK  status: ('A' for Active; 'I' for Inactive)
REMARK    1  A    between atoms: C_3  and  C_5 
REMARK    2  A    between atoms: C_4  and  C_6 
REMARK    3  A    between atoms: C_7  and  C_10 
REMARK    4  A    between atoms: C_8  and  C_9 
REMARK    5  A    between atoms: C_11  and  C_12 
ROOT
HETATM    1  O   UNK     0      28.554  34.014  18.898  0.00  0.00    -0.189 OA
HETATM    2  C   UNK     0      31.107  34.268  18.705  0.00  0.00     0.029 C 
HETATM    3  C   UNK     0      29.804  34.468  18.896  0.00  0.00     0.150 C 
ENDROOT
BRANCH   3   4
HETATM    4  C   UNK     0      29.370  35.665  19.278  0.00  0.00     0.128 C 
HETATM    5  N   UNK     0      28.633  35.096  20.228  0.00  0.00    -0.146 N 
HETATM    6  C   UNK     0      29.785  36.762  18.653  0.00  0.00     0.025 C 
ENDBRANCH   3   4
BRANCH   2   7
HETATM    7  C   UNK     0      31.541  33.070  18.323  0.00  0.00     0.002 C 
HETATM    8  C   UNK     0      31.303  32.629  17.093  0.00  0.00     0.000 C 
BRANCH   8   9
HETATM    9  C   UNK     0      31.738  31.431  16.712  0.00  0.00     0.000 C 
HETATM   10  C   UNK     0      32.907  30.979  17.163  0.00  0.00     0.000 C 
BRANCH  10  11
HETATM   11  C   UNK     0      33.342  29.782  16.783  0.00  0.00     0.000 C 
HETATM   12  C   UNK     0      32.586  29.003  16.016  0.00  0.00     0.000 C 
BRANCH  12  13
HETATM   13  C   UNK     0      33.022  27.806  15.636  0.00  0.00     0.000 C 
HETATM   14  C   UNK     0      33.131  26.827  16.533  0.00  0.00     0.000 C 
ENDBRANCH  12  13
ENDBRANCH  10  11
ENDBRANCH   8   9
ENDBRANCH   2   7
TORSDOF 5
ENDMDL
MODEL 3
REMARK VINA RESULT:      -4.1     32.315     33.783
REMARK  5 active torsions:
REMARK  status: ('A' for Active; 'I' for Inactive)
REMARK    1  A    between atoms: C_3  and  C_5 
REMARK    2  A    between atoms: C_4  and  C_6 
REMARK    3  A    between atoms: C_7  and  C_10 
REMARK    4  A    between atoms: C_8  and  C_9 
REMARK    5  A    between atoms: C_11  and  C_12 
ROOT
HETATM    1  O   UNK     0      37.123  39.898  27.262  0.00  0.00    -0.189 OA
HETATM    2  C   UNK     0      39.526  39.147  27.791  0.00  0.00     0.029 C 
HETATM    3  C   UNK     0      38.439  39.702  27.260  0.00  0.00     0.150 C 
ENDROOT
BRANCH   3   4
HETATM    4  C   UNK     0      38.552  40.478  26.185  0.00  0.00     0.128 C 
HETATM    5  N   UNK     0      37.230  40.468  26.039  0.00  0.00    -0.146 N 
HETATM    6  C   UNK     0      39.748  40.878  25.768  0.00  0.00     0.025 C 
ENDBRANCH   3   4
BRANCH   2   7
HETATM    7  C   UNK     0      39.413  38.371  28.866  0.00  0.00     0.002 C 
HETATM    8  C   UNK     0      39.241  38.909  30.068  0.00  0.00     0.000 C 
BRANCH   8   9
HETATM    9  C   UNK     0      39.128  38.133  31.142  0.00  0.00     0.000 C 
HETATM   10  C   UNK     0      40.024  38.229  32.123  0.00  0.00     0.000 C 
BRANCH  10  11
HETATM   11  C   UNK     0      39.911  37.453  33.197  0.00  0.00     0.000 C 
HETATM   12  C   UNK     0      38.877  36.630  33.327  0.00  0.00     0.000 C 
BRANCH  12  13
HETATM   13  C   UNK     0      38.764  35.854  34.402  0.00  0.00     0.000 C 
HETATM   14  C   UNK     0      39.847  35.560  35.120  0.00  0.00     0.000 C 
ENDBRANCH  12  13
ENDBRANCH  10  11
ENDBRANCH   8   9
ENDBRANCH   2   7
TORSDOF 5
ENDMDL
MODEL 4
REMARK VINA RESULT:      -4.1     25.733     27.716
REMARK  5 active torsions:
REMARK  status: ('A' for Active; 'I' for Inactive)
REMARK    1  A    between atoms: C_3  and  C_5 
REMARK    2  A    between atoms: C_4  and  C_6 
REMARK    3  A    between atoms: C_7  and  C_10 
REMARK    4  A    between atoms: C_8  and  C_9 
REMARK    5  A    between atoms: C_11  and  C_12 
ROOT
HETATM    1  O   UNK     0      53.810  26.045  35.211  0.00  0.00    -0.189 OA
HETATM    2  C   UNK     0      51.896  27.718  35.604  0.00  0.00     0.029 C 
HETATM    3  C   UNK     0      53.016  27.112  35.215  0.00  0.00     0.150 C 
ENDROOT
BRANCH   3   4
HETATM    4  C   UNK     0      53.881  27.759  34.438  0.00  0.00     0.128 C 
HETATM    5  N   UNK     0      54.602  26.648  34.316  0.00  0.00    -0.146 N 
HETATM    6  C   UNK     0      53.697  29.043  34.151  0.00  0.00     0.025 C 
ENDBRANCH   3   4
BRANCH   2   7
HETATM    7  C   UNK     0      51.031  27.071  36.380  0.00  0.00     0.002 C 
HETATM    8  C   UNK     0      50.483  27.678  37.427  0.00  0.00     0.000 C 
BRANCH   8   9
HETATM    9  C   UNK     0      49.618  27.030  38.203  0.00  0.00     0.000 C 
HETATM   10  C   UNK     0      48.316  27.082  37.927  0.00  0.00     0.000 C 
BRANCH  10  11
HETATM   11  C   UNK     0      47.451  26.435  38.702  0.00  0.00     0.000 C 
HETATM   12  C   UNK     0      47.439  25.107  38.733  0.00  0.00     0.000 C 
BRANCH  12  13
HETATM   13  C   UNK     0      46.573  24.459  39.508  0.00  0.00     0.000 C 
HETATM   14  C   UNK     0      45.448  25.062  39.888  0.00  0.00     0.000 C 
ENDBRANCH  12  13
ENDBRANCH  10  11
ENDBRANCH   8   9
ENDBRANCH   2   7
TORSDOF 5
ENDMDL
MODEL 5
REMARK VINA RESULT:      -4.0     32.286     33.962
REMARK  5 active torsions:
REMARK  status: ('A' for Active; 'I' for Inactive)
REMARK    1  A    between atoms: C_3  and  C_5 
REMARK    2  A    between atoms: C_4  and  C_6 
REMARK    3  A    between atoms: C_7  and  C_10 
REMARK    4  A    between atoms: C_8  and  C_9 
REMARK    5  A    between atoms: C_11  and  C_12 
ROOT
HETATM    1  O   UNK     0      37.400  41.479  28.382  0.00  0.00    -0.189 OA
HETATM    2  C   UNK     0      38.079  39.010  28.636  0.00  0.00     0.029 C 
HETATM    3  C   UNK     0      37.977  40.286  28.268  0.00  0.00     0.150 C 
ENDROOT
BRANCH   3   4
HETATM    4  C   UNK     0      38.783  40.767  27.325  0.00  0.00     0.128 C 
HETATM    5  N   UNK     0      37.933  40.355  26.388  0.00  0.00    -0.146 N 
HETATM    6  C   UNK     0      39.923  41.364  27.655  0.00  0.00     0.025 C 
ENDBRANCH   3   4
BRANCH   2   7
HETATM    7  C   UNK     0      37.273  38.529  29.579  0.00  0.00     0.002 C 
HETATM    8  C   UNK     0      36.018  38.206  29.289  0.00  0.00     0.000 C 
BRANCH   8   9
HETATM    9  C   UNK     0      35.213  37.726  30.233  0.00  0.00     0.000 C 
HETATM   10  C   UNK     0      35.547  37.857  31.515  0.00  0.00     0.000 C 
BRANCH  10  11
HETATM   11  C   UNK     0      34.743  37.377  32.459  0.00  0.00     0.000 C 
HETATM   12  C   UNK     0      34.999  36.204  33.028  0.00  0.00     0.000 C 
BRANCH  12  13
HETATM   13  C   UNK     0      34.194  35.724  33.972  0.00  0.00     0.000 C 
HETATM   14  C   UNK     0      32.964  36.215  34.104  0.00  0.00     0.000 C 
ENDBRANCH  12  13
ENDBRANCH  10  11
ENDBRANCH   8   9
ENDBRANCH   2   7
TORSDOF 5
ENDMDL
