MODEL 1
REMARK VINA RESULT:      -4.1      0.000      0.000
REMARK  5 active torsions:
REMARK  status: ('A' for Active; 'I' for Inactive)
REMARK    1  A    between atoms: C_3  and  C_5 
REMARK    2  A    between atoms: C_4  and  C_6 
REMARK    3  A    between atoms: C_7  and  C_10 
REMARK    4  A    between atoms: C_8  and  C_9 
REMARK    5  A    between atoms: C_11  and  C_12 
ROOT
HETATM    1  O   UNK     0      36.933  40.057  28.271  0.00  0.00    -0.189 OA
HETATM    2  C   UNK     0      34.723  38.739  28.283  0.00  0.00     0.029 C 
HETATM    3  C   UNK     0      35.715  39.588  28.016  0.00  0.00     0.150 C 
ENDROOT
BRANCH   3   4
HETATM    4  C   UNK     0      35.578  40.474  27.034  0.00  0.00     0.128 C 
HETATM    5  N   UNK     0      36.652  39.971  26.431  0.00  0.00    -0.146 N 
HETATM    6  C   UNK     0      34.584  41.354  27.056  0.00  0.00     0.025 C 
ENDBRANCH   3   4
BRANCH   2   7
HETATM    7  C   UNK     0      34.860  37.853  29.266  0.00  0.00     0.002 C 
HETATM    8  C   UNK     0      34.994  38.259  30.523  0.00  0.00     0.000 C 
BRANCH   8   9
HETATM    9  C   UNK     0      35.130  37.372  31.505  0.00  0.00     0.000 C 
HETATM   10  C   UNK     0      34.519  37.578  32.670  0.00  0.00     0.000 C 
BRANCH  10  11
HETATM   11  C   UNK     0      34.655  36.692  33.653  0.00  0.00     0.000 C 
HETATM   12  C   UNK     0      34.733  35.394  33.381  0.00  0.00     0.000 C 
BRANCH  12  13
HETATM   13  C   UNK     0      34.869  34.508  34.364  0.00  0.00     0.000 C 
HETATM   14  C   UNK     0      35.352  33.296  34.098  0.00  0.00     0.000 C 
ENDBRANCH  12  13
ENDBRANCH  10  11
ENDBRANCH   8   9
ENDBRANCH   2   7
TORSDOF 5
ENDMDL
MODEL 2
REMARK VINA RESULT:      -4.1     32.970     34.067
REMARK  5 active torsions:
REMARK  status: ('A' for Active; 'I' for Inactive)
REMARK    1  A    between atoms: C_3  and  C_5 
REMARK    2  A    between atoms: C_4  and  C_6 
REMARK    3  A    between atoms: C_7  and  C_10 
REMARK    4  A    between atoms: C_8  and  C_9 
REMARK    5  A    between atoms: C_11  and  C_12 
ROOT
HETATM    1  O   UNK     0      39.734  31.182  65.236  0.00  0.00    -0.189 OA
HETATM    2  C   UNK     0      41.152  31.389  63.100  0.00  0.00     0.029 C 
HETATM    3  C   UNK     0      40.545  31.596  64.267  0.00  0.00     0.150 C 
ENDROOT
BRANCH   3   4
HETATM    4  C   UNK     0      40.741  32.739  64.919  0.00  0.00     0.128 C 
HETATM    5  N   UNK     0      41.413  32.084  65.863  0.00  0.00    -0.146 N 
HETATM    6  C   UNK     0      40.263  33.880  64.437  0.00  0.00     0.025 C 
ENDBRANCH   3   4
BRANCH   2   7
HETATM    7  C   UNK     0      40.955  30.247  62.447  0.00  0.00     0.002 C 
HETATM    8  C   UNK     0      41.989  29.534  62.013  0.00  0.00     0.000 C 
BRANCH   8   9
HETATM    9  C   UNK     0      41.791  28.392  61.361  0.00  0.00     0.000 C 
HETATM   10  C   UNK     0      40.557  28.043  61.001  0.00  0.00     0.000 C 
BRANCH  10  11
HETATM   11  C   UNK     0      40.358  26.902  60.348  0.00  0.00     0.000 C 
HETATM   12  C   UNK     0      39.142  26.373  60.272  0.00  0.00     0.000 C 
BRANCH  12  13
HETATM   13  C   UNK     0      38.943  25.231  59.620  0.00  0.00     0.000 C 
HETATM   14  C   UNK     0      39.557  24.122  60.028  0.00  0.00     0.000 C 
ENDBRANCH  12  13
ENDBRANCH  10  11
ENDBRANCH   8   9
ENDBRANCH   2   7
TORSDOF 5
ENDMDL
MODEL 3
REMARK VINA RESULT:      -4.0     19.114     20.570
REMARK  5 active torsions:
REMARK  status: ('A' for Active; 'I' for Inactive)
REMARK    1  A    between atoms: C_3  and  C_5 
REMARK    2  A    between atoms: C_4  and  C_6 
REMARK    3  A    between atoms: C_7  and  C_10 
REMARK    4  A    between atoms: C_8  and  C_9 
REMARK    5  A    between atoms: C_11  and  C_12 
ROOT
HETATM    1  O   UNK     0      47.092  25.408  42.026  0.00  0.00    -0.189 OA
HETATM    2  C   UNK     0      46.283  24.932  39.630  0.00  0.00     0.029 C 
HETATM    3  C   UNK     0      46.380  25.085  40.950  0.00  0.00     0.150 C 
ENDROOT
BRANCH   3   4
HETATM    4  C   UNK     0      45.329  24.826  41.723  0.00  0.00     0.128 C 
HETATM    5  N   UNK     0      46.104  24.117  42.539  0.00  0.00    -0.146 N 
HETATM    6  C   UNK     0      44.130  25.306  41.411  0.00  0.00     0.025 C 
ENDBRANCH   3   4
BRANCH   2   7
HETATM    7  C   UNK     0      47.334  25.191  38.857  0.00  0.00     0.002 C 
HETATM    8  C   UNK     0      47.801  26.430  38.749  0.00  0.00     0.000 C 
BRANCH   8   9
HETATM    9  C   UNK     0      48.852  26.688  37.976  0.00  0.00     0.000 C 
HETATM   10  C   UNK     0      48.804  27.703  37.115  0.00  0.00     0.000 C 
BRANCH  10  11
HETATM   11  C   UNK     0      49.855  27.961  36.342  0.00  0.00     0.000 C 
HETATM   12  C   UNK     0      50.978  27.264  36.477  0.00  0.00     0.000 C 
BRANCH  12  13
HETATM   13  C   UNK     0      52.028  27.523  35.703  0.00  0.00     0.000 C 
HETATM   14  C   UNK     0      52.521  28.759  35.650  0.00  0.00     0.000 C 
ENDBRANCH  12  13
ENDBRANCH  10  11
ENDBRANCH   8   9
ENDBRANCH   2   7
TORSDOF 5
ENDMDL
MODEL 4
REMARK VINA RESULT:      -4.0     20.649     21.255
REMARK  5 active torsions:
REMARK  status: ('A' for Active; 'I' for Inactive)
REMARK    1  A    between atoms: C_3  and  C_5 
REMARK    2  A    between atoms: C_4  and  C_6 
REMARK    3  A    between atoms: C_7  and  C_10 
REMARK    4  A    between atoms: C_8  and  C_9 
REMARK    5  A    between atoms: C_11  and  C_12 
ROOT
HETATM    1  O   UNK     0      57.938  31.484  28.449  0.00  0.00    -0.189 OA
HETATM    2  C   UNK     0      56.433  30.131  26.861  0.00  0.00     0.029 C 
HETATM    3  C   UNK     0      57.459  30.722  27.470  0.00  0.00     0.150 C 
ENDROOT
BRANCH   3   4
HETATM    4  C   UNK     0      58.688  30.576  26.983  0.00  0.00     0.128 C 
HETATM    5  N   UNK     0      59.189  30.704  28.208  0.00  0.00    -0.146 N 
HETATM    6  C   UNK     0      58.877  30.392  25.681  0.00  0.00     0.025 C 
ENDBRANCH   3   4
BRANCH   2   7
HETATM    7  C   UNK     0      55.204  30.277  27.349  0.00  0.00     0.002 C 
HETATM    8  C   UNK     0      54.616  31.468  27.346  0.00  0.00     0.000 C 
BRANCH   8   9
HETATM    9  C   UNK     0      53.387  31.613  27.834  0.00  0.00     0.000 C 
HETATM   10  C   UNK     0      52.380  31.896  27.010  0.00  0.00     0.000 C 
BRANCH  10  11
HETATM   11  C   UNK     0      51.150  32.041  27.497  0.00  0.00     0.000 C 
HETATM   12  C   UNK     0      50.163  31.259  27.075  0.00  0.00     0.000 C 
BRANCH  12  13
HETATM   13  C   UNK     0      48.934  31.404  27.562  0.00  0.00     0.000 C 
HETATM   14  C   UNK     0      48.710  32.279  28.540  0.00  0.00     0.000 C 
ENDBRANCH  12  13
ENDBRANCH  10  11
ENDBRANCH   8   9
ENDBRANCH   2   7
TORSDOF 5
ENDMDL
MODEL 5
REMARK VINA RESULT:      -3.9     13.349     15.072
REMARK  5 active torsions:
REMARK  status: ('A' for Active; 'I' for Inactive)
REMARK    1  A    between atoms: C_3  and  C_5 
REMARK    2  A    between atoms: C_4  and  C_6 
REMARK    3  A    between atoms: C_7  and  C_10 
REMARK    4  A    between atoms: C_8  and  C_9 
REMARK    5  A    between atoms: C_11  and  C_12 
ROOT
HETATM    1  O   UNK     0      28.830  33.552  20.233  0.00  0.00    -0.189 OA
HETATM    2  C   UNK     0      30.575  34.502  18.598  0.00  0.00     0.029 C 
HETATM    3  C   UNK     0      29.591  34.343  19.481  0.00  0.00     0.150 C 
ENDROOT
BRANCH   3   4
HETATM    4  C   UNK     0      28.941  35.407  19.943  0.00  0.00     0.128 C 
HETATM    5  N   UNK     0      28.150  34.613  20.660  0.00  0.00    -0.146 N 
HETATM    6  C   UNK     0      29.294  36.629  19.560  0.00  0.00     0.025 C 
ENDBRANCH   3   4
BRANCH   2   7
HETATM    7  C   UNK     0      31.224  33.437  18.135  0.00  0.00     0.002 C 
HETATM    8  C   UNK     0      30.975  32.974  16.915  0.00  0.00     0.000 C 
BRANCH   8   9
HETATM    9  C   UNK     0      31.625  31.910  16.454  0.00  0.00     0.000 C 
HETATM   10  C   UNK     0      32.480  31.264  17.246  0.00  0.00     0.000 C 
BRANCH  10  11
HETATM   11  C   UNK     0      33.130  30.200  16.785  0.00  0.00     0.000 C 
HETATM   12  C   UNK     0      32.487  29.057  16.576  0.00  0.00     0.000 C 
BRANCH  12  13
HETATM   13  C   UNK     0      33.137  27.992  16.116  0.00  0.00     0.000 C 
HETATM   14  C   UNK     0      33.016  27.646  14.836  0.00  0.00     0.000 C 
ENDBRANCH  12  13
ENDBRANCH  10  11
ENDBRANCH   8   9
ENDBRANCH   2   7
TORSDOF 5
ENDMDL
