MODEL 1
REMARK VINA RESULT:      -5.8      0.000      0.000
REMARK  5 active torsions:
REMARK  status: ('A' for Active; 'I' for Inactive)
REMARK    1  A    between atoms: C_3  and  C_5 
REMARK    2  A    between atoms: C_4  and  C_6 
REMARK    3  A    between atoms: C_7  and  C_10 
REMARK    4  A    between atoms: C_8  and  C_9 
REMARK    5  A    between atoms: C_11  and  C_12 
ROOT
HETATM    1  O   UNK     0      26.530   7.788  13.853  0.00  0.00    -0.189 OA
HETATM    2  C   UNK     0      26.250  10.056  12.672  0.00  0.00     0.029 C 
HETATM    3  C   UNK     0      26.692   8.879  13.110  0.00  0.00     0.150 C 
ENDROOT
BRANCH   3   4
HETATM    4  C   UNK     0      27.867   8.418  12.690  0.00  0.00     0.128 C 
HETATM    5  N   UNK     0      28.467   9.012  13.719  0.00  0.00    -0.146 N 
HETATM    6  C   UNK     0      27.945   7.674  11.593  0.00  0.00     0.025 C 
ENDBRANCH   3   4
BRANCH   2   7
HETATM    7  C   UNK     0      25.075  10.517  13.092  0.00  0.00     0.002 C 
HETATM    8  C   UNK     0      25.007  11.331  14.139  0.00  0.00     0.000 C 
BRANCH   8   9
HETATM    9  C   UNK     0      23.831  11.791  14.558  0.00  0.00     0.000 C 
HETATM   10  C   UNK     0      22.708  11.217  14.131  0.00  0.00     0.000 C 
BRANCH  10  11
HETATM   11  C   UNK     0      21.532  11.677  14.550  0.00  0.00     0.000 C 
HETATM   12  C   UNK     0      21.467  12.542  15.556  0.00  0.00     0.000 C 
BRANCH  12  13
HETATM   13  C   UNK     0      20.291  13.001  15.974  0.00  0.00     0.000 C 
HETATM   14  C   UNK     0      19.734  12.489  17.070  0.00  0.00     0.000 C 
ENDBRANCH  12  13
ENDBRANCH  10  11
ENDBRANCH   8   9
ENDBRANCH   2   7
TORSDOF 5
ENDMDL
MODEL 2
REMARK VINA RESULT:      -5.0     33.037     36.163
REMARK  5 active torsions:
REMARK  status: ('A' for Active; 'I' for Inactive)
REMARK    1  A    between atoms: C_3  and  C_5 
REMARK    2  A    between atoms: C_4  and  C_6 
REMARK    3  A    between atoms: C_7  and  C_10 
REMARK    4  A    between atoms: C_8  and  C_9 
REMARK    5  A    between atoms: C_11  and  C_12 
ROOT
HETATM    1  O   UNK     0      13.974  43.532  29.089  0.00  0.00    -0.189 OA
HETATM    2  C   UNK     0      14.867  44.032  26.729  0.00  0.00     0.029 C 
HETATM    3  C   UNK     0      14.220  44.058  27.893  0.00  0.00     0.150 C 
ENDROOT
BRANCH   3   4
HETATM    4  C   UNK     0      13.349  45.032  28.142  0.00  0.00     0.128 C 
HETATM    5  N   UNK     0      14.327  45.776  28.651  0.00  0.00    -0.146 N 
HETATM    6  C   UNK     0      12.067  44.884  27.829  0.00  0.00     0.025 C 
ENDBRANCH   3   4
BRANCH   2   7
HETATM    7  C   UNK     0      15.737  43.057  26.480  0.00  0.00     0.002 C 
HETATM    8  C   UNK     0      17.028  43.226  26.744  0.00  0.00     0.000 C 
BRANCH   8   9
HETATM    9  C   UNK     0      17.898  42.251  26.494  0.00  0.00     0.000 C 
HETATM   10  C   UNK     0      17.460  41.008  26.304  0.00  0.00     0.000 C 
BRANCH  10  11
HETATM   11  C   UNK     0      18.329  40.033  26.055  0.00  0.00     0.000 C 
HETATM   12  C   UNK     0      19.252  40.179  25.111  0.00  0.00     0.000 C 
BRANCH  12  13
HETATM   13  C   UNK     0      20.121  39.204  24.862  0.00  0.00     0.000 C 
HETATM   14  C   UNK     0      21.099  38.953  25.731  0.00  0.00     0.000 C 
ENDBRANCH  12  13
ENDBRANCH  10  11
ENDBRANCH   8   9
ENDBRANCH   2   7
TORSDOF 5
ENDMDL
MODEL 3
REMARK VINA RESULT:      -4.9     16.952     21.328
REMARK  5 active torsions:
REMARK  status: ('A' for Active; 'I' for Inactive)
REMARK    1  A    between atoms: C_3  and  C_5 
REMARK    2  A    between atoms: C_4  and  C_6 
REMARK    3  A    between atoms: C_7  and  C_10 
REMARK    4  A    between atoms: C_8  and  C_9 
REMARK    5  A    between atoms: C_11  and  C_12 
ROOT
HETATM    1  O   UNK     0       6.918  20.445  21.959  0.00  0.00    -0.189 OA
HETATM    2  C   UNK     0       6.013  21.471  19.780  0.00  0.00     0.029 C 
HETATM    3  C   UNK     0       6.218  21.112  21.046  0.00  0.00     0.150 C 
ENDROOT
BRANCH   3   4
HETATM    4  C   UNK     0       5.403  21.559  21.998  0.00  0.00     0.128 C 
HETATM    5  N   UNK     0       6.282  21.187  22.925  0.00  0.00    -0.146 N 
HETATM    6  C   UNK     0       4.234  22.105  21.681  0.00  0.00     0.025 C 
ENDBRANCH   3   4
BRANCH   2   7
HETATM    7  C   UNK     0       6.828  21.024  18.828  0.00  0.00     0.002 C 
HETATM    8  C   UNK     0       6.735  21.493  17.589  0.00  0.00     0.000 C 
BRANCH   8   9
HETATM    9  C   UNK     0       7.551  21.046  16.638  0.00  0.00     0.000 C 
HETATM   10  C   UNK     0       8.599  20.294  16.968  0.00  0.00     0.000 C 
BRANCH  10  11
HETATM   11  C   UNK     0       9.414  19.846  16.018  0.00  0.00     0.000 C 
HETATM   12  C   UNK     0      10.033  18.678  16.157  0.00  0.00     0.000 C 
BRANCH  12  13
HETATM   13  C   UNK     0      10.848  18.231  15.207  0.00  0.00     0.000 C 
HETATM   14  C   UNK     0      10.877  16.931  14.919  0.00  0.00     0.000 C 
ENDBRANCH  12  13
ENDBRANCH  10  11
ENDBRANCH   8   9
ENDBRANCH   2   7
TORSDOF 5
ENDMDL
MODEL 4
REMARK VINA RESULT:      -4.6     31.261     34.213
REMARK  5 active torsions:
REMARK  status: ('A' for Active; 'I' for Inactive)
REMARK    1  A    between atoms: C_3  and  C_5 
REMARK    2  A    between atoms: C_4  and  C_6 
REMARK    3  A    between atoms: C_7  and  C_10 
REMARK    4  A    between atoms: C_8  and  C_9 
REMARK    5  A    between atoms: C_11  and  C_12 
ROOT
HETATM    1  O   UNK     0      17.449  44.082  27.395  0.00  0.00    -0.189 OA
HETATM    2  C   UNK     0      16.719  41.877  26.287  0.00  0.00     0.029 C 
HETATM    3  C   UNK     0      16.760  43.088  26.842  0.00  0.00     0.150 C 
ENDROOT
BRANCH   3   4
HETATM    4  C   UNK     0      15.636  43.784  26.988  0.00  0.00     0.128 C 
HETATM    5  N   UNK     0      15.021  42.696  27.441  0.00  0.00    -0.146 N 
HETATM    6  C   UNK     0      15.599  45.074  26.673  0.00  0.00     0.025 C 
ENDBRANCH   3   4
BRANCH   2   7
HETATM    7  C   UNK     0      17.842  41.181  26.141  0.00  0.00     0.002 C 
HETATM    8  C   UNK     0      17.926  39.936  26.597  0.00  0.00     0.000 C 
BRANCH   8   9
HETATM    9  C   UNK     0      19.050  39.240  26.450  0.00  0.00     0.000 C 
HETATM   10  C   UNK     0      20.017  39.708  25.662  0.00  0.00     0.000 C 
BRANCH  10  11
HETATM   11  C   UNK     0      21.142  39.013  25.514  0.00  0.00     0.000 C 
HETATM   12  C   UNK     0      21.729  38.452  26.566  0.00  0.00     0.000 C 
BRANCH  12  13
HETATM   13  C   UNK     0      22.853  37.757  26.418  0.00  0.00     0.000 C 
HETATM   14  C   UNK     0      23.360  37.093  27.455  0.00  0.00     0.000 C 
ENDBRANCH  12  13
ENDBRANCH  10  11
ENDBRANCH   8   9
ENDBRANCH   2   7
TORSDOF 5
ENDMDL
MODEL 5
REMARK VINA RESULT:      -4.4     29.849     31.191
REMARK  5 active torsions:
REMARK  status: ('A' for Active; 'I' for Inactive)
REMARK    1  A    between atoms: C_3  and  C_5 
REMARK    2  A    between atoms: C_4  and  C_6 
REMARK    3  A    between atoms: C_7  and  C_10 
REMARK    4  A    between atoms: C_8  and  C_9 
REMARK    5  A    between atoms: C_11  and  C_12 
ROOT
HETATM    1  O   UNK     0      24.652  37.884  29.845  0.00  0.00    -0.189 OA
HETATM    2  C   UNK     0      23.965  36.905  27.567  0.00  0.00     0.029 C 
HETATM    3  C   UNK     0      24.621  37.261  28.670  0.00  0.00     0.150 C 
ENDROOT
BRANCH   3   4
HETATM    4  C   UNK     0      25.887  36.887  28.835  0.00  0.00     0.128 C 
HETATM    5  N   UNK     0      25.927  37.535  29.996  0.00  0.00    -0.146 N 
HETATM    6  C   UNK     0      26.492  36.141  27.918  0.00  0.00     0.025 C 
ENDBRANCH   3   4
BRANCH   2   7
HETATM    7  C   UNK     0      22.700  37.279  27.402  0.00  0.00     0.002 C 
HETATM    8  C   UNK     0      22.387  38.228  26.527  0.00  0.00     0.000 C 
BRANCH   8   9
HETATM    9  C   UNK     0      21.121  38.601  26.363  0.00  0.00     0.000 C 
HETATM   10  C   UNK     0      20.762  39.247  25.255  0.00  0.00     0.000 C 
BRANCH  10  11
HETATM   11  C   UNK     0      19.496  39.620  25.090  0.00  0.00     0.000 C 
HETATM   12  C   UNK     0      18.935  40.484  25.929  0.00  0.00     0.000 C 
BRANCH  12  13
HETATM   13  C   UNK     0      17.669  40.857  25.765  0.00  0.00     0.000 C 
HETATM   14  C   UNK     0      17.176  41.858  26.491  0.00  0.00     0.000 C 
ENDBRANCH  12  13
ENDBRANCH  10  11
ENDBRANCH   8   9
ENDBRANCH   2   7
TORSDOF 5
ENDMDL
