MODEL 1
REMARK VINA RESULT:      -7.4      0.000      0.000
REMARK  5 active torsions:
REMARK  status: ('A' for Active; 'I' for Inactive)
REMARK    1  A    between atoms: C_3  and  C_5 
REMARK    2  A    between atoms: C_4  and  C_6 
REMARK    3  A    between atoms: C_7  and  C_10 
REMARK    4  A    between atoms: C_8  and  C_9 
REMARK    5  A    between atoms: C_11  and  C_12 
ROOT
HETATM    1  O   UNK     0      15.094  12.528  17.514  0.00  0.00    -0.189 OA
HETATM    2  C   UNK     0      17.190  12.770  18.986  0.00  0.00     0.029 C 
HETATM    3  C   UNK     0      15.947  12.758  18.508  0.00  0.00     0.150 C 
ENDROOT
BRANCH   3   4
HETATM    4  C   UNK     0      14.937  13.136  19.287  0.00  0.00     0.128 C 
HETATM    5  N   UNK     0      15.546  14.297  19.512  0.00  0.00    -0.146 N 
HETATM    6  C   UNK     0      13.902  12.327  19.486  0.00  0.00     0.025 C 
ENDBRANCH   3   4
BRANCH   2   7
HETATM    7  C   UNK     0      18.200  12.392  18.207  0.00  0.00     0.002 C 
HETATM    8  C   UNK     0      19.369  13.018  18.270  0.00  0.00     0.000 C 
BRANCH   8   9
HETATM    9  C   UNK     0      20.378  12.640  17.491  0.00  0.00     0.000 C 
HETATM   10  C   UNK     0      20.372  12.964  16.199  0.00  0.00     0.000 C 
BRANCH  10  11
HETATM   11  C   UNK     0      21.381  12.585  15.419  0.00  0.00     0.000 C 
HETATM   12  C   UNK     0      21.223  11.593  14.550  0.00  0.00     0.000 C 
BRANCH  12  13
HETATM   13  C   UNK     0      22.232  11.215  13.770  0.00  0.00     0.000 C 
HETATM   14  C   UNK     0      23.476  11.576  14.078  0.00  0.00     0.000 C 
ENDBRANCH  12  13
ENDBRANCH  10  11
ENDBRANCH   8   9
ENDBRANCH   2   7
TORSDOF 5
ENDMDL
MODEL 2
REMARK VINA RESULT:      -7.4      1.401      2.250
REMARK  5 active torsions:
REMARK  status: ('A' for Active; 'I' for Inactive)
REMARK    1  A    between atoms: C_3  and  C_5 
REMARK    2  A    between atoms: C_4  and  C_6 
REMARK    3  A    between atoms: C_7  and  C_10 
REMARK    4  A    between atoms: C_8  and  C_9 
REMARK    5  A    between atoms: C_11  and  C_12 
ROOT
HETATM    1  O   UNK     0      17.167  11.641  17.300  0.00  0.00    -0.189 OA
HETATM    2  C   UNK     0      19.025  13.035  18.405  0.00  0.00     0.029 C 
HETATM    3  C   UNK     0      17.871  12.457  18.080  0.00  0.00     0.150 C 
ENDROOT
BRANCH   3   4
HETATM    4  C   UNK     0      16.777  12.723  18.789  0.00  0.00     0.128 C 
HETATM    5  N   UNK     0      16.035  12.100  17.877  0.00  0.00    -0.146 N 
HETATM    6  C   UNK     0      16.863  13.393  19.932  0.00  0.00     0.025 C 
ENDBRANCH   3   4
BRANCH   2   7
HETATM    7  C   UNK     0      20.119  12.770  17.696  0.00  0.00     0.002 C 
HETATM    8  C   UNK     0      20.104  12.876  16.372  0.00  0.00     0.000 C 
BRANCH   8   9
HETATM    9  C   UNK     0      21.198  12.610  15.664  0.00  0.00     0.000 C 
HETATM   10  C   UNK     0      21.149  11.703  14.690  0.00  0.00     0.000 C 
BRANCH  10  11
HETATM   11  C   UNK     0      22.243  11.436  13.982  0.00  0.00     0.000 C 
HETATM   12  C   UNK     0      23.447  11.678  14.487  0.00  0.00     0.000 C 
BRANCH  12  13
HETATM   13  C   UNK     0      24.541  11.412  13.778  0.00  0.00     0.000 C 
HETATM   14  C   UNK     0      25.651  11.019  14.400  0.00  0.00     0.000 C 
ENDBRANCH  12  13
ENDBRANCH  10  11
ENDBRANCH   8   9
ENDBRANCH   2   7
TORSDOF 5
ENDMDL
MODEL 3
REMARK VINA RESULT:      -6.5      2.341      3.462
REMARK  5 active torsions:
REMARK  status: ('A' for Active; 'I' for Inactive)
REMARK    1  A    between atoms: C_3  and  C_5 
REMARK    2  A    between atoms: C_4  and  C_6 
REMARK    3  A    between atoms: C_7  and  C_10 
REMARK    4  A    between atoms: C_8  and  C_9 
REMARK    5  A    between atoms: C_11  and  C_12 
ROOT
HETATM    1  O   UNK     0      17.614  11.430  15.137  0.00  0.00    -0.189 OA
HETATM    2  C   UNK     0      19.389  12.548  16.627  0.00  0.00     0.029 C 
HETATM    3  C   UNK     0      18.255  12.101  16.090  0.00  0.00     0.150 C 
ENDROOT
BRANCH   3   4
HETATM    4  C   UNK     0      17.094  12.377  16.677  0.00  0.00     0.128 C 
HETATM    5  N   UNK     0      17.571  11.925  17.833  0.00  0.00    -0.146 N 
HETATM    6  C   UNK     0      16.095  12.905  15.978  0.00  0.00     0.025 C 
ENDBRANCH   3   4
BRANCH   2   7
HETATM    7  C   UNK     0      20.550  12.273  16.040  0.00  0.00     0.002 C 
HETATM    8  C   UNK     0      20.579  11.747  14.821  0.00  0.00     0.000 C 
BRANCH   8   9
HETATM    9  C   UNK     0      21.741  11.472  14.234  0.00  0.00     0.000 C 
HETATM   10  C   UNK     0      22.879  11.837  14.822  0.00  0.00     0.000 C 
BRANCH  10  11
HETATM   11  C   UNK     0      24.041  11.563  14.236  0.00  0.00     0.000 C 
HETATM   12  C   UNK     0      24.073  11.067  13.004  0.00  0.00     0.000 C 
BRANCH  12  13
HETATM   13  C   UNK     0      25.236  10.792  12.419  0.00  0.00     0.000 C 
HETATM   14  C   UNK     0      26.081   9.940  12.996  0.00  0.00     0.000 C 
ENDBRANCH  12  13
ENDBRANCH  10  11
ENDBRANCH   8   9
ENDBRANCH   2   7
TORSDOF 5
ENDMDL
MODEL 4
REMARK VINA RESULT:      -6.3      3.986      5.442
REMARK  5 active torsions:
REMARK  status: ('A' for Active; 'I' for Inactive)
REMARK    1  A    between atoms: C_3  and  C_5 
REMARK    2  A    between atoms: C_4  and  C_6 
REMARK    3  A    between atoms: C_7  and  C_10 
REMARK    4  A    between atoms: C_8  and  C_9 
REMARK    5  A    between atoms: C_11  and  C_12 
ROOT
HETATM    1  O   UNK     0      11.588  16.792  15.729  0.00  0.00    -0.189 OA
HETATM    2  C   UNK     0      12.388  15.545  17.831  0.00  0.00     0.029 C 
HETATM    3  C   UNK     0      11.685  16.223  16.927  0.00  0.00     0.150 C 
ENDROOT
BRANCH   3   4
HETATM    4  C   UNK     0      10.437  16.591  17.203  0.00  0.00     0.128 C 
HETATM    5  N   UNK     0      10.071  16.282  15.962  0.00  0.00    -0.146 N 
HETATM    6  C   UNK     0      10.121  17.044  18.411  0.00  0.00     0.025 C 
ENDBRANCH   3   4
BRANCH   2   7
HETATM    7  C   UNK     0      13.636  15.176  17.556  0.00  0.00     0.002 C 
HETATM    8  C   UNK     0      14.046  13.940  17.818  0.00  0.00     0.000 C 
BRANCH   8   9
HETATM    9  C   UNK     0      15.294  13.573  17.541  0.00  0.00     0.000 C 
HETATM   10  C   UNK     0      15.542  12.845  16.454  0.00  0.00     0.000 C 
BRANCH  10  11
HETATM   11  C   UNK     0      16.790  12.477  16.177  0.00  0.00     0.000 C 
HETATM   12  C   UNK     0      17.711  12.448  17.134  0.00  0.00     0.000 C 
BRANCH  12  13
HETATM   13  C   UNK     0      18.958  12.080  16.857  0.00  0.00     0.000 C 
HETATM   14  C   UNK     0      19.978  12.755  17.383  0.00  0.00     0.000 C 
ENDBRANCH  12  13
ENDBRANCH  10  11
ENDBRANCH   8   9
ENDBRANCH   2   7
TORSDOF 5
ENDMDL
MODEL 5
REMARK VINA RESULT:      -5.7      4.771      6.927
REMARK  5 active torsions:
REMARK  status: ('A' for Active; 'I' for Inactive)
REMARK    1  A    between atoms: C_3  and  C_5 
REMARK    2  A    between atoms: C_4  and  C_6 
REMARK    3  A    between atoms: C_7  and  C_10 
REMARK    4  A    between atoms: C_8  and  C_9 
REMARK    5  A    between atoms: C_11  and  C_12 
ROOT
HETATM    1  O   UNK     0      11.110  17.814  16.185  0.00  0.00    -0.189 OA
HETATM    2  C   UNK     0      11.087  16.386  18.325  0.00  0.00     0.029 C 
HETATM    3  C   UNK     0      10.773  17.186  17.308  0.00  0.00     0.150 C 
ENDROOT
BRANCH   3   4
HETATM    4  C   UNK     0       9.547  17.697  17.226  0.00  0.00     0.128 C 
HETATM    5  N   UNK     0       9.828  18.174  16.016  0.00  0.00    -0.146 N 
HETATM    6  C   UNK     0       8.687  17.545  18.226  0.00  0.00     0.025 C 
ENDBRANCH   3   4
BRANCH   2   7
HETATM    7  C   UNK     0      12.313  15.875  18.408  0.00  0.00     0.002 C 
HETATM    8  C   UNK     0      12.921  15.408  17.323  0.00  0.00     0.000 C 
BRANCH   8   9
HETATM    9  C   UNK     0      14.146  14.897  17.406  0.00  0.00     0.000 C 
HETATM   10  C   UNK     0      14.304  13.582  17.548  0.00  0.00     0.000 C 
BRANCH  10  11
HETATM   11  C   UNK     0      15.529  13.070  17.631  0.00  0.00     0.000 C 
HETATM   12  C   UNK     0      16.189  13.091  18.784  0.00  0.00     0.000 C 
BRANCH  12  13
HETATM   13  C   UNK     0      17.414  12.580  18.867  0.00  0.00     0.000 C 
HETATM   14  C   UNK     0      18.025  12.145  17.766  0.00  0.00     0.000 C 
ENDBRANCH  12  13
ENDBRANCH  10  11
ENDBRANCH   8   9
ENDBRANCH   2   7
TORSDOF 5
ENDMDL
