MODEL 1
REMARK VINA RESULT:      -5.7      0.000      0.000
REMARK  5 active torsions:
REMARK  status: ('A' for Active; 'I' for Inactive)
REMARK    1  A    between atoms: C_3  and  C_5 
REMARK    2  A    between atoms: C_4  and  C_6 
REMARK    3  A    between atoms: C_7  and  C_10 
REMARK    4  A    between atoms: C_8  and  C_9 
REMARK    5  A    between atoms: C_11  and  C_12 
ROOT
HETATM    1  O   UNK     0       9.217  17.494  18.675  0.00  0.00    -0.189 OA
HETATM    2  C   UNK     0      11.243  16.997  17.169  0.00  0.00     0.029 C 
HETATM    3  C   UNK     0      10.136  17.499  17.713  0.00  0.00     0.150 C 
ENDROOT
BRANCH   3   4
HETATM    4  C   UNK     0       9.513  18.515  17.124  0.00  0.00     0.128 C 
HETATM    5  N   UNK     0       8.749  18.672  18.201  0.00  0.00    -0.146 N 
HETATM    6  C   UNK     0       9.857  18.895  15.898  0.00  0.00     0.025 C 
ENDBRANCH   3   4
BRANCH   2   7
HETATM    7  C   UNK     0      11.866  15.980  17.759  0.00  0.00     0.002 C 
HETATM    8  C   UNK     0      13.014  15.522  17.273  0.00  0.00     0.000 C 
BRANCH   8   9
HETATM    9  C   UNK     0      13.636  14.505  17.864  0.00  0.00     0.000 C 
HETATM   10  C   UNK     0      14.717  13.974  17.296  0.00  0.00     0.000 C 
BRANCH  10  11
HETATM   11  C   UNK     0      15.339  12.957  17.885  0.00  0.00     0.000 C 
HETATM   12  C   UNK     0      16.061  13.155  18.983  0.00  0.00     0.000 C 
BRANCH  12  13
HETATM   13  C   UNK     0      16.683  12.138  19.573  0.00  0.00     0.000 C 
HETATM   14  C   UNK     0      16.537  10.906  19.091  0.00  0.00     0.000 C 
ENDBRANCH  12  13
ENDBRANCH  10  11
ENDBRANCH   8   9
ENDBRANCH   2   7
TORSDOF 5
ENDMDL
MODEL 2
REMARK VINA RESULT:      -5.6      1.843      2.852
REMARK  5 active torsions:
REMARK  status: ('A' for Active; 'I' for Inactive)
REMARK    1  A    between atoms: C_3  and  C_5 
REMARK    2  A    between atoms: C_4  and  C_6 
REMARK    3  A    between atoms: C_7  and  C_10 
REMARK    4  A    between atoms: C_8  and  C_9 
REMARK    5  A    between atoms: C_11  and  C_12 
ROOT
HETATM    1  O   UNK     0       9.719  19.826  18.554  0.00  0.00    -0.189 OA
HETATM    2  C   UNK     0      10.171  19.142  16.116  0.00  0.00     0.029 C 
HETATM    3  C   UNK     0       9.736  19.732  17.228  0.00  0.00     0.150 C 
ENDROOT
BRANCH   3   4
HETATM    4  C   UNK     0       8.892  20.756  17.145  0.00  0.00     0.128 C 
HETATM    5  N   UNK     0       9.783  21.541  17.744  0.00  0.00    -0.146 N 
HETATM    6  C   UNK     0       7.697  20.599  16.587  0.00  0.00     0.025 C 
ENDBRANCH   3   4
BRANCH   2   7
HETATM    7  C   UNK     0      11.015  18.118  16.199  0.00  0.00     0.002 C 
HETATM    8  C   UNK     0      10.627  16.969  16.740  0.00  0.00     0.000 C 
BRANCH   8   9
HETATM    9  C   UNK     0      11.473  15.945  16.823  0.00  0.00     0.000 C 
HETATM   10  C   UNK     0      12.207  15.784  17.922  0.00  0.00     0.000 C 
BRANCH  10  11
HETATM   11  C   UNK     0      13.053  14.761  18.005  0.00  0.00     0.000 C 
HETATM   12  C   UNK     0      14.266  14.845  17.469  0.00  0.00     0.000 C 
BRANCH  12  13
HETATM   13  C   UNK     0      15.111  13.821  17.553  0.00  0.00     0.000 C 
HETATM   14  C   UNK     0      15.413  13.123  16.460  0.00  0.00     0.000 C 
ENDBRANCH  12  13
ENDBRANCH  10  11
ENDBRANCH   8   9
ENDBRANCH   2   7
TORSDOF 5
ENDMDL
MODEL 3
REMARK VINA RESULT:      -5.3     12.480     15.150
REMARK  5 active torsions:
REMARK  status: ('A' for Active; 'I' for Inactive)
REMARK    1  A    between atoms: C_3  and  C_5 
REMARK    2  A    between atoms: C_4  and  C_6 
REMARK    3  A    between atoms: C_7  and  C_10 
REMARK    4  A    between atoms: C_8  and  C_9 
REMARK    5  A    between atoms: C_11  and  C_12 
ROOT
HETATM    1  O   UNK     0      27.472  14.763  11.747  0.00  0.00    -0.189 OA
HETATM    2  C   UNK     0      27.393  12.722  13.311  0.00  0.00     0.029 C 
HETATM    3  C   UNK     0      27.774  13.727  12.525  0.00  0.00     0.150 C 
ENDROOT
BRANCH   3   4
HETATM    4  C   UNK     0      29.068  13.939  12.306  0.00  0.00     0.128 C 
HETATM    5  N   UNK     0      28.780  15.104  11.731  0.00  0.00    -0.146 N 
HETATM    6  C   UNK     0      29.971  13.044  12.689  0.00  0.00     0.025 C 
ENDBRANCH   3   4
BRANCH   2   7
HETATM    7  C   UNK     0      26.099  12.509  13.531  0.00  0.00     0.002 C 
HETATM    8  C   UNK     0      25.706  11.691  14.501  0.00  0.00     0.000 C 
BRANCH   8   9
HETATM    9  C   UNK     0      24.411  11.480  14.720  0.00  0.00     0.000 C 
HETATM   10  C   UNK     0      23.505  12.107  13.973  0.00  0.00     0.000 C 
BRANCH  10  11
HETATM   11  C   UNK     0      22.210  11.897  14.191  0.00  0.00     0.000 C 
HETATM   12  C   UNK     0      21.580  10.897  13.583  0.00  0.00     0.000 C 
BRANCH  12  13
HETATM   13  C   UNK     0      20.285  10.686  13.801  0.00  0.00     0.000 C 
HETATM   14  C   UNK     0      19.647  11.398  14.729  0.00  0.00     0.000 C 
ENDBRANCH  12  13
ENDBRANCH  10  11
ENDBRANCH   8   9
ENDBRANCH   2   7
TORSDOF 5
ENDMDL
MODEL 4
REMARK VINA RESULT:      -4.9      6.612      7.066
REMARK  5 active torsions:
REMARK  status: ('A' for Active; 'I' for Inactive)
REMARK    1  A    between atoms: C_3  and  C_5 
REMARK    2  A    between atoms: C_4  and  C_6 
REMARK    3  A    between atoms: C_7  and  C_10 
REMARK    4  A    between atoms: C_8  and  C_9 
REMARK    5  A    between atoms: C_11  and  C_12 
ROOT
HETATM    1  O   UNK     0      10.050  21.580  17.952  0.00  0.00    -0.189 OA
HETATM    2  C   UNK     0       8.540  19.702  18.854  0.00  0.00     0.029 C 
HETATM    3  C   UNK     0       9.090  20.677  18.132  0.00  0.00     0.150 C 
ENDROOT
BRANCH   3   4
HETATM    4  C   UNK     0       8.518  21.058  16.994  0.00  0.00     0.128 C 
HETATM    5  N   UNK     0       9.495  20.474  16.306  0.00  0.00    -0.146 N 
HETATM    6  C   UNK     0       7.386  21.754  17.010  0.00  0.00     0.025 C 
ENDBRANCH   3   4
BRANCH   2   7
HETATM    7  C   UNK     0       9.112  19.321  19.992  0.00  0.00     0.002 C 
HETATM    8  C   UNK     0       8.368  18.934  21.022  0.00  0.00     0.000 C 
BRANCH   8   9
HETATM    9  C   UNK     0       8.941  18.553  22.160  0.00  0.00     0.000 C 
HETATM   10  C   UNK     0      10.153  19.008  22.474  0.00  0.00     0.000 C 
BRANCH  10  11
HETATM   11  C   UNK     0      10.727  18.628  23.611  0.00  0.00     0.000 C 
HETATM   12  C   UNK     0      10.161  18.914  24.779  0.00  0.00     0.000 C 
BRANCH  12  13
HETATM   13  C   UNK     0      10.735  18.533  25.917  0.00  0.00     0.000 C 
HETATM   14  C   UNK     0      11.916  17.917  25.887  0.00  0.00     0.000 C 
ENDBRANCH  12  13
ENDBRANCH  10  11
ENDBRANCH   8   9
ENDBRANCH   2   7
TORSDOF 5
ENDMDL
MODEL 5
REMARK VINA RESULT:      -4.9      5.004      7.339
REMARK  5 active torsions:
REMARK  status: ('A' for Active; 'I' for Inactive)
REMARK    1  A    between atoms: C_3  and  C_5 
REMARK    2  A    between atoms: C_4  and  C_6 
REMARK    3  A    between atoms: C_7  and  C_10 
REMARK    4  A    between atoms: C_8  and  C_9 
REMARK    5  A    between atoms: C_11  and  C_12 
ROOT
HETATM    1  O   UNK     0      10.208  19.873  17.008  0.00  0.00    -0.189 OA
HETATM    2  C   UNK     0       9.527  17.519  17.790  0.00  0.00     0.029 C 
HETATM    3  C   UNK     0       9.950  18.571  17.092  0.00  0.00     0.150 C 
ENDROOT
BRANCH   3   4
HETATM    4  C   UNK     0      10.351  18.409  15.834  0.00  0.00     0.128 C 
HETATM    5  N   UNK     0       9.868  19.610  15.526  0.00  0.00    -0.146 N 
HETATM    6  C   UNK     0      10.971  17.294  15.464  0.00  0.00     0.025 C 
ENDBRANCH   3   4
BRANCH   2   7
HETATM    7  C   UNK     0       9.126  17.680  19.048  0.00  0.00     0.002 C 
HETATM    8  C   UNK     0       9.930  18.243  19.944  0.00  0.00     0.000 C 
BRANCH   8   9
HETATM    9  C   UNK     0       9.528  18.403  21.201  0.00  0.00     0.000 C 
HETATM   10  C   UNK     0       8.226  18.445  21.477  0.00  0.00     0.000 C 
BRANCH  10  11
HETATM   11  C   UNK     0       7.823  18.605  22.735  0.00  0.00     0.000 C 
HETATM   12  C   UNK     0       8.711  18.718  23.716  0.00  0.00     0.000 C 
BRANCH  12  13
HETATM   13  C   UNK     0       8.308  18.879  24.974  0.00  0.00     0.000 C 
HETATM   14  C   UNK     0       7.380  19.791  25.258  0.00  0.00     0.000 C 
ENDBRANCH  12  13
ENDBRANCH  10  11
ENDBRANCH   8   9
ENDBRANCH   2   7
TORSDOF 5
ENDMDL
