MODEL 1
REMARK VINA RESULT:      -4.9      0.000      0.000
REMARK  5 active torsions:
REMARK  status: ('A' for Active; 'I' for Inactive)
REMARK    1  A    between atoms: C_3  and  C_5 
REMARK    2  A    between atoms: C_4  and  C_6 
REMARK    3  A    between atoms: C_7  and  C_10 
REMARK    4  A    between atoms: C_8  and  C_9 
REMARK    5  A    between atoms: C_11  and  C_12 
ROOT
HETATM    1  O   UNK     0      26.406  13.857  44.757  0.00  0.00    -0.189 OA
HETATM    2  C   UNK     0      25.216  13.510  42.502  0.00  0.00     0.029 C 
HETATM    3  C   UNK     0      25.637  13.973  43.678  0.00  0.00     0.150 C 
ENDROOT
BRANCH   3   4
HETATM    4  C   UNK     0      25.138  15.110  44.156  0.00  0.00     0.128 C 
HETATM    5  N   UNK     0      24.843  14.499  45.300  0.00  0.00    -0.146 N 
HETATM    6  C   UNK     0      25.140  16.211  43.413  0.00  0.00     0.025 C 
ENDBRANCH   3   4
BRANCH   2   7
HETATM    7  C   UNK     0      25.715  12.374  42.024  0.00  0.00     0.002 C 
HETATM    8  C   UNK     0      26.421  12.370  40.899  0.00  0.00     0.000 C 
BRANCH   8   9
HETATM    9  C   UNK     0      26.920  11.233  40.422  0.00  0.00     0.000 C 
HETATM   10  C   UNK     0      26.109  10.202  40.192  0.00  0.00     0.000 C 
BRANCH  10  11
HETATM   11  C   UNK     0      26.606   9.065  39.715  0.00  0.00     0.000 C 
HETATM   12  C   UNK     0      27.768   8.600  40.160  0.00  0.00     0.000 C 
BRANCH  12  13
HETATM   13  C   UNK     0      28.266   7.463  39.683  0.00  0.00     0.000 C 
HETATM   14  C   UNK     0      27.466   6.605  39.052  0.00  0.00     0.000 C 
ENDBRANCH  12  13
ENDBRANCH  10  11
ENDBRANCH   8   9
ENDBRANCH   2   7
TORSDOF 5
ENDMDL
MODEL 2
REMARK VINA RESULT:      -4.6     16.243     17.407
REMARK  5 active torsions:
REMARK  status: ('A' for Active; 'I' for Inactive)
REMARK    1  A    between atoms: C_3  and  C_5 
REMARK    2  A    between atoms: C_4  and  C_6 
REMARK    3  A    between atoms: C_7  and  C_10 
REMARK    4  A    between atoms: C_8  and  C_9 
REMARK    5  A    between atoms: C_11  and  C_12 
ROOT
HETATM    1  O   UNK     0      39.097  13.340  53.352  0.00  0.00    -0.189 OA
HETATM    2  C   UNK     0      38.504  13.665  50.870  0.00  0.00     0.029 C 
HETATM    3  C   UNK     0      38.533  13.293  52.148  0.00  0.00     0.150 C 
ENDROOT
BRANCH   3   4
HETATM    4  C   UNK     0      37.605  12.463  52.615  0.00  0.00     0.128 C 
HETATM    5  N   UNK     0      37.136  13.428  53.400  0.00  0.00    -0.146 N 
HETATM    6  C   UNK     0      37.540  11.211  52.174  0.00  0.00     0.025 C 
ENDBRANCH   3   4
BRANCH   2   7
HETATM    7  C   UNK     0      39.432  14.496  50.403  0.00  0.00     0.002 C 
HETATM    8  C   UNK     0      39.185  15.252  49.339  0.00  0.00     0.000 C 
BRANCH   8   9
HETATM    9  C   UNK     0      40.114  16.083  48.874  0.00  0.00     0.000 C 
HETATM   10  C   UNK     0      40.832  16.813  49.725  0.00  0.00     0.000 C 
BRANCH  10  11
HETATM   11  C   UNK     0      41.761  17.643  49.260  0.00  0.00     0.000 C 
HETATM   12  C   UNK     0      42.879  17.169  48.721  0.00  0.00     0.000 C 
BRANCH  12  13
HETATM   13  C   UNK     0      43.808  17.999  48.257  0.00  0.00     0.000 C 
HETATM   14  C   UNK     0      43.464  19.229  47.877  0.00  0.00     0.000 C 
ENDBRANCH  12  13
ENDBRANCH  10  11
ENDBRANCH   8   9
ENDBRANCH   2   7
TORSDOF 5
ENDMDL
MODEL 3
REMARK VINA RESULT:      -4.6      5.541      8.555
REMARK  5 active torsions:
REMARK  status: ('A' for Active; 'I' for Inactive)
REMARK    1  A    between atoms: C_3  and  C_5 
REMARK    2  A    between atoms: C_4  and  C_6 
REMARK    3  A    between atoms: C_7  and  C_10 
REMARK    4  A    between atoms: C_8  and  C_9 
REMARK    5  A    between atoms: C_11  and  C_12 
ROOT
HETATM    1  O   UNK     0      32.250  10.480  36.285  0.00  0.00    -0.189 OA
HETATM    2  C   UNK     0      30.257   8.892  36.641  0.00  0.00     0.029 C 
HETATM    3  C   UNK     0      31.442   9.425  36.350  0.00  0.00     0.150 C 
ENDROOT
BRANCH   3   4
HETATM    4  C   UNK     0      32.416   8.652  35.877  0.00  0.00     0.128 C 
HETATM    5  N   UNK     0      33.140   9.732  35.600  0.00  0.00    -0.146 N 
HETATM    6  C   UNK     0      32.284   7.330  35.876  0.00  0.00     0.025 C 
ENDBRANCH   3   4
BRANCH   2   7
HETATM    7  C   UNK     0      29.284   9.665  37.114  0.00  0.00     0.002 C 
HETATM    8  C   UNK     0      28.578   9.285  38.173  0.00  0.00     0.000 C 
BRANCH   8   9
HETATM    9  C   UNK     0      27.605  10.059  38.645  0.00  0.00     0.000 C 
HETATM   10  C   UNK     0      27.064   9.788  39.832  0.00  0.00     0.000 C 
BRANCH  10  11
HETATM   11  C   UNK     0      26.091  10.561  40.305  0.00  0.00     0.000 C 
HETATM   12  C   UNK     0      26.374  11.593  41.093  0.00  0.00     0.000 C 
BRANCH  12  13
HETATM   13  C   UNK     0      25.401  12.366  41.566  0.00  0.00     0.000 C 
HETATM   14  C   UNK     0      25.696  13.363  42.398  0.00  0.00     0.000 C 
ENDBRANCH  12  13
ENDBRANCH  10  11
ENDBRANCH   8   9
ENDBRANCH   2   7
TORSDOF 5
ENDMDL
MODEL 4
REMARK VINA RESULT:      -4.4      1.516      2.408
REMARK  5 active torsions:
REMARK  status: ('A' for Active; 'I' for Inactive)
REMARK    1  A    between atoms: C_3  and  C_5 
REMARK    2  A    between atoms: C_4  and  C_6 
REMARK    3  A    between atoms: C_7  and  C_10 
REMARK    4  A    between atoms: C_8  and  C_9 
REMARK    5  A    between atoms: C_11  and  C_12 
ROOT
HETATM    1  O   UNK     0      25.563  16.421  43.634  0.00  0.00    -0.189 OA
HETATM    2  C   UNK     0      26.255  14.383  45.043  0.00  0.00     0.029 C 
HETATM    3  C   UNK     0      25.842  15.578  44.624  0.00  0.00     0.150 C 
ENDROOT
BRANCH   3   4
HETATM    4  C   UNK     0      25.499  16.506  45.512  0.00  0.00     0.128 C 
HETATM    5  N   UNK     0      24.281  15.979  45.592  0.00  0.00    -0.146 N 
HETATM    6  C   UNK     0      26.375  17.430  45.891  0.00  0.00     0.025 C 
ENDBRANCH   3   4
BRANCH   2   7
HETATM    7  C   UNK     0      26.598  13.454  44.155  0.00  0.00     0.002 C 
HETATM    8  C   UNK     0      25.885  13.288  43.046  0.00  0.00     0.000 C 
BRANCH   8   9
HETATM    9  C   UNK     0      26.229  12.359  42.159  0.00  0.00     0.000 C 
HETATM   10  C   UNK     0      26.419  12.701  40.886  0.00  0.00     0.000 C 
BRANCH  10  11
HETATM   11  C   UNK     0      26.763  11.773  39.998  0.00  0.00     0.000 C 
HETATM   12  C   UNK     0      26.784  10.490  40.340  0.00  0.00     0.000 C 
BRANCH  12  13
HETATM   13  C   UNK     0      27.128   9.561  39.452  0.00  0.00     0.000 C 
HETATM   14  C   UNK     0      27.329   8.307  39.852  0.00  0.00     0.000 C 
ENDBRANCH  12  13
ENDBRANCH  10  11
ENDBRANCH   8   9
ENDBRANCH   2   7
TORSDOF 5
ENDMDL
MODEL 5
REMARK VINA RESULT:      -4.3      2.692      3.233
REMARK  5 active torsions:
REMARK  status: ('A' for Active; 'I' for Inactive)
REMARK    1  A    between atoms: C_3  and  C_5 
REMARK    2  A    between atoms: C_4  and  C_6 
REMARK    3  A    between atoms: C_7  and  C_10 
REMARK    4  A    between atoms: C_8  and  C_9 
REMARK    5  A    between atoms: C_11  and  C_12 
ROOT
HETATM    1  O   UNK     0      24.285  14.210  41.046  0.00  0.00    -0.189 OA
HETATM    2  C   UNK     0      24.661  11.675  41.265  0.00  0.00     0.029 C 
HETATM    3  C   UNK     0      24.194  12.919  41.351  0.00  0.00     0.150 C 
ENDROOT
BRANCH   3   4
HETATM    4  C   UNK     0      23.094  13.163  42.058  0.00  0.00     0.128 C 
HETATM    5  N   UNK     0      22.347  12.732  41.045  0.00  0.00    -0.146 N 
HETATM    6  C   UNK     0      23.181  13.658  43.287  0.00  0.00     0.025 C 
ENDBRANCH   3   4
BRANCH   2   7
HETATM    7  C   UNK     0      25.761  11.430  40.559  0.00  0.00     0.002 C 
HETATM    8  C   UNK     0      26.085  10.185  40.228  0.00  0.00     0.000 C 
BRANCH   8   9
HETATM    9  C   UNK     0      27.185   9.942  39.521  0.00  0.00     0.000 C 
HETATM   10  C   UNK     0      27.608   8.688  39.371  0.00  0.00     0.000 C 
BRANCH  10  11
HETATM   11  C   UNK     0      28.708   8.443  38.664  0.00  0.00     0.000 C 
HETATM   12  C   UNK     0      29.064   9.252  37.672  0.00  0.00     0.000 C 
BRANCH  12  13
HETATM   13  C   UNK     0      30.164   9.008  36.966  0.00  0.00     0.000 C 
HETATM   14  C   UNK     0      31.251   8.540  37.577  0.00  0.00     0.000 C 
ENDBRANCH  12  13
ENDBRANCH  10  11
ENDBRANCH   8   9
ENDBRANCH   2   7
TORSDOF 5
ENDMDL
