MODEL 1
REMARK VINA RESULT:      -5.1      0.000      0.000
REMARK  5 active torsions:
REMARK  status: ('A' for Active; 'I' for Inactive)
REMARK    1  A    between atoms: C_3  and  C_5 
REMARK    2  A    between atoms: C_4  and  C_6 
REMARK    3  A    between atoms: C_7  and  C_10 
REMARK    4  A    between atoms: C_8  and  C_9 
REMARK    5  A    between atoms: C_11  and  C_12 
ROOT
HETATM    1  O   UNK     0      24.602  11.050  38.035  0.00  0.00    -0.189 OA
HETATM    2  C   UNK     0      25.697   9.842  40.026  0.00  0.00     0.029 C 
HETATM    3  C   UNK     0      24.851  10.451  39.197  0.00  0.00     0.150 C 
ENDROOT
BRANCH   3   4
HETATM    4  C   UNK     0      23.584  10.629  39.560  0.00  0.00     0.128 C 
HETATM    5  N   UNK     0      23.187   9.844  38.562  0.00  0.00    -0.146 N 
HETATM    6  C   UNK     0      23.285  11.396  40.603  0.00  0.00     0.025 C 
ENDBRANCH   3   4
BRANCH   2   7
HETATM    7  C   UNK     0      26.964   9.663  39.662  0.00  0.00     0.002 C 
HETATM    8  C   UNK     0      27.487   8.443  39.624  0.00  0.00     0.000 C 
BRANCH   8   9
HETATM    9  C   UNK     0      28.754   8.265  39.260  0.00  0.00     0.000 C 
HETATM   10  C   UNK     0      29.166   8.704  38.072  0.00  0.00     0.000 C 
BRANCH  10  11
HETATM   11  C   UNK     0      30.433   8.527  37.707  0.00  0.00     0.000 C 
HETATM   12  C   UNK     0      30.968   9.275  36.749  0.00  0.00     0.000 C 
BRANCH  12  13
HETATM   13  C   UNK     0      32.235   9.098  36.385  0.00  0.00     0.000 C 
HETATM   14  C   UNK     0      32.912  10.107  35.838  0.00  0.00     0.000 C 
ENDBRANCH  12  13
ENDBRANCH  10  11
ENDBRANCH   8   9
ENDBRANCH   2   7
TORSDOF 5
ENDMDL
MODEL 2
REMARK VINA RESULT:      -4.8     33.188     36.036
REMARK  5 active torsions:
REMARK  status: ('A' for Active; 'I' for Inactive)
REMARK    1  A    between atoms: C_3  and  C_5 
REMARK    2  A    between atoms: C_4  and  C_6 
REMARK    3  A    between atoms: C_7  and  C_10 
REMARK    4  A    between atoms: C_8  and  C_9 
REMARK    5  A    between atoms: C_11  and  C_12 
ROOT
HETATM    1  O   UNK     0      57.563 -14.599  41.947  0.00  0.00    -0.189 OA
HETATM    2  C   UNK     0      55.000 -14.430  42.094  0.00  0.00     0.029 C 
HETATM    3  C   UNK     0      56.272 -14.815  42.182  0.00  0.00     0.150 C 
ENDROOT
BRANCH   3   4
HETATM    4  C   UNK     0      56.572 -15.971  42.769  0.00  0.00     0.128 C 
HETATM    5  N   UNK     0      57.419 -15.340  43.577  0.00  0.00    -0.146 N 
HETATM    6  C   UNK     0      55.994 -17.098  42.369  0.00  0.00     0.025 C 
ENDBRANCH   3   4
BRANCH   2   7
HETATM    7  C   UNK     0      54.700 -13.275  41.507  0.00  0.00     0.002 C 
HETATM    8  C   UNK     0      54.744 -13.161  40.184  0.00  0.00     0.000 C 
BRANCH   8   9
HETATM    9  C   UNK     0      54.444 -12.006  39.598  0.00  0.00     0.000 C 
HETATM   10  C   UNK     0      53.860 -11.039  40.305  0.00  0.00     0.000 C 
BRANCH  10  11
HETATM   11  C   UNK     0      53.560  -9.883  39.720  0.00  0.00     0.000 C 
HETATM   12  C   UNK     0      52.987  -9.865  38.521  0.00  0.00     0.000 C 
BRANCH  12  13
HETATM   13  C   UNK     0      52.686  -8.709  37.936  0.00  0.00     0.000 C 
HETATM   14  C   UNK     0      53.663  -7.906  37.520  0.00  0.00     0.000 C 
ENDBRANCH  12  13
ENDBRANCH  10  11
ENDBRANCH   8   9
ENDBRANCH   2   7
TORSDOF 5
ENDMDL
MODEL 3
REMARK VINA RESULT:      -4.6     27.602     29.493
REMARK  5 active torsions:
REMARK  status: ('A' for Active; 'I' for Inactive)
REMARK    1  A    between atoms: C_3  and  C_5 
REMARK    2  A    between atoms: C_4  and  C_6 
REMARK    3  A    between atoms: C_7  and  C_10 
REMARK    4  A    between atoms: C_8  and  C_9 
REMARK    5  A    between atoms: C_11  and  C_12 
ROOT
HETATM    1  O   UNK     0      37.793 -17.293  27.502  0.00  0.00    -0.189 OA
HETATM    2  C   UNK     0      36.158 -17.048  29.474  0.00  0.00     0.029 C 
HETATM    3  C   UNK     0      37.188 -17.351  28.685  0.00  0.00     0.150 C 
ENDROOT
BRANCH   3   4
HETATM    4  C   UNK     0      38.203 -18.062  29.169  0.00  0.00     0.128 C 
HETATM    5  N   UNK     0      37.517 -19.182  28.961  0.00  0.00    -0.146 N 
HETATM    6  C   UNK     0      39.307 -17.456  29.594  0.00  0.00     0.025 C 
ENDBRANCH   3   4
BRANCH   2   7
HETATM    7  C   UNK     0      35.144 -16.337  28.990  0.00  0.00     0.002 C 
HETATM    8  C   UNK     0      33.895 -16.772  29.121  0.00  0.00     0.000 C 
BRANCH   8   9
HETATM    9  C   UNK     0      32.881 -16.060  28.636  0.00  0.00     0.000 C 
HETATM   10  C   UNK     0      32.971 -15.529  27.418  0.00  0.00     0.000 C 
BRANCH  10  11
HETATM   11  C   UNK     0      31.958 -14.817  26.933  0.00  0.00     0.000 C 
HETATM   12  C   UNK     0      31.370 -13.888  27.680  0.00  0.00     0.000 C 
BRANCH  12  13
HETATM   13  C   UNK     0      30.356 -13.177  27.194  0.00  0.00     0.000 C 
HETATM   14  C   UNK     0      29.257 -13.797  26.769  0.00  0.00     0.000 C 
ENDBRANCH  12  13
ENDBRANCH  10  11
ENDBRANCH   8   9
ENDBRANCH   2   7
TORSDOF 5
ENDMDL
MODEL 4
REMARK VINA RESULT:      -4.6     17.595     17.915
REMARK  5 active torsions:
REMARK  status: ('A' for Active; 'I' for Inactive)
REMARK    1  A    between atoms: C_3  and  C_5 
REMARK    2  A    between atoms: C_4  and  C_6 
REMARK    3  A    between atoms: C_7  and  C_10 
REMARK    4  A    between atoms: C_8  and  C_9 
REMARK    5  A    between atoms: C_11  and  C_12 
ROOT
HETATM    1  O   UNK     0      18.557   1.182  23.515  0.00  0.00    -0.189 OA
HETATM    2  C   UNK     0      20.212   1.132  25.484  0.00  0.00     0.029 C 
HETATM    3  C   UNK     0      19.124   1.190  24.718  0.00  0.00     0.150 C 
ENDROOT
BRANCH   3   4
HETATM    4  C   UNK     0      17.927   1.323  25.281  0.00  0.00     0.128 C 
HETATM    5  N   UNK     0      17.725   2.441  24.590  0.00  0.00    -0.146 N 
HETATM    6  C   UNK     0      17.494   0.427  26.162  0.00  0.00     0.025 C 
ENDBRANCH   3   4
BRANCH   2   7
HETATM    7  C   UNK     0      21.409   0.999  24.921  0.00  0.00     0.002 C 
HETATM    8  C   UNK     0      21.719  -0.107  24.253  0.00  0.00     0.000 C 
BRANCH   8   9
HETATM    9  C   UNK     0      22.917  -0.239  23.690  0.00  0.00     0.000 C 
HETATM   10  C   UNK     0      23.911   0.568  24.057  0.00  0.00     0.000 C 
BRANCH  10  11
HETATM   11  C   UNK     0      25.109   0.437  23.495  0.00  0.00     0.000 C 
HETATM   12  C   UNK     0      25.528  -0.752  23.074  0.00  0.00     0.000 C 
BRANCH  12  13
HETATM   13  C   UNK     0      26.726  -0.883  22.512  0.00  0.00     0.000 C 
HETATM   14  C   UNK     0      27.797  -0.363  23.110  0.00  0.00     0.000 C 
ENDBRANCH  12  13
ENDBRANCH  10  11
ENDBRANCH   8   9
ENDBRANCH   2   7
TORSDOF 5
ENDMDL
MODEL 5
REMARK VINA RESULT:      -4.5     18.155     19.627
REMARK  5 active torsions:
REMARK  status: ('A' for Active; 'I' for Inactive)
REMARK    1  A    between atoms: C_3  and  C_5 
REMARK    2  A    between atoms: C_4  and  C_6 
REMARK    3  A    between atoms: C_7  and  C_10 
REMARK    4  A    between atoms: C_8  and  C_9 
REMARK    5  A    between atoms: C_11  and  C_12 
ROOT
HETATM    1  O   UNK     0      26.086   0.712  20.482  0.00  0.00    -0.189 OA
HETATM    2  C   UNK     0      26.506  -0.388  22.770  0.00  0.00     0.029 C 
HETATM    3  C   UNK     0      26.627   0.132  21.549  0.00  0.00     0.150 C 
ENDROOT
BRANCH   3   4
HETATM    4  C   UNK     0      27.820   0.163  20.961  0.00  0.00     0.128 C 
HETATM    5  N   UNK     0      27.641  -1.085  20.534  0.00  0.00    -0.146 N 
HETATM    6  C   UNK     0      28.576   1.252  21.031  0.00  0.00     0.025 C 
ENDBRANCH   3   4
BRANCH   2   7
HETATM    7  C   UNK     0      25.314  -0.419  23.358  0.00  0.00     0.002 C 
HETATM    8  C   UNK     0      24.708   0.710  23.710  0.00  0.00     0.000 C 
BRANCH   8   9
HETATM    9  C   UNK     0      23.516   0.678  24.298  0.00  0.00     0.000 C 
HETATM   10  C   UNK     0      22.562  -0.115  23.814  0.00  0.00     0.000 C 
BRANCH  10  11
HETATM   11  C   UNK     0      21.369  -0.147  24.401  0.00  0.00     0.000 C 
HETATM   12  C   UNK     0      20.988   0.841  25.204  0.00  0.00     0.000 C 
BRANCH  12  13
HETATM   13  C   UNK     0      19.795   0.808  25.792  0.00  0.00     0.000 C 
HETATM   14  C   UNK     0      19.081  -0.316  25.775  0.00  0.00     0.000 C 
ENDBRANCH  12  13
ENDBRANCH  10  11
ENDBRANCH   8   9
ENDBRANCH   2   7
TORSDOF 5
ENDMDL
