MODEL 1
REMARK VINA RESULT:      -4.3      0.000      0.000
REMARK  5 active torsions:
REMARK  status: ('A' for Active; 'I' for Inactive)
REMARK    1  A    between atoms: C_3  and  C_5 
REMARK    2  A    between atoms: C_4  and  C_6 
REMARK    3  A    between atoms: C_7  and  C_10 
REMARK    4  A    between atoms: C_8  and  C_9 
REMARK    5  A    between atoms: C_11  and  C_12 
ROOT
HETATM    1  O   UNK     0      38.303 -16.556  27.287  0.00  0.00    -0.189 OA
HETATM    2  C   UNK     0      36.707 -16.664  29.303  0.00  0.00     0.029 C 
HETATM    3  C   UNK     0      37.731 -16.804  28.462  0.00  0.00     0.150 C 
ENDROOT
BRANCH   3   4
HETATM    4  C   UNK     0      38.791 -17.520  28.827  0.00  0.00     0.128 C 
HETATM    5  N   UNK     0      39.587 -16.664  28.193  0.00  0.00    -0.146 N 
HETATM    6  C   UNK     0      38.640 -18.620  29.556  0.00  0.00     0.025 C 
ENDBRANCH   3   4
BRANCH   2   7
HETATM    7  C   UNK     0      35.647 -15.948  28.938  0.00  0.00     0.002 C 
HETATM    8  C   UNK     0      34.972 -16.259  27.837  0.00  0.00     0.000 C 
BRANCH   8   9
HETATM    9  C   UNK     0      33.912 -15.542  27.473  0.00  0.00     0.000 C 
HETATM   10  C   UNK     0      32.807 -15.575  28.216  0.00  0.00     0.000 C 
BRANCH  10  11
HETATM   11  C   UNK     0      31.747 -14.858  27.853  0.00  0.00     0.000 C 
HETATM   12  C   UNK     0      31.878 -13.573  27.546  0.00  0.00     0.000 C 
BRANCH  12  13
HETATM   13  C   UNK     0      30.817 -12.856  27.183  0.00  0.00     0.000 C 
HETATM   14  C   UNK     0      29.619 -13.434  27.123  0.00  0.00     0.000 C 
ENDBRANCH  12  13
ENDBRANCH  10  11
ENDBRANCH   8   9
ENDBRANCH   2   7
TORSDOF 5
ENDMDL
MODEL 2
REMARK VINA RESULT:      -4.3     23.970     25.324
REMARK  5 active torsions:
REMARK  status: ('A' for Active; 'I' for Inactive)
REMARK    1  A    between atoms: C_3  and  C_5 
REMARK    2  A    between atoms: C_4  and  C_6 
REMARK    3  A    between atoms: C_7  and  C_10 
REMARK    4  A    between atoms: C_8  and  C_9 
REMARK    5  A    between atoms: C_11  and  C_12 
ROOT
HETATM    1  O   UNK     0      24.570   8.448  27.638  0.00  0.00    -0.189 OA
HETATM    2  C   UNK     0      26.052   6.350  27.492  0.00  0.00     0.029 C 
HETATM    3  C   UNK     0      25.034   7.208  27.510  0.00  0.00     0.150 C 
ENDROOT
BRANCH   3   4
HETATM    4  C   UNK     0      23.794   6.764  27.321  0.00  0.00     0.128 C 
HETATM    5  N   UNK     0      23.704   6.467  28.614  0.00  0.00    -0.146 N 
HETATM    6  C   UNK     0      23.245   6.796  26.112  0.00  0.00     0.025 C 
ENDBRANCH   3   4
BRANCH   2   7
HETATM    7  C   UNK     0      27.292   6.794  27.680  0.00  0.00     0.002 C 
HETATM    8  C   UNK     0      27.698   7.160  28.891  0.00  0.00     0.000 C 
BRANCH   8   9
HETATM    9  C   UNK     0      28.938   7.604  29.079  0.00  0.00     0.000 C 
HETATM   10  C   UNK     0      29.866   6.782  29.565  0.00  0.00     0.000 C 
BRANCH  10  11
HETATM   11  C   UNK     0      31.106   7.225  29.753  0.00  0.00     0.000 C 
HETATM   12  C   UNK     0      31.477   8.407  29.275  0.00  0.00     0.000 C 
BRANCH  12  13
HETATM   13  C   UNK     0      32.717   8.850  29.463  0.00  0.00     0.000 C 
HETATM   14  C   UNK     0      33.180   9.855  28.721  0.00  0.00     0.000 C 
ENDBRANCH  12  13
ENDBRANCH  10  11
ENDBRANCH   8   9
ENDBRANCH   2   7
TORSDOF 5
ENDMDL
MODEL 3
REMARK VINA RESULT:      -4.2     38.299     39.179
REMARK  5 active torsions:
REMARK  status: ('A' for Active; 'I' for Inactive)
REMARK    1  A    between atoms: C_3  and  C_5 
REMARK    2  A    between atoms: C_4  and  C_6 
REMARK    3  A    between atoms: C_7  and  C_10 
REMARK    4  A    between atoms: C_8  and  C_9 
REMARK    5  A    between atoms: C_11  and  C_12 
ROOT
HETATM    1  O   UNK     0      34.628   7.249  61.872  0.00  0.00    -0.189 OA
HETATM    2  C   UNK     0      34.907   7.470  59.324  0.00  0.00     0.029 C 
HETATM    3  C   UNK     0      34.507   7.580  60.589  0.00  0.00     0.150 C 
ENDROOT
BRANCH   3   4
HETATM    4  C   UNK     0      33.488   8.379  60.892  0.00  0.00     0.128 C 
HETATM    5  N   UNK     0      32.684   7.322  60.978  0.00  0.00    -0.146 N 
HETATM    6  C   UNK     0      33.664   9.693  60.971  0.00  0.00     0.025 C 
ENDBRANCH   3   4
BRANCH   2   7
HETATM    7  C   UNK     0      35.926   6.670  59.021  0.00  0.00     0.002 C 
HETATM    8  C   UNK     0      37.172   7.131  59.042  0.00  0.00     0.000 C 
BRANCH   8   9
HETATM    9  C   UNK     0      38.190   6.331  58.739  0.00  0.00     0.000 C 
HETATM   10  C   UNK     0      38.291   5.141  59.329  0.00  0.00     0.000 C 
BRANCH  10  11
HETATM   11  C   UNK     0      39.310   4.340  59.027  0.00  0.00     0.000 C 
HETATM   12  C   UNK     0      39.263   3.049  59.334  0.00  0.00     0.000 C 
BRANCH  12  13
HETATM   13  C   UNK     0      40.281   2.248  59.032  0.00  0.00     0.000 C 
HETATM   14  C   UNK     0      40.945   1.628  60.005  0.00  0.00     0.000 C 
ENDBRANCH  12  13
ENDBRANCH  10  11
ENDBRANCH   8   9
ENDBRANCH   2   7
TORSDOF 5
ENDMDL
MODEL 4
REMARK VINA RESULT:      -4.1     31.644     34.043
REMARK  5 active torsions:
REMARK  status: ('A' for Active; 'I' for Inactive)
REMARK    1  A    between atoms: C_3  and  C_5 
REMARK    2  A    between atoms: C_4  and  C_6 
REMARK    3  A    between atoms: C_7  and  C_10 
REMARK    4  A    between atoms: C_8  and  C_9 
REMARK    5  A    between atoms: C_11  and  C_12 
ROOT
HETATM    1  O   UNK     0      57.055  -3.461  47.269  0.00  0.00    -0.189 OA
HETATM    2  C   UNK     0      55.612  -2.436  49.136  0.00  0.00     0.029 C 
HETATM    3  C   UNK     0      56.128  -2.811  47.967  0.00  0.00     0.150 C 
ENDROOT
BRANCH   3   4
HETATM    4  C   UNK     0      55.543  -2.430  46.835  0.00  0.00     0.128 C 
HETATM    5  N   UNK     0      55.605  -1.161  47.231  0.00  0.00    -0.146 N 
HETATM    6  C   UNK     0      55.193  -3.329  45.922  0.00  0.00     0.025 C 
ENDBRANCH   3   4
BRANCH   2   7
HETATM    7  C   UNK     0      56.197  -2.818  50.268  0.00  0.00     0.002 C 
HETATM    8  C   UNK     0      56.261  -4.105  50.591  0.00  0.00     0.000 C 
BRANCH   8   9
HETATM    9  C   UNK     0      56.847  -4.486  51.723  0.00  0.00     0.000 C 
HETATM   10  C   UNK     0      57.323  -3.567  52.561  0.00  0.00     0.000 C 
BRANCH  10  11
HETATM   11  C   UNK     0      57.908  -3.947  53.694  0.00  0.00     0.000 C 
HETATM   12  C   UNK     0      57.470  -5.014  54.352  0.00  0.00     0.000 C 
BRANCH  12  13
HETATM   13  C   UNK     0      58.056  -5.394  55.484  0.00  0.00     0.000 C 
HETATM   14  C   UNK     0      58.854  -6.460  55.490  0.00  0.00     0.000 C 
ENDBRANCH  12  13
ENDBRANCH  10  11
ENDBRANCH   8   9
ENDBRANCH   2   7
TORSDOF 5
ENDMDL
MODEL 5
REMARK VINA RESULT:      -4.1     32.562     33.639
REMARK  5 active torsions:
REMARK  status: ('A' for Active; 'I' for Inactive)
REMARK    1  A    between atoms: C_3  and  C_5 
REMARK    2  A    between atoms: C_4  and  C_6 
REMARK    3  A    between atoms: C_7  and  C_10 
REMARK    4  A    between atoms: C_8  and  C_9 
REMARK    5  A    between atoms: C_11  and  C_12 
ROOT
HETATM    1  O   UNK     0      45.887  -7.267  58.303  0.00  0.00    -0.189 OA
HETATM    2  C   UNK     0      44.701  -6.108  56.336  0.00  0.00     0.029 C 
HETATM    3  C   UNK     0      45.392  -6.941  57.113  0.00  0.00     0.150 C 
ENDROOT
BRANCH   3   4
HETATM    4  C   UNK     0      45.914  -8.048  56.592  0.00  0.00     0.128 C 
HETATM    5  N   UNK     0      44.770  -8.288  55.957  0.00  0.00    -0.146 N 
HETATM    6  C   UNK     0      47.162  -8.401  56.876  0.00  0.00     0.025 C 
ENDBRANCH   3   4
BRANCH   2   7
HETATM    7  C   UNK     0      44.179  -5.001  56.857  0.00  0.00     0.002 C 
HETATM    8  C   UNK     0      44.958  -4.111  57.463  0.00  0.00     0.000 C 
BRANCH   8   9
HETATM    9  C   UNK     0      44.435  -3.004  57.983  0.00  0.00     0.000 C 
HETATM   10  C   UNK     0      45.190  -1.914  58.110  0.00  0.00     0.000 C 
BRANCH  10  11
HETATM   11  C   UNK     0      44.668  -0.807  58.630  0.00  0.00     0.000 C 
HETATM   12  C   UNK     0      43.781  -0.881  59.616  0.00  0.00     0.000 C 
BRANCH  12  13
HETATM   13  C   UNK     0      43.259   0.227  60.137  0.00  0.00     0.000 C 
HETATM   14  C   UNK     0      43.707   0.682  61.305  0.00  0.00     0.000 C 
ENDBRANCH  12  13
ENDBRANCH  10  11
ENDBRANCH   8   9
ENDBRANCH   2   7
TORSDOF 5
ENDMDL
