MODEL 1
REMARK VINA RESULT:      -5.6      0.000      0.000
REMARK  5 active torsions:
REMARK  status: ('A' for Active; 'I' for Inactive)
REMARK    1  A    between atoms: C_3  and  C_5 
REMARK    2  A    between atoms: C_4  and  C_6 
REMARK    3  A    between atoms: C_7  and  C_10 
REMARK    4  A    between atoms: C_8  and  C_9 
REMARK    5  A    between atoms: C_11  and  C_12 
ROOT
HETATM    1  O   UNK     0       7.040  13.990  -6.027  0.00  0.00    -0.189 OA
HETATM    2  C   UNK     0       5.271  15.147  -4.560  0.00  0.00     0.029 C 
HETATM    3  C   UNK     0       6.119  14.812  -5.530  0.00  0.00     0.150 C 
ENDROOT
BRANCH   3   4
HETATM    4  C   UNK     0       6.215  15.574  -6.616  0.00  0.00     0.128 C 
HETATM    5  N   UNK     0       6.281  16.658  -5.848  0.00  0.00    -0.146 N 
HETATM    6  C   UNK     0       6.206  15.027  -7.826  0.00  0.00     0.025 C 
ENDBRANCH   3   4
BRANCH   2   7
HETATM    7  C   UNK     0       5.175  14.384  -3.475  0.00  0.00     0.002 C 
HETATM    8  C   UNK     0       4.180  14.562  -2.613  0.00  0.00     0.000 C 
BRANCH   8   9
HETATM    9  C   UNK     0       4.085  13.799  -1.528  0.00  0.00     0.000 C 
HETATM   10  C   UNK     0       5.003  12.862  -1.299  0.00  0.00     0.000 C 
BRANCH  10  11
HETATM   11  C   UNK     0       4.909  12.098  -0.214  0.00  0.00     0.000 C 
HETATM   12  C   UNK     0       5.965  11.423   0.227  0.00  0.00     0.000 C 
BRANCH  12  13
HETATM   13  C   UNK     0       5.871  10.660   1.312  0.00  0.00     0.000 C 
HETATM   14  C   UNK     0       5.409  11.179   2.448  0.00  0.00     0.000 C 
ENDBRANCH  12  13
ENDBRANCH  10  11
ENDBRANCH   8   9
ENDBRANCH   2   7
TORSDOF 5
ENDMDL
MODEL 2
REMARK VINA RESULT:      -5.6     12.045     14.941
REMARK  5 active torsions:
REMARK  status: ('A' for Active; 'I' for Inactive)
REMARK    1  A    between atoms: C_3  and  C_5 
REMARK    2  A    between atoms: C_4  and  C_6 
REMARK    3  A    between atoms: C_7  and  C_10 
REMARK    4  A    between atoms: C_8  and  C_9 
REMARK    5  A    between atoms: C_11  and  C_12 
ROOT
HETATM    1  O   UNK     0      -2.624   8.197 -10.958  0.00  0.00    -0.189 OA
HETATM    2  C   UNK     0      -0.127   7.631 -11.212  0.00  0.00     0.029 C 
HETATM    3  C   UNK     0      -1.326   7.986 -10.755  0.00  0.00     0.150 C 
ENDROOT
BRANCH   3   4
HETATM    4  C   UNK     0      -1.470   8.332  -9.479  0.00  0.00     0.128 C 
HETATM    5  N   UNK     0      -2.278   9.325  -9.839  0.00  0.00    -0.146 N 
HETATM    6  C   UNK     0      -0.845   7.652  -8.524  0.00  0.00     0.025 C 
ENDBRANCH   3   4
BRANCH   2   7
HETATM    7  C   UNK     0       0.017   7.285 -12.489  0.00  0.00     0.002 C 
HETATM    8  C   UNK     0       1.134   6.701 -12.906  0.00  0.00     0.000 C 
BRANCH   8   9
HETATM    9  C   UNK     0       1.277   6.356 -14.182  0.00  0.00     0.000 C 
HETATM   10  C   UNK     0       1.968   7.143 -15.005  0.00  0.00     0.000 C 
BRANCH  10  11
HETATM   11  C   UNK     0       2.111   6.798 -16.282  0.00  0.00     0.000 C 
HETATM   12  C   UNK     0       1.495   5.723 -16.761  0.00  0.00     0.000 C 
BRANCH  12  13
HETATM   13  C   UNK     0       1.638   5.378 -18.038  0.00  0.00     0.000 C 
HETATM   14  C   UNK     0       1.116   6.147 -18.992  0.00  0.00     0.000 C 
ENDBRANCH  12  13
ENDBRANCH  10  11
ENDBRANCH   8   9
ENDBRANCH   2   7
TORSDOF 5
ENDMDL
MODEL 3
REMARK VINA RESULT:      -5.5      1.267      1.753
REMARK  5 active torsions:
REMARK  status: ('A' for Active; 'I' for Inactive)
REMARK    1  A    between atoms: C_3  and  C_5 
REMARK    2  A    between atoms: C_4  and  C_6 
REMARK    3  A    between atoms: C_7  and  C_10 
REMARK    4  A    between atoms: C_8  and  C_9 
REMARK    5  A    between atoms: C_11  and  C_12 
ROOT
HETATM    1  O   UNK     0       8.209  15.454  -6.522  0.00  0.00    -0.189 OA
HETATM    2  C   UNK     0       5.787  14.619  -6.289  0.00  0.00     0.029 C 
HETATM    3  C   UNK     0       6.944  15.105  -6.736  0.00  0.00     0.150 C 
ENDROOT
BRANCH   3   4
HETATM    4  C   UNK     0       7.058  15.471  -8.009  0.00  0.00     0.128 C 
HETATM    5  N   UNK     0       8.191  16.107  -7.725  0.00  0.00    -0.146 N 
HETATM    6  C   UNK     0       6.140  15.108  -8.898  0.00  0.00     0.025 C 
ENDBRANCH   3   4
BRANCH   2   7
HETATM    7  C   UNK     0       5.672  14.253  -5.016  0.00  0.00     0.002 C 
HETATM    8  C   UNK     0       4.671  14.709  -4.272  0.00  0.00     0.000 C 
BRANCH   8   9
HETATM    9  C   UNK     0       4.557  14.343  -2.998  0.00  0.00     0.000 C 
HETATM   10  C   UNK     0       5.628  13.901  -2.341  0.00  0.00     0.000 C 
BRANCH  10  11
HETATM   11  C   UNK     0       5.516  13.534  -1.068  0.00  0.00     0.000 C 
HETATM   12  C   UNK     0       5.075  12.321  -0.754  0.00  0.00     0.000 C 
BRANCH  12  13
HETATM   13  C   UNK     0       4.963  11.954   0.520  0.00  0.00     0.000 C 
HETATM   14  C   UNK     0       5.477  10.792   0.920  0.00  0.00     0.000 C 
ENDBRANCH  12  13
ENDBRANCH  10  11
ENDBRANCH   8   9
ENDBRANCH   2   7
TORSDOF 5
ENDMDL
MODEL 4
REMARK VINA RESULT:      -5.5      3.161      7.141
REMARK  5 active torsions:
REMARK  status: ('A' for Active; 'I' for Inactive)
REMARK    1  A    between atoms: C_3  and  C_5 
REMARK    2  A    between atoms: C_4  and  C_6 
REMARK    3  A    between atoms: C_7  and  C_10 
REMARK    4  A    between atoms: C_8  and  C_9 
REMARK    5  A    between atoms: C_11  and  C_12 
ROOT
HETATM    1  O   UNK     0       6.269  11.707   0.219  0.00  0.00    -0.189 OA
HETATM    2  C   UNK     0       4.460  13.300  -0.681  0.00  0.00     0.029 C 
HETATM    3  C   UNK     0       5.183  12.458   0.055  0.00  0.00     0.150 C 
ENDROOT
BRANCH   3   4
HETATM    4  C   UNK     0       4.739  12.079   1.250  0.00  0.00     0.128 C 
HETATM    5  N   UNK     0       5.330  10.897   1.094  0.00  0.00    -0.146 N 
HETATM    6  C   UNK     0       4.006  12.904   1.989  0.00  0.00     0.025 C 
ENDBRANCH   3   4
BRANCH   2   7
HETATM    7  C   UNK     0       4.904  13.680  -1.876  0.00  0.00     0.002 C 
HETATM    8  C   UNK     0       4.216  14.554  -2.602  0.00  0.00     0.000 C 
BRANCH   8   9
HETATM    9  C   UNK     0       4.661  14.934  -3.797  0.00  0.00     0.000 C 
HETATM   10  C   UNK     0       5.387  14.091  -4.529  0.00  0.00     0.000 C 
BRANCH  10  11
HETATM   11  C   UNK     0       5.832  14.469  -5.723  0.00  0.00     0.000 C 
HETATM   12  C   UNK     0       6.177  15.733  -5.944  0.00  0.00     0.000 C 
BRANCH  12  13
HETATM   13  C   UNK     0       6.622  16.111  -7.138  0.00  0.00     0.000 C 
HETATM   14  C   UNK     0       6.511  15.285  -8.177  0.00  0.00     0.000 C 
ENDBRANCH  12  13
ENDBRANCH  10  11
ENDBRANCH   8   9
ENDBRANCH   2   7
TORSDOF 5
ENDMDL
MODEL 5
REMARK VINA RESULT:      -5.5      4.068      7.902
REMARK  5 active torsions:
REMARK  status: ('A' for Active; 'I' for Inactive)
REMARK    1  A    between atoms: C_3  and  C_5 
REMARK    2  A    between atoms: C_4  and  C_6 
REMARK    3  A    between atoms: C_7  and  C_10 
REMARK    4  A    between atoms: C_8  and  C_9 
REMARK    5  A    between atoms: C_11  and  C_12 
ROOT
HETATM    1  O   UNK     0       7.568  12.104   2.956  0.00  0.00    -0.189 OA
HETATM    2  C   UNK     0       5.686  10.637   1.994  0.00  0.00     0.029 C 
HETATM    3  C   UNK     0       6.604  11.206   2.773  0.00  0.00     0.150 C 
ENDROOT
BRANCH   3   4
HETATM    4  C   UNK     0       6.766  10.778   4.022  0.00  0.00     0.128 C 
HETATM    5  N   UNK     0       8.084  10.901   3.894  0.00  0.00    -0.146 N 
HETATM    6  C   UNK     0       5.712  10.456   4.764  0.00  0.00     0.025 C 
ENDBRANCH   3   4
BRANCH   2   7
HETATM    7  C   UNK     0       5.525  11.065   0.745  0.00  0.00     0.002 C 
HETATM    8  C   UNK     0       4.863  12.190   0.500  0.00  0.00     0.000 C 
BRANCH   8   9
HETATM    9  C   UNK     0       4.702  12.617  -0.750  0.00  0.00     0.000 C 
HETATM   10  C   UNK     0       4.094  13.781  -0.976  0.00  0.00     0.000 C 
BRANCH  10  11
HETATM   11  C   UNK     0       3.933  14.209  -2.225  0.00  0.00     0.000 C 
HETATM   12  C   UNK     0       4.973  14.291  -3.047  0.00  0.00     0.000 C 
BRANCH  12  13
HETATM   13  C   UNK     0       4.812  14.719  -4.296  0.00  0.00     0.000 C 
HETATM   14  C   UNK     0       5.685  14.359  -5.236  0.00  0.00     0.000 C 
ENDBRANCH  12  13
ENDBRANCH  10  11
ENDBRANCH   8   9
ENDBRANCH   2   7
TORSDOF 5
ENDMDL
