MODEL 1
REMARK VINA RESULT:      -5.5      0.000      0.000
REMARK  5 active torsions:
REMARK  status: ('A' for Active; 'I' for Inactive)
REMARK    1  A    between atoms: C_3  and  C_5 
REMARK    2  A    between atoms: C_4  and  C_6 
REMARK    3  A    between atoms: C_7  and  C_10 
REMARK    4  A    between atoms: C_8  and  C_9 
REMARK    5  A    between atoms: C_11  and  C_12 
ROOT
HETATM    1  O   UNK     0       7.536  16.081  -5.139  0.00  0.00    -0.189 OA
HETATM    2  C   UNK     0       5.340  14.760  -4.911  0.00  0.00     0.029 C 
HETATM    3  C   UNK     0       6.360  15.497  -5.348  0.00  0.00     0.150 C 
ENDROOT
BRANCH   3   4
HETATM    4  C   UNK     0       6.352  15.959  -6.595  0.00  0.00     0.128 C 
HETATM    5  N   UNK     0       6.524  17.196  -6.138  0.00  0.00    -0.146 N 
HETATM    6  C   UNK     0       6.199  15.127  -7.620  0.00  0.00     0.025 C 
ENDBRANCH   3   4
BRANCH   2   7
HETATM    7  C   UNK     0       5.348  14.298  -3.664  0.00  0.00     0.002 C 
HETATM    8  C   UNK     0       4.303  14.494  -2.867  0.00  0.00     0.000 C 
BRANCH   8   9
HETATM    9  C   UNK     0       4.311  14.031  -1.620  0.00  0.00     0.000 C 
HETATM   10  C   UNK     0       5.001  12.929  -1.330  0.00  0.00     0.000 C 
BRANCH  10  11
HETATM   11  C   UNK     0       5.010  12.466  -0.083  0.00  0.00     0.000 C 
HETATM   12  C   UNK     0       5.473  11.249   0.178  0.00  0.00     0.000 C 
BRANCH  12  13
HETATM   13  C   UNK     0       5.482  10.786   1.425  0.00  0.00     0.000 C 
HETATM   14  C   UNK     0       6.622  10.768   2.115  0.00  0.00     0.000 C 
ENDBRANCH  12  13
ENDBRANCH  10  11
ENDBRANCH   8   9
ENDBRANCH   2   7
TORSDOF 5
ENDMDL
MODEL 2
REMARK VINA RESULT:      -5.5      4.273      8.061
REMARK  5 active torsions:
REMARK  status: ('A' for Active; 'I' for Inactive)
REMARK    1  A    between atoms: C_3  and  C_5 
REMARK    2  A    between atoms: C_4  and  C_6 
REMARK    3  A    between atoms: C_7  and  C_10 
REMARK    4  A    between atoms: C_8  and  C_9 
REMARK    5  A    between atoms: C_11  and  C_12 
ROOT
HETATM    1  O   UNK     0       7.645  11.249   2.753  0.00  0.00    -0.189 OA
HETATM    2  C   UNK     0       5.105  11.654   2.763  0.00  0.00     0.029 C 
HETATM    3  C   UNK     0       6.354  11.306   3.066  0.00  0.00     0.150 C 
ENDROOT
BRANCH   3   4
HETATM    4  C   UNK     0       6.608  10.703   4.224  0.00  0.00     0.128 C 
HETATM    5  N   UNK     0       7.913  10.831   4.005  0.00  0.00    -0.146 N 
HETATM    6  C   UNK     0       5.612  10.287   4.999  0.00  0.00     0.025 C 
ENDBRANCH   3   4
BRANCH   2   7
HETATM    7  C   UNK     0       4.851  12.257   1.605  0.00  0.00     0.002 C 
HETATM    8  C   UNK     0       5.067  11.626   0.457  0.00  0.00     0.000 C 
BRANCH   8   9
HETATM    9  C   UNK     0       4.813  12.230  -0.701  0.00  0.00     0.000 C 
HETATM   10  C   UNK     0       4.037  13.312  -0.724  0.00  0.00     0.000 C 
BRANCH  10  11
HETATM   11  C   UNK     0       3.782  13.917  -1.881  0.00  0.00     0.000 C 
HETATM   12  C   UNK     0       4.777  14.322  -2.661  0.00  0.00     0.000 C 
BRANCH  12  13
HETATM   13  C   UNK     0       4.522  14.926  -3.818  0.00  0.00     0.000 C 
HETATM   14  C   UNK     0       5.233  14.610  -4.899  0.00  0.00     0.000 C 
ENDBRANCH  12  13
ENDBRANCH  10  11
ENDBRANCH   8   9
ENDBRANCH   2   7
TORSDOF 5
ENDMDL
MODEL 3
REMARK VINA RESULT:      -5.5      3.456      7.252
REMARK  5 active torsions:
REMARK  status: ('A' for Active; 'I' for Inactive)
REMARK    1  A    between atoms: C_3  and  C_5 
REMARK    2  A    between atoms: C_4  and  C_6 
REMARK    3  A    between atoms: C_7  and  C_10 
REMARK    4  A    between atoms: C_8  and  C_9 
REMARK    5  A    between atoms: C_11  and  C_12 
ROOT
HETATM    1  O   UNK     0       7.637  10.900   0.116  0.00  0.00    -0.189 OA
HETATM    2  C   UNK     0       5.321  12.021   0.152  0.00  0.00     0.029 C 
HETATM    3  C   UNK     0       6.435  11.357   0.457  0.00  0.00     0.150 C 
ENDROOT
BRANCH   3   4
HETATM    4  C   UNK     0       6.572  10.819   1.665  0.00  0.00     0.128 C 
HETATM    5  N   UNK     0       5.252  10.843   1.826  0.00  0.00    -0.146 N 
HETATM    6  C   UNK     0       7.779  10.528   2.138  0.00  0.00     0.025 C 
ENDBRANCH   3   4
BRANCH   2   7
HETATM    7  C   UNK     0       5.184  12.559  -1.057  0.00  0.00     0.002 C 
HETATM    8  C   UNK     0       4.522  13.700  -1.214  0.00  0.00     0.000 C 
BRANCH   8   9
HETATM    9  C   UNK     0       4.385  14.237  -2.423  0.00  0.00     0.000 C 
HETATM   10  C   UNK     0       5.368  14.117  -3.313  0.00  0.00     0.000 C 
BRANCH  10  11
HETATM   11  C   UNK     0       5.232  14.654  -4.522  0.00  0.00     0.000 C 
HETATM   12  C   UNK     0       6.002  14.252  -5.527  0.00  0.00     0.000 C 
BRANCH  12  13
HETATM   13  C   UNK     0       5.866  14.789  -6.736  0.00  0.00     0.000 C 
HETATM   14  C   UNK     0       6.938  15.249  -7.380  0.00  0.00     0.000 C 
ENDBRANCH  12  13
ENDBRANCH  10  11
ENDBRANCH   8   9
ENDBRANCH   2   7
TORSDOF 5
ENDMDL
MODEL 4
REMARK VINA RESULT:      -5.4      1.251      1.651
REMARK  5 active torsions:
REMARK  status: ('A' for Active; 'I' for Inactive)
REMARK    1  A    between atoms: C_3  and  C_5 
REMARK    2  A    between atoms: C_4  and  C_6 
REMARK    3  A    between atoms: C_7  and  C_10 
REMARK    4  A    between atoms: C_8  and  C_9 
REMARK    5  A    between atoms: C_11  and  C_12 
ROOT
HETATM    1  O   UNK     0       7.750  16.132  -6.015  0.00  0.00    -0.189 OA
HETATM    2  C   UNK     0       5.784  14.473  -6.024  0.00  0.00     0.029 C 
HETATM    3  C   UNK     0       6.765  15.308  -6.361  0.00  0.00     0.150 C 
ENDROOT
BRANCH   3   4
HETATM    4  C   UNK     0       7.016  15.547  -7.645  0.00  0.00     0.128 C 
HETATM    5  N   UNK     0       8.129  16.193  -7.307  0.00  0.00    -0.146 N 
HETATM    6  C   UNK     0       6.185  15.111  -8.585  0.00  0.00     0.025 C 
ENDBRANCH   3   4
BRANCH   2   7
HETATM    7  C   UNK     0       5.532  14.234  -4.740  0.00  0.00     0.002 C 
HETATM    8  C   UNK     0       4.516  14.834  -4.131  0.00  0.00     0.000 C 
BRANCH   8   9
HETATM    9  C   UNK     0       4.266  14.594  -2.847  0.00  0.00     0.000 C 
HETATM   10  C   UNK     0       5.263  14.617  -1.965  0.00  0.00     0.000 C 
BRANCH  10  11
HETATM   11  C   UNK     0       5.014  14.377  -0.680  0.00  0.00     0.000 C 
HETATM   12  C   UNK     0       4.628  13.170  -0.284  0.00  0.00     0.000 C 
BRANCH  12  13
HETATM   13  C   UNK     0       4.378  12.930   1.000  0.00  0.00     0.000 C 
HETATM   14  C   UNK     0       4.960  11.895   1.604  0.00  0.00     0.000 C 
ENDBRANCH  12  13
ENDBRANCH  10  11
ENDBRANCH   8   9
ENDBRANCH   2   7
TORSDOF 5
ENDMDL
MODEL 5
REMARK VINA RESULT:      -5.4      2.969      7.130
REMARK  5 active torsions:
REMARK  status: ('A' for Active; 'I' for Inactive)
REMARK    1  A    between atoms: C_3  and  C_5 
REMARK    2  A    between atoms: C_4  and  C_6 
REMARK    3  A    between atoms: C_7  and  C_10 
REMARK    4  A    between atoms: C_8  and  C_9 
REMARK    5  A    between atoms: C_11  and  C_12 
ROOT
HETATM    1  O   UNK     0       5.953  11.999  -0.620  0.00  0.00    -0.189 OA
HETATM    2  C   UNK     0       3.855  13.471  -0.845  0.00  0.00     0.029 C 
HETATM    3  C   UNK     0       4.830  12.678  -0.404  0.00  0.00     0.150 C 
ENDROOT
BRANCH   3   4
HETATM    4  C   UNK     0       4.827  12.271   0.862  0.00  0.00     0.128 C 
HETATM    5  N   UNK     0       4.187  13.381   1.218  0.00  0.00    -0.146 N 
HETATM    6  C   UNK     0       5.377  11.108   1.196  0.00  0.00     0.025 C 
ENDBRANCH   3   4
BRANCH   2   7
HETATM    7  C   UNK     0       3.858  13.878  -2.111  0.00  0.00     0.002 C 
HETATM    8  C   UNK     0       4.856  14.621  -2.576  0.00  0.00     0.000 C 
BRANCH   8   9
HETATM    9  C   UNK     0       4.858  15.028  -3.843  0.00  0.00     0.000 C 
HETATM   10  C   UNK     0       5.792  14.578  -4.679  0.00  0.00     0.000 C 
BRANCH  10  11
HETATM   11  C   UNK     0       5.795  14.985  -5.945  0.00  0.00     0.000 C 
HETATM   12  C   UNK     0       6.926  15.007  -6.641  0.00  0.00     0.000 C 
BRANCH  12  13
HETATM   13  C   UNK     0       6.929  15.414  -7.908  0.00  0.00     0.000 C 
HETATM   14  C   UNK     0       5.970  15.004  -8.735  0.00  0.00     0.000 C 
ENDBRANCH  12  13
ENDBRANCH  10  11
ENDBRANCH   8   9
ENDBRANCH   2   7
TORSDOF 5
ENDMDL
