MODEL 1
REMARK VINA RESULT:      -5.5      0.000      0.000
REMARK  5 active torsions:
REMARK  status: ('A' for Active; 'I' for Inactive)
REMARK    1  A    between atoms: C_3  and  C_5 
REMARK    2  A    between atoms: C_4  and  C_6 
REMARK    3  A    between atoms: C_7  and  C_10 
REMARK    4  A    between atoms: C_8  and  C_9 
REMARK    5  A    between atoms: C_11  and  C_12 
ROOT
HETATM    1  O   UNK     0       6.538  16.762  -6.624  0.00  0.00    -0.189 OA
HETATM    2  C   UNK     0       6.171  14.281  -6.048  0.00  0.00     0.029 C 
HETATM    3  C   UNK     0       6.427  15.437  -6.659  0.00  0.00     0.150 C 
ENDROOT
BRANCH   3   4
HETATM    4  C   UNK     0       6.748  15.444  -7.950  0.00  0.00     0.128 C 
HETATM    5  N   UNK     0       7.920  15.999  -7.656  0.00  0.00    -0.146 N 
HETATM    6  C   UNK     0       5.900  14.969  -8.856  0.00  0.00     0.025 C 
ENDBRANCH   3   4
BRANCH   2   7
HETATM    7  C   UNK     0       5.851  14.274  -4.758  0.00  0.00     0.002 C 
HETATM    8  C   UNK     0       4.661  14.709  -4.358  0.00  0.00     0.000 C 
BRANCH   8   9
HETATM    9  C   UNK     0       4.342  14.701  -3.067  0.00  0.00     0.000 C 
HETATM   10  C   UNK     0       5.245  14.320  -2.166  0.00  0.00     0.000 C 
BRANCH  10  11
HETATM   11  C   UNK     0       4.926  14.312  -0.874  0.00  0.00     0.000 C 
HETATM   12  C   UNK     0       4.117  13.378  -0.387  0.00  0.00     0.000 C 
BRANCH  12  13
HETATM   13  C   UNK     0       3.798  13.370   0.904  0.00  0.00     0.000 C 
HETATM   14  C   UNK     0       4.651  12.862   1.792  0.00  0.00     0.000 C 
ENDBRANCH  12  13
ENDBRANCH  10  11
ENDBRANCH   8   9
ENDBRANCH   2   7
TORSDOF 5
ENDMDL
MODEL 2
REMARK VINA RESULT:      -5.4      3.418      7.345
REMARK  5 active torsions:
REMARK  status: ('A' for Active; 'I' for Inactive)
REMARK    1  A    between atoms: C_3  and  C_5 
REMARK    2  A    between atoms: C_4  and  C_6 
REMARK    3  A    between atoms: C_7  and  C_10 
REMARK    4  A    between atoms: C_8  and  C_9 
REMARK    5  A    between atoms: C_11  and  C_12 
ROOT
HETATM    1  O   UNK     0       5.874  12.007  -0.515  0.00  0.00    -0.189 OA
HETATM    2  C   UNK     0       3.859  13.572  -0.847  0.00  0.00     0.029 C 
HETATM    3  C   UNK     0       4.778  12.743  -0.355  0.00  0.00     0.150 C 
ENDROOT
BRANCH   3   4
HETATM    4  C   UNK     0       4.708  12.363   0.918  0.00  0.00     0.128 C 
HETATM    5  N   UNK     0       5.401  11.265   0.627  0.00  0.00    -0.146 N 
HETATM    6  C   UNK     0       4.077  13.116   1.812  0.00  0.00     0.025 C 
ENDBRANCH   3   4
BRANCH   2   7
HETATM    7  C   UNK     0       3.929  13.953  -2.120  0.00  0.00     0.002 C 
HETATM    8  C   UNK     0       4.993  14.609  -2.568  0.00  0.00     0.000 C 
BRANCH   8   9
HETATM    9  C   UNK     0       5.062  14.989  -3.841  0.00  0.00     0.000 C 
HETATM   10  C   UNK     0       5.711  14.230  -4.722  0.00  0.00     0.000 C 
BRANCH  10  11
HETATM   11  C   UNK     0       5.781  14.610  -5.995  0.00  0.00     0.000 C 
HETATM   12  C   UNK     0       6.893  15.154  -6.475  0.00  0.00     0.000 C 
BRANCH  12  13
HETATM   13  C   UNK     0       6.962  15.533  -7.748  0.00  0.00     0.000 C 
HETATM   14  C   UNK     0       6.096  15.042  -8.632  0.00  0.00     0.000 C 
ENDBRANCH  12  13
ENDBRANCH  10  11
ENDBRANCH   8   9
ENDBRANCH   2   7
TORSDOF 5
ENDMDL
MODEL 3
REMARK VINA RESULT:      -5.4      1.714      2.515
REMARK  5 active torsions:
REMARK  status: ('A' for Active; 'I' for Inactive)
REMARK    1  A    between atoms: C_3  and  C_5 
REMARK    2  A    between atoms: C_4  and  C_6 
REMARK    3  A    between atoms: C_7  and  C_10 
REMARK    4  A    between atoms: C_8  and  C_9 
REMARK    5  A    between atoms: C_11  and  C_12 
ROOT
HETATM    1  O   UNK     0       7.514  15.081  -4.864  0.00  0.00    -0.189 OA
HETATM    2  C   UNK     0       5.030  14.874  -4.225  0.00  0.00     0.029 C 
HETATM    3  C   UNK     0       6.185  15.133  -4.836  0.00  0.00     0.150 C 
ENDROOT
BRANCH   3   4
HETATM    4  C   UNK     0       6.184  15.744  -6.017  0.00  0.00     0.128 C 
HETATM    5  N   UNK     0       5.881  14.594  -6.612  0.00  0.00    -0.146 N 
HETATM    6  C   UNK     0       6.445  17.044  -6.102  0.00  0.00     0.025 C 
ENDBRANCH   3   4
BRANCH   2   7
HETATM    7  C   UNK     0       5.031  14.263  -3.044  0.00  0.00     0.002 C 
HETATM    8  C   UNK     0       3.927  14.223  -2.307  0.00  0.00     0.000 C 
BRANCH   8   9
HETATM    9  C   UNK     0       3.929  13.611  -1.125  0.00  0.00     0.000 C 
HETATM   10  C   UNK     0       4.926  12.786  -0.812  0.00  0.00     0.000 C 
BRANCH  10  11
HETATM   11  C   UNK     0       4.929  12.174   0.369  0.00  0.00     0.000 C 
HETATM   12  C   UNK     0       5.759  11.164   0.601  0.00  0.00     0.000 C 
BRANCH  12  13
HETATM   13  C   UNK     0       5.762  10.552   1.782  0.00  0.00     0.000 C 
HETATM   14  C   UNK     0       5.341  11.203   2.865  0.00  0.00     0.000 C 
ENDBRANCH  12  13
ENDBRANCH  10  11
ENDBRANCH   8   9
ENDBRANCH   2   7
TORSDOF 5
ENDMDL
MODEL 4
REMARK VINA RESULT:      -5.3      4.817      8.437
REMARK  5 active torsions:
REMARK  status: ('A' for Active; 'I' for Inactive)
REMARK    1  A    between atoms: C_3  and  C_5 
REMARK    2  A    between atoms: C_4  and  C_6 
REMARK    3  A    between atoms: C_7  and  C_10 
REMARK    4  A    between atoms: C_8  and  C_9 
REMARK    5  A    between atoms: C_11  and  C_12 
ROOT
HETATM    1  O   UNK     0       7.989  11.848   2.620  0.00  0.00    -0.189 OA
HETATM    2  C   UNK     0       5.817  10.616   2.001  0.00  0.00     0.029 C 
HETATM    3  C   UNK     0       6.896  11.091   2.622  0.00  0.00     0.150 C 
ENDROOT
BRANCH   3   4
HETATM    4  C   UNK     0       7.153  10.721   3.873  0.00  0.00     0.128 C 
HETATM    5  N   UNK     0       8.458  10.807   3.630  0.00  0.00    -0.146 N 
HETATM    6  C   UNK     0       6.159  10.460   4.715  0.00  0.00     0.025 C 
ENDBRANCH   3   4
BRANCH   2   7
HETATM    7  C   UNK     0       5.559  10.986   0.750  0.00  0.00     0.002 C 
HETATM    8  C   UNK     0       4.965  12.148   0.501  0.00  0.00     0.000 C 
BRANCH   8   9
HETATM    9  C   UNK     0       4.708  12.517  -0.751  0.00  0.00     0.000 C 
HETATM   10  C   UNK     0       4.233  13.737  -0.994  0.00  0.00     0.000 C 
BRANCH  10  11
HETATM   11  C   UNK     0       3.976  14.107  -2.246  0.00  0.00     0.000 C 
HETATM   12  C   UNK     0       4.960  14.496  -3.048  0.00  0.00     0.000 C 
BRANCH  12  13
HETATM   13  C   UNK     0       4.703  14.866  -4.299  0.00  0.00     0.000 C 
HETATM   14  C   UNK     0       5.518  14.485  -5.282  0.00  0.00     0.000 C 
ENDBRANCH  12  13
ENDBRANCH  10  11
ENDBRANCH   8   9
ENDBRANCH   2   7
TORSDOF 5
ENDMDL
MODEL 5
REMARK VINA RESULT:      -5.3     15.165     16.199
REMARK  5 active torsions:
REMARK  status: ('A' for Active; 'I' for Inactive)
REMARK    1  A    between atoms: C_3  and  C_5 
REMARK    2  A    between atoms: C_4  and  C_6 
REMARK    3  A    between atoms: C_7  and  C_10 
REMARK    4  A    between atoms: C_8  and  C_9 
REMARK    5  A    between atoms: C_11  and  C_12 
ROOT
HETATM    1  O   UNK     0       0.292   1.608   5.473  0.00  0.00    -0.189 OA
HETATM    2  C   UNK     0       2.730   1.780   4.669  0.00  0.00     0.029 C 
HETATM    3  C   UNK     0       1.446   1.465   4.827  0.00  0.00     0.150 C 
ENDROOT
BRANCH   3   4
HETATM    4  C   UNK     0       0.880   0.577   4.014  0.00  0.00     0.128 C 
HETATM    5  N   UNK     0      -0.321   0.943   4.450  0.00  0.00    -0.146 N 
HETATM    6  C   UNK     0       1.630  -0.188   3.228  0.00  0.00     0.025 C 
ENDBRANCH   3   4
BRANCH   2   7
HETATM    7  C   UNK     0       3.296   2.668   5.482  0.00  0.00     0.002 C 
HETATM    8  C   UNK     0       4.384   2.349   6.174  0.00  0.00     0.000 C 
BRANCH   8   9
HETATM    9  C   UNK     0       4.948   3.238   6.987  0.00  0.00     0.000 C 
HETATM   10  C   UNK     0       4.265   4.318   7.360  0.00  0.00     0.000 C 
BRANCH  10  11
HETATM   11  C   UNK     0       4.829   5.208   8.172  0.00  0.00     0.000 C 
HETATM   12  C   UNK     0       4.412   6.469   8.183  0.00  0.00     0.000 C 
BRANCH  12  13
HETATM   13  C   UNK     0       4.976   7.358   8.995  0.00  0.00     0.000 C 
HETATM   14  C   UNK     0       4.776   8.659   8.791  0.00  0.00     0.000 C 
ENDBRANCH  12  13
ENDBRANCH  10  11
ENDBRANCH   8   9
ENDBRANCH   2   7
TORSDOF 5
ENDMDL
