MODEL 1
REMARK VINA RESULT:      -5.5      0.000      0.000
REMARK  5 active torsions:
REMARK  status: ('A' for Active; 'I' for Inactive)
REMARK    1  A    between atoms: C_3  and  C_5 
REMARK    2  A    between atoms: C_4  and  C_6 
REMARK    3  A    between atoms: C_7  and  C_10 
REMARK    4  A    between atoms: C_8  and  C_9 
REMARK    5  A    between atoms: C_11  and  C_12 
ROOT
HETATM    1  O   UNK     0      -6.029  11.311  54.405  0.00  0.00    -0.189 OA
HETATM    2  C   UNK     0      -7.630  13.203  53.715  0.00  0.00     0.029 C 
HETATM    3  C   UNK     0      -6.561  12.460  53.999  0.00  0.00     0.150 C 
ENDROOT
BRANCH   3   4
HETATM    4  C   UNK     0      -5.343  12.975  53.858  0.00  0.00     0.128 C 
HETATM    5  N   UNK     0      -4.944  12.329  54.950  0.00  0.00    -0.146 N 
HETATM    6  C   UNK     0      -5.071  13.792  52.847  0.00  0.00     0.025 C 
ENDBRANCH   3   4
BRANCH   2   7
HETATM    7  C   UNK     0      -8.848  12.688  53.856  0.00  0.00     0.002 C 
HETATM    8  C   UNK     0      -9.305  11.795  52.985  0.00  0.00     0.000 C 
BRANCH   8   9
HETATM    9  C   UNK     0     -10.523  11.280  53.126  0.00  0.00     0.000 C 
HETATM   10  C   UNK     0     -11.177  10.830  52.057  0.00  0.00     0.000 C 
BRANCH  10  11
HETATM   11  C   UNK     0     -12.396  10.315  52.197  0.00  0.00     0.000 C 
HETATM   12  C   UNK     0     -13.468  11.023  51.859  0.00  0.00     0.000 C 
BRANCH  12  13
HETATM   13  C   UNK     0     -14.686  10.508  51.999  0.00  0.00     0.000 C 
HETATM   14  C   UNK     0     -15.063  10.016  53.178  0.00  0.00     0.000 C 
ENDBRANCH  12  13
ENDBRANCH  10  11
ENDBRANCH   8   9
ENDBRANCH   2   7
TORSDOF 5
ENDMDL
MODEL 2
REMARK VINA RESULT:      -5.3     23.168     26.873
REMARK  5 active torsions:
REMARK  status: ('A' for Active; 'I' for Inactive)
REMARK    1  A    between atoms: C_3  and  C_5 
REMARK    2  A    between atoms: C_4  and  C_6 
REMARK    3  A    between atoms: C_7  and  C_10 
REMARK    4  A    between atoms: C_8  and  C_9 
REMARK    5  A    between atoms: C_11  and  C_12 
ROOT
HETATM    1  O   UNK     0       0.421  32.576  60.786  0.00  0.00    -0.189 OA
HETATM    2  C   UNK     0       0.597  33.436  58.368  0.00  0.00     0.029 C 
HETATM    3  C   UNK     0       0.206  32.866  59.506  0.00  0.00     0.150 C 
ENDROOT
BRANCH   3   4
HETATM    4  C   UNK     0      -0.958  32.224  59.556  0.00  0.00     0.128 C 
HETATM    5  N   UNK     0      -1.132  32.438  58.255  0.00  0.00    -0.146 N 
HETATM    6  C   UNK     0      -1.396  31.714  60.702  0.00  0.00     0.025 C 
ENDBRANCH   3   4
BRANCH   2   7
HETATM    7  C   UNK     0       1.761  34.079  58.318  0.00  0.00     0.002 C 
HETATM    8  C   UNK     0       2.725  33.661  57.505  0.00  0.00     0.000 C 
BRANCH   8   9
HETATM    9  C   UNK     0       3.888  34.304  57.456  0.00  0.00     0.000 C 
HETATM   10  C   UNK     0       3.941  35.534  56.948  0.00  0.00     0.000 C 
BRANCH  10  11
HETATM   11  C   UNK     0       5.104  36.177  56.898  0.00  0.00     0.000 C 
HETATM   12  C   UNK     0       6.020  35.985  57.841  0.00  0.00     0.000 C 
BRANCH  12  13
HETATM   13  C   UNK     0       7.183  36.629  57.791  0.00  0.00     0.000 C 
HETATM   14  C   UNK     0       8.234  36.147  58.453  0.00  0.00     0.000 C 
ENDBRANCH  12  13
ENDBRANCH  10  11
ENDBRANCH   8   9
ENDBRANCH   2   7
TORSDOF 5
ENDMDL
MODEL 3
REMARK VINA RESULT:      -5.3      3.424      7.387
REMARK  5 active torsions:
REMARK  status: ('A' for Active; 'I' for Inactive)
REMARK    1  A    between atoms: C_3  and  C_5 
REMARK    2  A    between atoms: C_4  and  C_6 
REMARK    3  A    between atoms: C_7  and  C_10 
REMARK    4  A    between atoms: C_8  and  C_9 
REMARK    5  A    between atoms: C_11  and  C_12 
ROOT
HETATM    1  O   UNK     0     -13.363  10.111  54.572  0.00  0.00    -0.189 OA
HETATM    2  C   UNK     0     -12.309  10.790  52.326  0.00  0.00     0.029 C 
HETATM    3  C   UNK     0     -13.140  10.418  53.298  0.00  0.00     0.150 C 
ENDROOT
BRANCH   3   4
HETATM    4  C   UNK     0     -14.424  10.208  53.023  0.00  0.00     0.128 C 
HETATM    5  N   UNK     0     -14.623   9.790  54.270  0.00  0.00    -0.146 N 
HETATM    6  C   UNK     0     -14.903  10.463  51.810  0.00  0.00     0.025 C 
ENDBRANCH   3   4
BRANCH   2   7
HETATM    7  C   UNK     0     -11.025  11.000  52.601  0.00  0.00     0.002 C 
HETATM    8  C   UNK     0     -10.671  11.876  53.534  0.00  0.00     0.000 C 
BRANCH   8   9
HETATM    9  C   UNK     0      -9.386  12.085  53.808  0.00  0.00     0.000 C 
HETATM   10  C   UNK     0      -8.478  11.964  52.842  0.00  0.00     0.000 C 
BRANCH  10  11
HETATM   11  C   UNK     0      -7.193  12.173  53.116  0.00  0.00     0.000 C 
HETATM   12  C   UNK     0      -6.694  13.404  53.104  0.00  0.00     0.000 C 
BRANCH  12  13
HETATM   13  C   UNK     0      -5.409  13.613  53.377  0.00  0.00     0.000 C 
HETATM   14  C   UNK     0      -4.555  13.858  52.386  0.00  0.00     0.000 C 
ENDBRANCH  12  13
ENDBRANCH  10  11
ENDBRANCH   8   9
ENDBRANCH   2   7
TORSDOF 5
ENDMDL
MODEL 4
REMARK VINA RESULT:      -5.3     23.604     26.709
REMARK  5 active torsions:
REMARK  status: ('A' for Active; 'I' for Inactive)
REMARK    1  A    between atoms: C_3  and  C_5 
REMARK    2  A    between atoms: C_4  and  C_6 
REMARK    3  A    between atoms: C_7  and  C_10 
REMARK    4  A    between atoms: C_8  and  C_9 
REMARK    5  A    between atoms: C_11  and  C_12 
ROOT
HETATM    1  O   UNK     0       0.879  32.857  60.631  0.00  0.00    -0.189 OA
HETATM    2  C   UNK     0       0.415  33.500  58.184  0.00  0.00     0.029 C 
HETATM    3  C   UNK     0       0.348  33.013  59.422  0.00  0.00     0.150 C 
ENDROOT
BRANCH   3   4
HETATM    4  C   UNK     0      -0.714  32.306  59.796  0.00  0.00     0.128 C 
HETATM    5  N   UNK     0      -1.183  32.352  58.552  0.00  0.00    -0.146 N 
HETATM    6  C   UNK     0      -0.848  31.909  61.057  0.00  0.00     0.025 C 
ENDBRANCH   3   4
BRANCH   2   7
HETATM    7  C   UNK     0       1.477  34.207  57.809  0.00  0.00     0.002 C 
HETATM    8  C   UNK     0       2.647  33.609  57.612  0.00  0.00     0.000 C 
BRANCH   8   9
HETATM    9  C   UNK     0       3.709  34.317  57.238  0.00  0.00     0.000 C 
HETATM   10  C   UNK     0       3.643  35.647  57.219  0.00  0.00     0.000 C 
BRANCH  10  11
HETATM   11  C   UNK     0       4.704  36.355  56.845  0.00  0.00     0.000 C 
HETATM   12  C   UNK     0       5.225  36.197  55.633  0.00  0.00     0.000 C 
BRANCH  12  13
HETATM   13  C   UNK     0       6.287  36.905  55.259  0.00  0.00     0.000 C 
HETATM   14  C   UNK     0       6.738  36.808  54.009  0.00  0.00     0.000 C 
ENDBRANCH  12  13
ENDBRANCH  10  11
ENDBRANCH   8   9
ENDBRANCH   2   7
TORSDOF 5
ENDMDL
MODEL 5
REMARK VINA RESULT:      -5.2     22.928     26.541
REMARK  5 active torsions:
REMARK  status: ('A' for Active; 'I' for Inactive)
REMARK    1  A    between atoms: C_3  and  C_5 
REMARK    2  A    between atoms: C_4  and  C_6 
REMARK    3  A    between atoms: C_7  and  C_10 
REMARK    4  A    between atoms: C_8  and  C_9 
REMARK    5  A    between atoms: C_11  and  C_12 
ROOT
HETATM    1  O   UNK     0      -0.009  32.322  60.910  0.00  0.00    -0.189 OA
HETATM    2  C   UNK     0       0.972  33.058  58.649  0.00  0.00     0.029 C 
HETATM    3  C   UNK     0       0.183  32.622  59.629  0.00  0.00     0.150 C 
ENDROOT
BRANCH   3   4
HETATM    4  C   UNK     0      -1.071  32.270  59.358  0.00  0.00     0.128 C 
HETATM    5  N   UNK     0      -0.916  32.684  58.103  0.00  0.00    -0.146 N 
HETATM    6  C   UNK     0      -1.838  31.736  60.302  0.00  0.00     0.025 C 
ENDBRANCH   3   4
BRANCH   2   7
HETATM    7  C   UNK     0       2.226  33.411  58.919  0.00  0.00     0.002 C 
HETATM    8  C   UNK     0       3.186  33.226  58.019  0.00  0.00     0.000 C 
BRANCH   8   9
HETATM    9  C   UNK     0       4.439  33.578  58.291  0.00  0.00     0.000 C 
HETATM   10  C   UNK     0       4.788  33.861  59.545  0.00  0.00     0.000 C 
BRANCH  10  11
HETATM   11  C   UNK     0       6.041  34.214  59.817  0.00  0.00     0.000 C 
HETATM   12  C   UNK     0       6.965  33.288  60.048  0.00  0.00     0.000 C 
BRANCH  12  13
HETATM   13  C   UNK     0       8.218  33.640  60.321  0.00  0.00     0.000 C 
HETATM   14  C   UNK     0       8.515  34.923  60.521  0.00  0.00     0.000 C 
ENDBRANCH  12  13
ENDBRANCH  10  11
ENDBRANCH   8   9
ENDBRANCH   2   7
TORSDOF 5
ENDMDL
