MODEL 1
REMARK VINA RESULT:      -5.4      0.000      0.000
REMARK  5 active torsions:
REMARK  status: ('A' for Active; 'I' for Inactive)
REMARK    1  A    between atoms: C_3  and  C_5 
REMARK    2  A    between atoms: C_4  and  C_6 
REMARK    3  A    between atoms: C_7  and  C_10 
REMARK    4  A    between atoms: C_8  and  C_9 
REMARK    5  A    between atoms: C_11  and  C_12 
ROOT
HETATM    1  O   UNK     0       5.210  36.645  58.244  0.00  0.00    -0.189 OA
HETATM    2  C   UNK     0       4.058  34.852  56.803  0.00  0.00     0.029 C 
HETATM    3  C   UNK     0       4.806  35.859  57.251  0.00  0.00     0.150 C 
ENDROOT
BRANCH   3   4
HETATM    4  C   UNK     0       5.607  36.509  56.411  0.00  0.00     0.128 C 
HETATM    5  N   UNK     0       6.554  36.549  57.345  0.00  0.00    -0.146 N 
HETATM    6  C   UNK     0       5.197  36.804  55.182  0.00  0.00     0.025 C 
ENDBRANCH   3   4
BRANCH   2   7
HETATM    7  C   UNK     0       3.257  34.202  57.643  0.00  0.00     0.002 C 
HETATM    8  C   UNK     0       1.942  34.379  57.591  0.00  0.00     0.000 C 
BRANCH   8   9
HETATM    9  C   UNK     0       1.142  33.728  58.431  0.00  0.00     0.000 C 
HETATM   10  C   UNK     0      -0.012  33.230  57.990  0.00  0.00     0.000 C 
BRANCH  10  11
HETATM   11  C   UNK     0      -0.813  32.579  58.829  0.00  0.00     0.000 C 
HETATM   12  C   UNK     0      -0.436  32.358  60.084  0.00  0.00     0.000 C 
BRANCH  12  13
HETATM   13  C   UNK     0      -1.236  31.707  60.923  0.00  0.00     0.000 C 
HETATM   14  C   UNK     0      -2.169  30.887  60.443  0.00  0.00     0.000 C 
ENDBRANCH  12  13
ENDBRANCH  10  11
ENDBRANCH   8   9
ENDBRANCH   2   7
TORSDOF 5
ENDMDL
MODEL 2
REMARK VINA RESULT:      -5.4     22.800     25.713
REMARK  5 active torsions:
REMARK  status: ('A' for Active; 'I' for Inactive)
REMARK    1  A    between atoms: C_3  and  C_5 
REMARK    2  A    between atoms: C_4  and  C_6 
REMARK    3  A    between atoms: C_7  and  C_10 
REMARK    4  A    between atoms: C_8  and  C_9 
REMARK    5  A    between atoms: C_11  and  C_12 
ROOT
HETATM    1  O   UNK     0      -6.548  13.342  51.839  0.00  0.00    -0.189 OA
HETATM    2  C   UNK     0      -7.561  13.132  54.195  0.00  0.00     0.029 C 
HETATM    3  C   UNK     0      -6.743  13.273  53.153  0.00  0.00     0.150 C 
ENDROOT
BRANCH   3   4
HETATM    4  C   UNK     0      -5.439  13.439  53.356  0.00  0.00     0.128 C 
HETATM    5  N   UNK     0      -5.570  12.962  54.590  0.00  0.00    -0.146 N 
HETATM    6  C   UNK     0      -4.667  13.934  52.395  0.00  0.00     0.025 C 
ENDBRANCH   3   4
BRANCH   2   7
HETATM    7  C   UNK     0      -8.865  12.966  53.992  0.00  0.00     0.002 C 
HETATM    8  C   UNK     0      -9.349  11.771  53.670  0.00  0.00     0.000 C 
BRANCH   8   9
HETATM    9  C   UNK     0     -10.653  11.607  53.468  0.00  0.00     0.000 C 
HETATM   10  C   UNK     0     -11.075  10.917  52.410  0.00  0.00     0.000 C 
BRANCH  10  11
HETATM   11  C   UNK     0     -12.379  10.751  52.207  0.00  0.00     0.000 C 
HETATM   12  C   UNK     0     -13.199  10.549  53.232  0.00  0.00     0.000 C 
BRANCH  12  13
HETATM   13  C   UNK     0     -14.503  10.383  53.029  0.00  0.00     0.000 C 
HETATM   14  C   UNK     0     -14.998  10.488  51.797  0.00  0.00     0.000 C 
ENDBRANCH  12  13
ENDBRANCH  10  11
ENDBRANCH   8   9
ENDBRANCH   2   7
TORSDOF 5
ENDMDL
MODEL 3
REMARK VINA RESULT:      -5.3     24.488     28.005
REMARK  5 active torsions:
REMARK  status: ('A' for Active; 'I' for Inactive)
REMARK    1  A    between atoms: C_3  and  C_5 
REMARK    2  A    between atoms: C_4  and  C_6 
REMARK    3  A    between atoms: C_7  and  C_10 
REMARK    4  A    between atoms: C_8  and  C_9 
REMARK    5  A    between atoms: C_11  and  C_12 
ROOT
HETATM    1  O   UNK     0     -13.835   9.149  54.325  0.00  0.00    -0.189 OA
HETATM    2  C   UNK     0     -13.462  10.990  52.567  0.00  0.00     0.029 C 
HETATM    3  C   UNK     0     -13.983  10.137  53.448  0.00  0.00     0.150 C 
ENDROOT
BRANCH   3   4
HETATM    4  C   UNK     0     -15.292  10.150  53.683  0.00  0.00     0.128 C 
HETATM    5  N   UNK     0     -15.067  10.622  54.907  0.00  0.00    -0.146 N 
HETATM    6  C   UNK     0     -16.148   9.752  52.749  0.00  0.00     0.025 C 
ENDBRANCH   3   4
BRANCH   2   7
HETATM    7  C   UNK     0     -12.153  10.976  52.332  0.00  0.00     0.002 C 
HETATM    8  C   UNK     0     -11.301  11.433  53.242  0.00  0.00     0.000 C 
BRANCH   8   9
HETATM    9  C   UNK     0      -9.992  11.419  53.006  0.00  0.00     0.000 C 
HETATM   10  C   UNK     0      -9.197  12.276  53.645  0.00  0.00     0.000 C 
BRANCH  10  11
HETATM   11  C   UNK     0      -7.888  12.263  53.409  0.00  0.00     0.000 C 
HETATM   12  C   UNK     0      -7.166  13.367  53.561  0.00  0.00     0.000 C 
BRANCH  12  13
HETATM   13  C   UNK     0      -5.857  13.354  53.325  0.00  0.00     0.000 C 
HETATM   14  C   UNK     0      -5.387  13.858  52.186  0.00  0.00     0.000 C 
ENDBRANCH  12  13
ENDBRANCH  10  11
ENDBRANCH   8   9
ENDBRANCH   2   7
TORSDOF 5
ENDMDL
MODEL 4
REMARK VINA RESULT:      -5.3      3.003      7.295
REMARK  5 active torsions:
REMARK  status: ('A' for Active; 'I' for Inactive)
REMARK    1  A    between atoms: C_3  and  C_5 
REMARK    2  A    between atoms: C_4  and  C_6 
REMARK    3  A    between atoms: C_7  and  C_10 
REMARK    4  A    between atoms: C_8  and  C_9 
REMARK    5  A    between atoms: C_11  and  C_12 
ROOT
HETATM    1  O   UNK     0       0.937  32.885  60.539  0.00  0.00    -0.189 OA
HETATM    2  C   UNK     0       0.476  33.576  58.104  0.00  0.00     0.029 C 
HETATM    3  C   UNK     0       0.409  33.063  59.331  0.00  0.00     0.150 C 
ENDROOT
BRANCH   3   4
HETATM    4  C   UNK     0      -0.650  32.342  59.687  0.00  0.00     0.128 C 
HETATM    5  N   UNK     0      -1.095  32.377  58.435  0.00  0.00    -0.146 N 
HETATM    6  C   UNK     0      -0.802  31.947  60.947  0.00  0.00     0.025 C 
ENDBRANCH   3   4
BRANCH   2   7
HETATM    7  C   UNK     0       1.536  34.297  57.747  0.00  0.00     0.002 C 
HETATM    8  C   UNK     0       2.711  33.712  57.548  0.00  0.00     0.000 C 
BRANCH   8   9
HETATM    9  C   UNK     0       3.770  34.434  57.192  0.00  0.00     0.000 C 
HETATM   10  C   UNK     0       3.643  35.747  57.013  0.00  0.00     0.000 C 
BRANCH  10  11
HETATM   11  C   UNK     0       4.701  36.470  56.657  0.00  0.00     0.000 C 
HETATM   12  C   UNK     0       5.317  36.237  55.503  0.00  0.00     0.000 C 
BRANCH  12  13
HETATM   13  C   UNK     0       6.375  36.960  55.146  0.00  0.00     0.000 C 
HETATM   14  C   UNK     0       7.522  36.824  55.810  0.00  0.00     0.000 C 
ENDBRANCH  12  13
ENDBRANCH  10  11
ENDBRANCH   8   9
ENDBRANCH   2   7
TORSDOF 5
ENDMDL
MODEL 5
REMARK VINA RESULT:      -5.3      3.150      7.318
REMARK  5 active torsions:
REMARK  status: ('A' for Active; 'I' for Inactive)
REMARK    1  A    between atoms: C_3  and  C_5 
REMARK    2  A    between atoms: C_4  and  C_6 
REMARK    3  A    between atoms: C_7  and  C_10 
REMARK    4  A    between atoms: C_8  and  C_9 
REMARK    5  A    between atoms: C_11  and  C_12 
ROOT
HETATM    1  O   UNK     0       0.342  32.607  60.743  0.00  0.00    -0.189 OA
HETATM    2  C   UNK     0       0.651  33.446  58.330  0.00  0.00     0.029 C 
HETATM    3  C   UNK     0       0.199  32.884  59.450  0.00  0.00     0.150 C 
ENDROOT
BRANCH   3   4
HETATM    4  C   UNK     0      -0.963  32.237  59.440  0.00  0.00     0.128 C 
HETATM    5  N   UNK     0      -1.093  32.490  58.141  0.00  0.00    -0.146 N 
HETATM    6  C   UNK     0      -1.439  31.692  60.554  0.00  0.00     0.025 C 
ENDBRANCH   3   4
BRANCH   2   7
HETATM    7  C   UNK     0       1.813  34.093  58.340  0.00  0.00     0.002 C 
HETATM    8  C   UNK     0       2.784  33.745  57.502  0.00  0.00     0.000 C 
BRANCH   8   9
HETATM    9  C   UNK     0       3.945  34.393  57.513  0.00  0.00     0.000 C 
HETATM   10  C   UNK     0       4.069  35.537  56.842  0.00  0.00     0.000 C 
BRANCH  10  11
HETATM   11  C   UNK     0       5.230  36.185  56.852  0.00  0.00     0.000 C 
HETATM   12  C   UNK     0       6.093  36.004  57.846  0.00  0.00     0.000 C 
BRANCH  12  13
HETATM   13  C   UNK     0       7.254  36.653  57.856  0.00  0.00     0.000 C 
HETATM   14  C   UNK     0       7.945  36.788  56.725  0.00  0.00     0.000 C 
ENDBRANCH  12  13
ENDBRANCH  10  11
ENDBRANCH   8   9
ENDBRANCH   2   7
TORSDOF 5
ENDMDL
