MODEL 1
REMARK VINA RESULT:      -5.6      0.000      0.000
REMARK  5 active torsions:
REMARK  status: ('A' for Active; 'I' for Inactive)
REMARK    1  A    between atoms: C_3  and  C_5 
REMARK    2  A    between atoms: C_4  and  C_6 
REMARK    3  A    between atoms: C_7  and  C_10 
REMARK    4  A    between atoms: C_8  and  C_9 
REMARK    5  A    between atoms: C_11  and  C_12 
ROOT
HETATM    1  O   UNK     0      -7.284  14.303  54.565  0.00  0.00    -0.189 OA
HETATM    2  C   UNK     0      -7.533  12.261  53.020  0.00  0.00     0.029 C 
HETATM    3  C   UNK     0      -7.070  13.277  53.745  0.00  0.00     0.150 C 
ENDROOT
BRANCH   3   4
HETATM    4  C   UNK     0      -5.764  13.529  53.772  0.00  0.00     0.128 C 
HETATM    5  N   UNK     0      -5.734  13.237  55.069  0.00  0.00    -0.146 N 
HETATM    6  C   UNK     0      -5.130  13.907  52.667  0.00  0.00     0.025 C 
ENDBRANCH   3   4
BRANCH   2   7
HETATM    7  C   UNK     0      -8.839  12.010  52.994  0.00  0.00     0.002 C 
HETATM    8  C   UNK     0      -9.453  11.531  54.070  0.00  0.00     0.000 C 
BRANCH   8   9
HETATM    9  C   UNK     0     -10.759  11.280  54.043  0.00  0.00     0.000 C 
HETATM   10  C   UNK     0     -11.408  11.289  52.880  0.00  0.00     0.000 C 
BRANCH  10  11
HETATM   11  C   UNK     0     -12.714  11.038  52.852  0.00  0.00     0.000 C 
HETATM   12  C   UNK     0     -13.348  10.901  51.692  0.00  0.00     0.000 C 
BRANCH  12  13
HETATM   13  C   UNK     0     -14.654  10.650  51.664  0.00  0.00     0.000 C 
HETATM   14  C   UNK     0     -15.232  10.042  52.698  0.00  0.00     0.000 C 
ENDBRANCH  12  13
ENDBRANCH  10  11
ENDBRANCH   8   9
ENDBRANCH   2   7
TORSDOF 5
ENDMDL
MODEL 2
REMARK VINA RESULT:      -5.4     22.705     26.339
REMARK  5 active torsions:
REMARK  status: ('A' for Active; 'I' for Inactive)
REMARK    1  A    between atoms: C_3  and  C_5 
REMARK    2  A    between atoms: C_4  and  C_6 
REMARK    3  A    between atoms: C_7  and  C_10 
REMARK    4  A    between atoms: C_8  and  C_9 
REMARK    5  A    between atoms: C_11  and  C_12 
ROOT
HETATM    1  O   UNK     0       0.053  32.317  60.823  0.00  0.00    -0.189 OA
HETATM    2  C   UNK     0       0.848  33.189  58.537  0.00  0.00     0.029 C 
HETATM    3  C   UNK     0       0.147  32.674  59.545  0.00  0.00     0.150 C 
ENDROOT
BRANCH   3   4
HETATM    4  C   UNK     0      -1.100  32.260  59.338  0.00  0.00     0.128 C 
HETATM    5  N   UNK     0      -1.013  32.636  58.065  0.00  0.00    -0.146 N 
HETATM    6  C   UNK     0      -1.805  31.727  60.330  0.00  0.00     0.025 C 
ENDBRANCH   3   4
BRANCH   2   7
HETATM    7  C   UNK     0       2.095  33.603  58.744  0.00  0.00     0.002 C 
HETATM    8  C   UNK     0       3.023  33.436  57.808  0.00  0.00     0.000 C 
BRANCH   8   9
HETATM    9  C   UNK     0       4.270  33.850  58.016  0.00  0.00     0.000 C 
HETATM   10  C   UNK     0       4.851  33.629  59.194  0.00  0.00     0.000 C 
BRANCH  10  11
HETATM   11  C   UNK     0       6.097  34.042  59.403  0.00  0.00     0.000 C 
HETATM   12  C   UNK     0       6.951  33.288  60.087  0.00  0.00     0.000 C 
BRANCH  12  13
HETATM   13  C   UNK     0       8.197  33.702  60.296  0.00  0.00     0.000 C 
HETATM   14  C   UNK     0       8.585  34.889  59.834  0.00  0.00     0.000 C 
ENDBRANCH  12  13
ENDBRANCH  10  11
ENDBRANCH   8   9
ENDBRANCH   2   7
TORSDOF 5
ENDMDL
MODEL 3
REMARK VINA RESULT:      -5.3      3.488      7.512
REMARK  5 active torsions:
REMARK  status: ('A' for Active; 'I' for Inactive)
REMARK    1  A    between atoms: C_3  and  C_5 
REMARK    2  A    between atoms: C_4  and  C_6 
REMARK    3  A    between atoms: C_7  and  C_10 
REMARK    4  A    between atoms: C_8  and  C_9 
REMARK    5  A    between atoms: C_11  and  C_12 
ROOT
HETATM    1  O   UNK     0     -13.690   9.138  54.250  0.00  0.00    -0.189 OA
HETATM    2  C   UNK     0     -13.498  11.060  52.551  0.00  0.00     0.029 C 
HETATM    3  C   UNK     0     -13.932  10.140  53.411  0.00  0.00     0.150 C 
ENDROOT
BRANCH   3   4
HETATM    4  C   UNK     0     -15.233  10.043  53.671  0.00  0.00     0.128 C 
HETATM    5  N   UNK     0     -15.014  10.452  54.918  0.00  0.00    -0.146 N 
HETATM    6  C   UNK     0     -16.080   9.642  52.729  0.00  0.00     0.025 C 
ENDBRANCH   3   4
BRANCH   2   7
HETATM    7  C   UNK     0     -12.197  11.157  52.291  0.00  0.00     0.002 C 
HETATM    8  C   UNK     0     -11.334  11.426  53.264  0.00  0.00     0.000 C 
BRANCH   8   9
HETATM    9  C   UNK     0     -10.034  11.523  53.003  0.00  0.00     0.000 C 
HETATM   10  C   UNK     0      -9.287  12.391  53.683  0.00  0.00     0.000 C 
BRANCH  10  11
HETATM   11  C   UNK     0      -7.987  12.488  53.422  0.00  0.00     0.000 C 
HETATM   12  C   UNK     0      -7.260  13.453  53.976  0.00  0.00     0.000 C 
BRANCH  12  13
HETATM   13  C   UNK     0      -5.959  13.550  53.715  0.00  0.00     0.000 C 
HETATM   14  C   UNK     0      -5.550  13.756  52.464  0.00  0.00     0.000 C 
ENDBRANCH  12  13
ENDBRANCH  10  11
ENDBRANCH   8   9
ENDBRANCH   2   7
TORSDOF 5
ENDMDL
MODEL 4
REMARK VINA RESULT:      -5.3     23.291     26.569
REMARK  5 active torsions:
REMARK  status: ('A' for Active; 'I' for Inactive)
REMARK    1  A    between atoms: C_3  and  C_5 
REMARK    2  A    between atoms: C_4  and  C_6 
REMARK    3  A    between atoms: C_7  and  C_10 
REMARK    4  A    between atoms: C_8  and  C_9 
REMARK    5  A    between atoms: C_11  and  C_12 
ROOT
HETATM    1  O   UNK     0       0.864  32.708  60.470  0.00  0.00    -0.189 OA
HETATM    2  C   UNK     0       0.493  33.612  58.090  0.00  0.00     0.029 C 
HETATM    3  C   UNK     0       0.369  33.016  59.275  0.00  0.00     0.150 C 
ENDROOT
BRANCH   3   4
HETATM    4  C   UNK     0      -0.748  32.355  59.567  0.00  0.00     0.128 C 
HETATM    5  N   UNK     0      -1.134  32.448  58.297  0.00  0.00    -0.146 N 
HETATM    6  C   UNK     0      -0.979  31.941  60.807  0.00  0.00     0.025 C 
ENDBRANCH   3   4
BRANCH   2   7
HETATM    7  C   UNK     0       1.610  34.273  57.798  0.00  0.00     0.002 C 
HETATM    8  C   UNK     0       2.743  33.616  57.579  0.00  0.00     0.000 C 
BRANCH   8   9
HETATM    9  C   UNK     0       3.859  34.277  57.287  0.00  0.00     0.000 C 
HETATM   10  C   UNK     0       3.794  35.565  56.952  0.00  0.00     0.000 C 
BRANCH  10  11
HETATM   11  C   UNK     0       4.909  36.228  56.660  0.00  0.00     0.000 C 
HETATM   12  C   UNK     0       5.389  36.224  55.421  0.00  0.00     0.000 C 
BRANCH  12  13
HETATM   13  C   UNK     0       6.505  36.887  55.129  0.00  0.00     0.000 C 
HETATM   14  C   UNK     0       6.884  37.014  53.859  0.00  0.00     0.000 C 
ENDBRANCH  12  13
ENDBRANCH  10  11
ENDBRANCH   8   9
ENDBRANCH   2   7
TORSDOF 5
ENDMDL
MODEL 5
REMARK VINA RESULT:      -5.3     23.199     26.750
REMARK  5 active torsions:
REMARK  status: ('A' for Active; 'I' for Inactive)
REMARK    1  A    between atoms: C_3  and  C_5 
REMARK    2  A    between atoms: C_4  and  C_6 
REMARK    3  A    between atoms: C_7  and  C_10 
REMARK    4  A    between atoms: C_8  and  C_9 
REMARK    5  A    between atoms: C_11  and  C_12 
ROOT
HETATM    1  O   UNK     0       0.720  32.772  60.578  0.00  0.00    -0.189 OA
HETATM    2  C   UNK     0       0.581  33.525  58.122  0.00  0.00     0.029 C 
HETATM    3  C   UNK     0       0.346  32.997  59.322  0.00  0.00     0.150 C 
ENDROOT
BRANCH   3   4
HETATM    4  C   UNK     0      -0.783  32.328  59.538  0.00  0.00     0.128 C 
HETATM    5  N   UNK     0      -1.108  32.461  58.255  0.00  0.00    -0.146 N 
HETATM    6  C   UNK     0      -1.074  31.875  60.752  0.00  0.00     0.025 C 
ENDBRANCH   3   4
BRANCH   2   7
HETATM    7  C   UNK     0       1.710  34.194  57.906  0.00  0.00     0.002 C 
HETATM    8  C   UNK     0       2.826  33.547  57.592  0.00  0.00     0.000 C 
BRANCH   8   9
HETATM    9  C   UNK     0       3.954  34.217  57.376  0.00  0.00     0.000 C 
HETATM   10  C   UNK     0       3.902  35.497  57.012  0.00  0.00     0.000 C 
BRANCH  10  11
HETATM   11  C   UNK     0       5.030  36.168  56.795  0.00  0.00     0.000 C 
HETATM   12  C   UNK     0       6.025  36.112  57.674  0.00  0.00     0.000 C 
BRANCH  12  13
HETATM   13  C   UNK     0       7.152  36.783  57.457  0.00  0.00     0.000 C 
HETATM   14  C   UNK     0       8.292  36.348  57.992  0.00  0.00     0.000 C 
ENDBRANCH  12  13
ENDBRANCH  10  11
ENDBRANCH   8   9
ENDBRANCH   2   7
TORSDOF 5
ENDMDL
