MODEL 1
REMARK VINA RESULT:      -6.8      0.000      0.000
REMARK  5 active torsions:
REMARK  status: ('A' for Active; 'I' for Inactive)
REMARK    1  A    between atoms: C_3  and  C_5 
REMARK    2  A    between atoms: C_4  and  C_6 
REMARK    3  A    between atoms: C_7  and  C_10 
REMARK    4  A    between atoms: C_8  and  C_9 
REMARK    5  A    between atoms: C_11  and  C_12 
ROOT
HETATM    1  O   UNK     0      25.276   5.938  61.278  0.00  0.00    -0.189 OA
HETATM    2  C   UNK     0      26.345   4.242  62.891  0.00  0.00     0.029 C 
HETATM    3  C   UNK     0      25.548   4.877  62.032  0.00  0.00     0.150 C 
ENDROOT
BRANCH   3   4
HETATM    4  C   UNK     0      24.422   4.298  61.625  0.00  0.00     0.128 C 
HETATM    5  N   UNK     0      25.052   3.130  61.545  0.00  0.00    -0.146 N 
HETATM    6  C   UNK     0      23.310   5.013  61.489  0.00  0.00     0.025 C 
ENDBRANCH   3   4
BRANCH   2   7
HETATM    7  C   UNK     0      27.471   4.820  63.298  0.00  0.00     0.002 C 
HETATM    8  C   UNK     0      28.318   4.165  64.084  0.00  0.00     0.000 C 
BRANCH   8   9
HETATM    9  C   UNK     0      29.444   4.744  64.490  0.00  0.00     0.000 C 
HETATM   10  C   UNK     0      29.730   5.982  64.091  0.00  0.00     0.000 C 
BRANCH  10  11
HETATM   11  C   UNK     0      30.856   6.562  64.498  0.00  0.00     0.000 C 
HETATM   12  C   UNK     0      30.889   7.240  65.639  0.00  0.00     0.000 C 
BRANCH  12  13
HETATM   13  C   UNK     0      32.014   7.821  66.046  0.00  0.00     0.000 C 
HETATM   14  C   UNK     0      31.973   8.742  67.007  0.00  0.00     0.000 C 
ENDBRANCH  12  13
ENDBRANCH  10  11
ENDBRANCH   8   9
ENDBRANCH   2   7
TORSDOF 5
ENDMDL
MODEL 2
REMARK VINA RESULT:      -6.8      3.407      7.276
REMARK  5 active torsions:
REMARK  status: ('A' for Active; 'I' for Inactive)
REMARK    1  A    between atoms: C_3  and  C_5 
REMARK    2  A    between atoms: C_4  and  C_6 
REMARK    3  A    between atoms: C_7  and  C_10 
REMARK    4  A    between atoms: C_8  and  C_9 
REMARK    5  A    between atoms: C_11  and  C_12 
ROOT
HETATM    1  O   UNK     0      31.344   8.971  63.925  0.00  0.00    -0.189 OA
HETATM    2  C   UNK     0      30.954   6.593  64.827  0.00  0.00     0.029 C 
HETATM    3  C   UNK     0      31.418   7.817  64.583  0.00  0.00     0.150 C 
ENDROOT
BRANCH   3   4
HETATM    4  C   UNK     0      32.483   8.263  65.245  0.00  0.00     0.128 C 
HETATM    5  N   UNK     0      32.888   8.911  64.156  0.00  0.00    -0.146 N 
HETATM    6  C   UNK     0      32.671   7.931  66.517  0.00  0.00     0.025 C 
ENDBRANCH   3   4
BRANCH   2   7
HETATM    7  C   UNK     0      29.890   6.147  64.166  0.00  0.00     0.002 C 
HETATM    8  C   UNK     0      29.325   4.993  64.502  0.00  0.00     0.000 C 
BRANCH   8   9
HETATM    9  C   UNK     0      28.260   4.548  63.840  0.00  0.00     0.000 C 
HETATM   10  C   UNK     0      27.576   5.379  63.056  0.00  0.00     0.000 C 
BRANCH  10  11
HETATM   11  C   UNK     0      26.512   4.934  62.394  0.00  0.00     0.000 C 
HETATM   12  C   UNK     0      26.131   3.666  62.505  0.00  0.00     0.000 C 
BRANCH  12  13
HETATM   13  C   UNK     0      25.067   3.222  61.842  0.00  0.00     0.000 C 
HETATM   14  C   UNK     0      24.310   4.078  61.159  0.00  0.00     0.000 C 
ENDBRANCH  12  13
ENDBRANCH  10  11
ENDBRANCH   8   9
ENDBRANCH   2   7
TORSDOF 5
ENDMDL
MODEL 3
REMARK VINA RESULT:      -6.5      1.512      1.804
REMARK  5 active torsions:
REMARK  status: ('A' for Active; 'I' for Inactive)
REMARK    1  A    between atoms: C_3  and  C_5 
REMARK    2  A    between atoms: C_4  and  C_6 
REMARK    3  A    between atoms: C_7  and  C_10 
REMARK    4  A    between atoms: C_8  and  C_9 
REMARK    5  A    between atoms: C_11  and  C_12 
ROOT
HETATM    1  O   UNK     0      26.473   5.673  60.690  0.00  0.00    -0.189 OA
HETATM    2  C   UNK     0      27.079   4.869  63.057  0.00  0.00     0.029 C 
HETATM    3  C   UNK     0      26.495   5.078  61.879  0.00  0.00     0.150 C 
ENDROOT
BRANCH   3   4
HETATM    4  C   UNK     0      25.356   4.456  61.588  0.00  0.00     0.128 C 
HETATM    5  N   UNK     0      24.819   5.614  61.215  0.00  0.00    -0.146 N 
HETATM    6  C   UNK     0      25.242   3.144  61.763  0.00  0.00     0.025 C 
ENDBRANCH   3   4
BRANCH   2   7
HETATM    7  C   UNK     0      28.219   5.491  63.348  0.00  0.00     0.002 C 
HETATM    8  C   UNK     0      29.139   4.894  64.097  0.00  0.00     0.000 C 
BRANCH   8   9
HETATM    9  C   UNK     0      30.278   5.517  64.387  0.00  0.00     0.000 C 
HETATM   10  C   UNK     0      30.246   6.699  65.000  0.00  0.00     0.000 C 
BRANCH  10  11
HETATM   11  C   UNK     0      31.384   7.322  65.290  0.00  0.00     0.000 C 
HETATM   12  C   UNK     0      32.036   8.002  64.354  0.00  0.00     0.000 C 
BRANCH  12  13
HETATM   13  C   UNK     0      33.174   8.626  64.644  0.00  0.00     0.000 C 
HETATM   14  C   UNK     0      33.585   9.640  63.884  0.00  0.00     0.000 C 
ENDBRANCH  12  13
ENDBRANCH  10  11
ENDBRANCH   8   9
ENDBRANCH   2   7
TORSDOF 5
ENDMDL
MODEL 4
REMARK VINA RESULT:      -6.4      4.063      7.797
REMARK  5 active torsions:
REMARK  status: ('A' for Active; 'I' for Inactive)
REMARK    1  A    between atoms: C_3  and  C_5 
REMARK    2  A    between atoms: C_4  and  C_6 
REMARK    3  A    between atoms: C_7  and  C_10 
REMARK    4  A    between atoms: C_8  and  C_9 
REMARK    5  A    between atoms: C_11  and  C_12 
ROOT
HETATM    1  O   UNK     0      32.008   9.743  65.930  0.00  0.00    -0.189 OA
HETATM    2  C   UNK     0      32.095   7.188  65.645  0.00  0.00     0.029 C 
HETATM    3  C   UNK     0      32.380   8.467  65.881  0.00  0.00     0.150 C 
ENDROOT
BRANCH   3   4
HETATM    4  C   UNK     0      33.605   8.809  66.269  0.00  0.00     0.128 C 
HETATM    5  N   UNK     0      33.298   8.487  67.522  0.00  0.00    -0.146 N 
HETATM    6  C   UNK     0      34.490   9.259  65.386  0.00  0.00     0.025 C 
ENDBRANCH   3   4
BRANCH   2   7
HETATM    7  C   UNK     0      30.870   6.846  65.256  0.00  0.00     0.002 C 
HETATM    8  C   UNK     0      30.696   5.989  64.256  0.00  0.00     0.000 C 
BRANCH   8   9
HETATM    9  C   UNK     0      29.470   5.647  63.868  0.00  0.00     0.000 C 
HETATM   10  C   UNK     0      28.983   4.452  64.198  0.00  0.00     0.000 C 
BRANCH  10  11
HETATM   11  C   UNK     0      27.758   4.110  63.810  0.00  0.00     0.000 C 
HETATM   12  C   UNK     0      27.052   4.914  63.022  0.00  0.00     0.000 C 
BRANCH  12  13
HETATM   13  C   UNK     0      25.827   4.572  62.635  0.00  0.00     0.000 C 
HETATM   14  C   UNK     0      25.582   3.322  62.245  0.00  0.00     0.000 C 
ENDBRANCH  12  13
ENDBRANCH  10  11
ENDBRANCH   8   9
ENDBRANCH   2   7
TORSDOF 5
ENDMDL
MODEL 5
REMARK VINA RESULT:      -6.3      3.891      7.549
REMARK  5 active torsions:
REMARK  status: ('A' for Active; 'I' for Inactive)
REMARK    1  A    between atoms: C_3  and  C_5 
REMARK    2  A    between atoms: C_4  and  C_6 
REMARK    3  A    between atoms: C_7  and  C_10 
REMARK    4  A    between atoms: C_8  and  C_9 
REMARK    5  A    between atoms: C_11  and  C_12 
ROOT
HETATM    1  O   UNK     0      32.005   7.273  66.100  0.00  0.00    -0.189 OA
HETATM    2  C   UNK     0      31.229   7.946  63.741  0.00  0.00     0.029 C 
HETATM    3  C   UNK     0      31.879   7.827  64.897  0.00  0.00     0.150 C 
ENDROOT
BRANCH   3   4
HETATM    4  C   UNK     0      32.966   8.560  65.121  0.00  0.00     0.128 C 
HETATM    5  N   UNK     0      33.053   8.056  66.349  0.00  0.00    -0.146 N 
HETATM    6  C   UNK     0      33.441   9.365  64.177  0.00  0.00     0.025 C 
ENDBRANCH   3   4
BRANCH   2   7
HETATM    7  C   UNK     0      30.142   7.213  63.517  0.00  0.00     0.002 C 
HETATM    8  C   UNK     0      29.145   7.695  62.783  0.00  0.00     0.000 C 
BRANCH   8   9
HETATM    9  C   UNK     0      28.059   6.961  62.560  0.00  0.00     0.000 C 
HETATM   10  C   UNK     0      27.984   5.726  63.052  0.00  0.00     0.000 C 
BRANCH  10  11
HETATM   11  C   UNK     0      26.898   4.991  62.829  0.00  0.00     0.000 C 
HETATM   12  C   UNK     0      25.962   5.413  61.986  0.00  0.00     0.000 C 
BRANCH  12  13
HETATM   13  C   UNK     0      24.876   4.679  61.763  0.00  0.00     0.000 C 
HETATM   14  C   UNK     0      24.949   3.351  61.840  0.00  0.00     0.000 C 
ENDBRANCH  12  13
ENDBRANCH  10  11
ENDBRANCH   8   9
ENDBRANCH   2   7
TORSDOF 5
ENDMDL
