MODEL 1
REMARK VINA RESULT:      -6.9      0.000      0.000
REMARK  5 active torsions:
REMARK  status: ('A' for Active; 'I' for Inactive)
REMARK    1  A    between atoms: C_3  and  C_5 
REMARK    2  A    between atoms: C_4  and  C_6 
REMARK    3  A    between atoms: C_7  and  C_10 
REMARK    4  A    between atoms: C_8  and  C_9 
REMARK    5  A    between atoms: C_11  and  C_12 
ROOT
HETATM    1  O   UNK     0      25.158   6.014  61.419  0.00  0.00    -0.189 OA
HETATM    2  C   UNK     0      26.306   4.262  62.913  0.00  0.00     0.029 C 
HETATM    3  C   UNK     0      25.484   4.915  62.094  0.00  0.00     0.150 C 
ENDROOT
BRANCH   3   4
HETATM    4  C   UNK     0      24.399   4.305  61.625  0.00  0.00     0.128 C 
HETATM    5  N   UNK     0      25.070   3.158  61.563  0.00  0.00    -0.146 N 
HETATM    6  C   UNK     0      23.272   4.984  61.442  0.00  0.00     0.025 C 
ENDBRANCH   3   4
BRANCH   2   7
HETATM    7  C   UNK     0      27.392   4.871  63.381  0.00  0.00     0.002 C 
HETATM    8  C   UNK     0      28.293   4.194  64.084  0.00  0.00     0.000 C 
BRANCH   8   9
HETATM    9  C   UNK     0      29.378   4.804  64.552  0.00  0.00     0.000 C 
HETATM   10  C   UNK     0      29.784   5.945  63.997  0.00  0.00     0.000 C 
BRANCH  10  11
HETATM   11  C   UNK     0      30.869   6.556  64.465  0.00  0.00     0.000 C 
HETATM   12  C   UNK     0      30.830   7.201  65.625  0.00  0.00     0.000 C 
BRANCH  12  13
HETATM   13  C   UNK     0      31.915   7.813  66.093  0.00  0.00     0.000 C 
HETATM   14  C   UNK     0      31.893   8.360  67.307  0.00  0.00     0.000 C 
ENDBRANCH  12  13
ENDBRANCH  10  11
ENDBRANCH   8   9
ENDBRANCH   2   7
TORSDOF 5
ENDMDL
MODEL 2
REMARK VINA RESULT:      -6.8      3.366      7.252
REMARK  5 active torsions:
REMARK  status: ('A' for Active; 'I' for Inactive)
REMARK    1  A    between atoms: C_3  and  C_5 
REMARK    2  A    between atoms: C_4  and  C_6 
REMARK    3  A    between atoms: C_7  and  C_10 
REMARK    4  A    between atoms: C_8  and  C_9 
REMARK    5  A    between atoms: C_11  and  C_12 
ROOT
HETATM    1  O   UNK     0      30.923   9.030  64.632  0.00  0.00    -0.189 OA
HETATM    2  C   UNK     0      30.998   6.468  64.851  0.00  0.00     0.029 C 
HETATM    3  C   UNK     0      31.240   7.774  64.936  0.00  0.00     0.150 C 
ENDROOT
BRANCH   3   4
HETATM    4  C   UNK     0      32.281   8.208  65.640  0.00  0.00     0.128 C 
HETATM    5  N   UNK     0      32.872   8.612  64.519  0.00  0.00    -0.146 N 
HETATM    6  C   UNK     0      32.300   8.079  66.962  0.00  0.00     0.025 C 
ENDBRANCH   3   4
BRANCH   2   7
HETATM    7  C   UNK     0      29.956   6.034  64.147  0.00  0.00     0.002 C 
HETATM    8  C   UNK     0      29.270   4.969  64.546  0.00  0.00     0.000 C 
BRANCH   8   9
HETATM    9  C   UNK     0      28.228   4.537  63.841  0.00  0.00     0.000 C 
HETATM   10  C   UNK     0      27.547   5.391  63.080  0.00  0.00     0.000 C 
BRANCH  10  11
HETATM   11  C   UNK     0      26.505   4.959  62.374  0.00  0.00     0.000 C 
HETATM   12  C   UNK     0      26.079   3.707  62.501  0.00  0.00     0.000 C 
BRANCH  12  13
HETATM   13  C   UNK     0      25.038   3.275  61.796  0.00  0.00     0.000 C 
HETATM   14  C   UNK     0      24.330   4.138  61.068  0.00  0.00     0.000 C 
ENDBRANCH  12  13
ENDBRANCH  10  11
ENDBRANCH   8   9
ENDBRANCH   2   7
TORSDOF 5
ENDMDL
MODEL 3
REMARK VINA RESULT:      -6.7      1.252      1.271
REMARK  5 active torsions:
REMARK  status: ('A' for Active; 'I' for Inactive)
REMARK    1  A    between atoms: C_3  and  C_5 
REMARK    2  A    between atoms: C_4  and  C_6 
REMARK    3  A    between atoms: C_7  and  C_10 
REMARK    4  A    between atoms: C_8  and  C_9 
REMARK    5  A    between atoms: C_11  and  C_12 
ROOT
HETATM    1  O   UNK     0      25.913   7.125  61.029  0.00  0.00    -0.189 OA
HETATM    2  C   UNK     0      26.413   5.114  62.553  0.00  0.00     0.029 C 
HETATM    3  C   UNK     0      25.895   5.954  61.659  0.00  0.00     0.150 C 
ENDROOT
BRANCH   3   4
HETATM    4  C   UNK     0      24.819   5.596  60.963  0.00  0.00     0.128 C 
HETATM    5  N   UNK     0      25.062   6.569  60.088  0.00  0.00    -0.146 N 
HETATM    6  C   UNK     0      24.067   4.578  61.364  0.00  0.00     0.025 C 
ENDBRANCH   3   4
BRANCH   2   7
HETATM    7  C   UNK     0      27.488   5.471  63.249  0.00  0.00     0.002 C 
HETATM    8  C   UNK     0      28.264   4.550  63.809  0.00  0.00     0.000 C 
BRANCH   8   9
HETATM    9  C   UNK     0      29.339   4.909  64.505  0.00  0.00     0.000 C 
HETATM   10  C   UNK     0      29.900   6.097  64.286  0.00  0.00     0.000 C 
BRANCH  10  11
HETATM   11  C   UNK     0      30.975   6.456  64.982  0.00  0.00     0.000 C 
HETATM   12  C   UNK     0      30.943   7.531  65.762  0.00  0.00     0.000 C 
BRANCH  12  13
HETATM   13  C   UNK     0      32.018   7.891  66.458  0.00  0.00     0.000 C 
HETATM   14  C   UNK     0      31.874   8.401  67.679  0.00  0.00     0.000 C 
ENDBRANCH  12  13
ENDBRANCH  10  11
ENDBRANCH   8   9
ENDBRANCH   2   7
TORSDOF 5
ENDMDL
MODEL 4
REMARK VINA RESULT:      -6.5      3.642      7.363
REMARK  5 active torsions:
REMARK  status: ('A' for Active; 'I' for Inactive)
REMARK    1  A    between atoms: C_3  and  C_5 
REMARK    2  A    between atoms: C_4  and  C_6 
REMARK    3  A    between atoms: C_7  and  C_10 
REMARK    4  A    between atoms: C_8  and  C_9 
REMARK    5  A    between atoms: C_11  and  C_12 
ROOT
HETATM    1  O   UNK     0      31.448   7.549  66.305  0.00  0.00    -0.189 OA
HETATM    2  C   UNK     0      31.219   7.322  63.752  0.00  0.00     0.029 C 
HETATM    3  C   UNK     0      31.620   7.617  64.988  0.00  0.00     0.150 C 
ENDROOT
BRANCH   3   4
HETATM    4  C   UNK     0      32.729   8.328  65.169  0.00  0.00     0.128 C 
HETATM    5  N   UNK     0      32.816   7.874  66.416  0.00  0.00    -0.146 N 
HETATM    6  C   UNK     0      33.215   9.078  64.187  0.00  0.00     0.025 C 
ENDBRANCH   3   4
BRANCH   2   7
HETATM    7  C   UNK     0      30.110   6.610  63.571  0.00  0.00     0.002 C 
HETATM    8  C   UNK     0      29.973   5.420  64.145  0.00  0.00     0.000 C 
BRANCH   8   9
HETATM    9  C   UNK     0      28.864   4.709  63.963  0.00  0.00     0.000 C 
HETATM   10  C   UNK     0      27.864   5.219  63.245  0.00  0.00     0.000 C 
BRANCH  10  11
HETATM   11  C   UNK     0      26.755   4.509  63.062  0.00  0.00     0.000 C 
HETATM   12  C   UNK     0      25.731   5.022  62.388  0.00  0.00     0.000 C 
BRANCH  12  13
HETATM   13  C   UNK     0      24.621   4.312  62.206  0.00  0.00     0.000 C 
HETATM   14  C   UNK     0      23.553   4.886  61.657  0.00  0.00     0.000 C 
ENDBRANCH  12  13
ENDBRANCH  10  11
ENDBRANCH   8   9
ENDBRANCH   2   7
TORSDOF 5
ENDMDL
MODEL 5
REMARK VINA RESULT:      -6.5      1.470      1.716
REMARK  5 active torsions:
REMARK  status: ('A' for Active; 'I' for Inactive)
REMARK    1  A    between atoms: C_3  and  C_5 
REMARK    2  A    between atoms: C_4  and  C_6 
REMARK    3  A    between atoms: C_7  and  C_10 
REMARK    4  A    between atoms: C_8  and  C_9 
REMARK    5  A    between atoms: C_11  and  C_12 
ROOT
HETATM    1  O   UNK     0      25.831   6.181  61.214  0.00  0.00    -0.189 OA
HETATM    2  C   UNK     0      26.891   4.560  62.907  0.00  0.00     0.029 C 
HETATM    3  C   UNK     0      26.121   5.139  61.988  0.00  0.00     0.150 C 
ENDROOT
BRANCH   3   4
HETATM    4  C   UNK     0      25.077   4.481  61.493  0.00  0.00     0.128 C 
HETATM    5  N   UNK     0      24.537   5.631  61.101  0.00  0.00    -0.146 N 
HETATM    6  C   UNK     0      25.014   3.157  61.580  0.00  0.00     0.025 C 
ENDBRANCH   3   4
BRANCH   2   7
HETATM    7  C   UNK     0      27.935   5.218  63.403  0.00  0.00     0.002 C 
HETATM    8  C   UNK     0      28.872   4.574  64.090  0.00  0.00     0.000 C 
BRANCH   8   9
HETATM    9  C   UNK     0      29.916   5.234  64.585  0.00  0.00     0.000 C 
HETATM   10  C   UNK     0      30.044   6.538  64.349  0.00  0.00     0.000 C 
BRANCH  10  11
HETATM   11  C   UNK     0      31.088   7.198  64.844  0.00  0.00     0.000 C 
HETATM   12  C   UNK     0      31.854   7.937  64.049  0.00  0.00     0.000 C 
BRANCH  12  13
HETATM   13  C   UNK     0      32.898   8.597  64.544  0.00  0.00     0.000 C 
HETATM   14  C   UNK     0      33.405   9.629  63.872  0.00  0.00     0.000 C 
ENDBRANCH  12  13
ENDBRANCH  10  11
ENDBRANCH   8   9
ENDBRANCH   2   7
TORSDOF 5
ENDMDL
