MODEL 1
REMARK VINA RESULT:      -6.8      0.000      0.000
REMARK  5 active torsions:
REMARK  status: ('A' for Active; 'I' for Inactive)
REMARK    1  A    between atoms: C_3  and  C_5 
REMARK    2  A    between atoms: C_4  and  C_6 
REMARK    3  A    between atoms: C_7  and  C_10 
REMARK    4  A    between atoms: C_8  and  C_9 
REMARK    5  A    between atoms: C_11  and  C_12 
ROOT
HETATM    1  O   UNK     0      25.132   6.011  61.437  0.00  0.00    -0.189 OA
HETATM    2  C   UNK     0      26.344   4.268  62.889  0.00  0.00     0.029 C 
HETATM    3  C   UNK     0      25.495   4.911  62.090  0.00  0.00     0.150 C 
ENDROOT
BRANCH   3   4
HETATM    4  C   UNK     0      24.421   4.280  61.623  0.00  0.00     0.128 C 
HETATM    5  N   UNK     0      25.108   3.141  61.584  0.00  0.00    -0.146 N 
HETATM    6  C   UNK     0      23.287   4.941  61.422  0.00  0.00     0.025 C 
ENDBRANCH   3   4
BRANCH   2   7
HETATM    7  C   UNK     0      27.418   4.899  63.355  0.00  0.00     0.002 C 
HETATM    8  C   UNK     0      28.287   4.263  64.134  0.00  0.00     0.000 C 
BRANCH   8   9
HETATM    9  C   UNK     0      29.360   4.895  64.600  0.00  0.00     0.000 C 
HETATM   10  C   UNK     0      29.864   5.926  63.923  0.00  0.00     0.000 C 
BRANCH  10  11
HETATM   11  C   UNK     0      30.938   6.559  64.388  0.00  0.00     0.000 C 
HETATM   12  C   UNK     0      30.977   6.981  65.647  0.00  0.00     0.000 C 
BRANCH  12  13
HETATM   13  C   UNK     0      32.050   7.614  66.112  0.00  0.00     0.000 C 
HETATM   14  C   UNK     0      31.939   8.412  67.173  0.00  0.00     0.000 C 
ENDBRANCH  12  13
ENDBRANCH  10  11
ENDBRANCH   8   9
ENDBRANCH   2   7
TORSDOF 5
ENDMDL
MODEL 2
REMARK VINA RESULT:      -6.8      3.466      7.317
REMARK  5 active torsions:
REMARK  status: ('A' for Active; 'I' for Inactive)
REMARK    1  A    between atoms: C_3  and  C_5 
REMARK    2  A    between atoms: C_4  and  C_6 
REMARK    3  A    between atoms: C_7  and  C_10 
REMARK    4  A    between atoms: C_8  and  C_9 
REMARK    5  A    between atoms: C_11  and  C_12 
ROOT
HETATM    1  O   UNK     0      31.862   8.639  63.680  0.00  0.00    -0.189 OA
HETATM    2  C   UNK     0      30.899   6.626  64.962  0.00  0.00     0.029 C 
HETATM    3  C   UNK     0      31.609   7.683  64.570  0.00  0.00     0.150 C 
ENDROOT
BRANCH   3   4
HETATM    4  C   UNK     0      32.594   8.138  65.339  0.00  0.00     0.128 C 
HETATM    5  N   UNK     0      33.084   8.820  64.308  0.00  0.00    -0.146 N 
HETATM    6  C   UNK     0      32.670   7.780  66.616  0.00  0.00     0.025 C 
ENDBRANCH   3   4
BRANCH   2   7
HETATM    7  C   UNK     0      29.914   6.172  64.193  0.00  0.00     0.002 C 
HETATM    8  C   UNK     0      29.288   5.041  64.500  0.00  0.00     0.000 C 
BRANCH   8   9
HETATM    9  C   UNK     0      28.302   4.587  63.730  0.00  0.00     0.000 C 
HETATM   10  C   UNK     0      27.625   5.435  62.957  0.00  0.00     0.000 C 
BRANCH  10  11
HETATM   11  C   UNK     0      26.640   4.982  62.187  0.00  0.00     0.000 C 
HETATM   12  C   UNK     0      25.981   3.877  62.519  0.00  0.00     0.000 C 
BRANCH  12  13
HETATM   13  C   UNK     0      24.995   3.424  61.749  0.00  0.00     0.000 C 
HETATM   14  C   UNK     0      24.051   4.262  61.324  0.00  0.00     0.000 C 
ENDBRANCH  12  13
ENDBRANCH  10  11
ENDBRANCH   8   9
ENDBRANCH   2   7
TORSDOF 5
ENDMDL
MODEL 3
REMARK VINA RESULT:      -6.5      1.423      1.781
REMARK  5 active torsions:
REMARK  status: ('A' for Active; 'I' for Inactive)
REMARK    1  A    between atoms: C_3  and  C_5 
REMARK    2  A    between atoms: C_4  and  C_6 
REMARK    3  A    between atoms: C_7  and  C_10 
REMARK    4  A    between atoms: C_8  and  C_9 
REMARK    5  A    between atoms: C_11  and  C_12 
ROOT
HETATM    1  O   UNK     0      25.829   3.266  62.754  0.00  0.00    -0.189 OA
HETATM    2  C   UNK     0      26.146   5.711  62.019  0.00  0.00     0.029 C 
HETATM    3  C   UNK     0      25.694   4.474  62.214  0.00  0.00     0.150 C 
ENDROOT
BRANCH   3   4
HETATM    4  C   UNK     0      24.545   4.097  61.659  0.00  0.00     0.128 C 
HETATM    5  N   UNK     0      25.036   2.875  61.473  0.00  0.00    -0.146 N 
HETATM    6  C   UNK     0      23.541   4.959  61.540  0.00  0.00     0.025 C 
ENDBRANCH   3   4
BRANCH   2   7
HETATM    7  C   UNK     0      27.295   6.089  62.574  0.00  0.00     0.002 C 
HETATM    8  C   UNK     0      27.826   7.270  62.282  0.00  0.00     0.000 C 
BRANCH   8   9
HETATM    9  C   UNK     0      28.975   7.646  62.837  0.00  0.00     0.000 C 
HETATM   10  C   UNK     0      29.626   6.807  63.640  0.00  0.00     0.000 C 
BRANCH  10  11
HETATM   11  C   UNK     0      30.774   7.182  64.196  0.00  0.00     0.000 C 
HETATM   12  C   UNK     0      30.965   7.048  65.504  0.00  0.00     0.000 C 
BRANCH  12  13
HETATM   13  C   UNK     0      32.113   7.423  66.059  0.00  0.00     0.000 C 
HETATM   14  C   UNK     0      32.956   8.195  65.376  0.00  0.00     0.000 C 
ENDBRANCH  12  13
ENDBRANCH  10  11
ENDBRANCH   8   9
ENDBRANCH   2   7
TORSDOF 5
ENDMDL
MODEL 4
REMARK VINA RESULT:      -6.3      4.002      7.539
REMARK  5 active torsions:
REMARK  status: ('A' for Active; 'I' for Inactive)
REMARK    1  A    between atoms: C_3  and  C_5 
REMARK    2  A    between atoms: C_4  and  C_6 
REMARK    3  A    between atoms: C_7  and  C_10 
REMARK    4  A    between atoms: C_8  and  C_9 
REMARK    5  A    between atoms: C_11  and  C_12 
ROOT
HETATM    1  O   UNK     0      31.772   8.220  65.429  0.00  0.00    -0.189 OA
HETATM    2  C   UNK     0      30.628   8.773  63.192  0.00  0.00     0.029 C 
HETATM    3  C   UNK     0      31.407   8.765  64.272  0.00  0.00     0.150 C 
ENDROOT
BRANCH   3   4
HETATM    4  C   UNK     0      32.336   9.705  64.422  0.00  0.00     0.128 C 
HETATM    5  N   UNK     0      31.443  10.494  65.014  0.00  0.00    -0.146 N 
HETATM    6  C   UNK     0      33.575   9.501  63.988  0.00  0.00     0.025 C 
ENDBRANCH   3   4
BRANCH   2   7
HETATM    7  C   UNK     0      29.699   7.833  63.042  0.00  0.00     0.002 C 
HETATM    8  C   UNK     0      28.506   8.140  62.545  0.00  0.00     0.000 C 
BRANCH   8   9
HETATM    9  C   UNK     0      27.577   7.200  62.396  0.00  0.00     0.000 C 
HETATM   10  C   UNK     0      27.771   5.992  62.922  0.00  0.00     0.000 C 
BRANCH  10  11
HETATM   11  C   UNK     0      26.843   5.051  62.773  0.00  0.00     0.000 C 
HETATM   12  C   UNK     0      25.764   5.281  62.033  0.00  0.00     0.000 C 
BRANCH  12  13
HETATM   13  C   UNK     0      24.836   4.340  61.884  0.00  0.00     0.000 C 
HETATM   14  C   UNK     0      25.198   3.060  61.822  0.00  0.00     0.000 C 
ENDBRANCH  12  13
ENDBRANCH  10  11
ENDBRANCH   8   9
ENDBRANCH   2   7
TORSDOF 5
ENDMDL
MODEL 5
REMARK VINA RESULT:      -6.3      1.395      1.928
REMARK  5 active torsions:
REMARK  status: ('A' for Active; 'I' for Inactive)
REMARK    1  A    between atoms: C_3  and  C_5 
REMARK    2  A    between atoms: C_4  and  C_6 
REMARK    3  A    between atoms: C_7  and  C_10 
REMARK    4  A    between atoms: C_8  and  C_9 
REMARK    5  A    between atoms: C_11  and  C_12 
ROOT
HETATM    1  O   UNK     0      26.487   6.078  62.621  0.00  0.00    -0.189 OA
HETATM    2  C   UNK     0      27.801   4.095  63.602  0.00  0.00     0.029 C 
HETATM    3  C   UNK     0      26.961   4.872  62.919  0.00  0.00     0.150 C 
ENDROOT
BRANCH   3   4
HETATM    4  C   UNK     0      26.100   4.323  62.067  0.00  0.00     0.128 C 
HETATM    5  N   UNK     0      26.249   5.360  61.248  0.00  0.00    -0.146 N 
HETATM    6  C   UNK     0      25.537   3.151  62.341  0.00  0.00     0.025 C 
ENDBRANCH   3   4
BRANCH   2   7
HETATM    7  C   UNK     0      28.662   4.644  64.454  0.00  0.00     0.002 C 
HETATM    8  C   UNK     0      29.488   5.603  64.051  0.00  0.00     0.000 C 
BRANCH   8   9
HETATM    9  C   UNK     0      30.349   6.151  64.904  0.00  0.00     0.000 C 
HETATM   10  C   UNK     0      30.797   7.387  64.687  0.00  0.00     0.000 C 
BRANCH  10  11
HETATM   11  C   UNK     0      31.657   7.936  65.539  0.00  0.00     0.000 C 
HETATM   12  C   UNK     0      31.359   8.027  66.831  0.00  0.00     0.000 C 
BRANCH  12  13
HETATM   13  C   UNK     0      32.220   8.576  67.683  0.00  0.00     0.000 C 
HETATM   14  C   UNK     0      33.476   8.137  67.728  0.00  0.00     0.000 C 
ENDBRANCH  12  13
ENDBRANCH  10  11
ENDBRANCH   8   9
ENDBRANCH   2   7
TORSDOF 5
ENDMDL
