MODEL 1
REMARK VINA RESULT:      -6.5      0.000      0.000
REMARK  5 active torsions:
REMARK  status: ('A' for Active; 'I' for Inactive)
REMARK    1  A    between atoms: C_3  and  C_5 
REMARK    2  A    between atoms: C_4  and  C_6 
REMARK    3  A    between atoms: C_7  and  C_10 
REMARK    4  A    between atoms: C_8  and  C_9 
REMARK    5  A    between atoms: C_11  and  C_12 
ROOT
HETATM    1  O   UNK     0       0.616   0.771 -21.192  0.00  0.00    -0.189 OA
HETATM    2  C   UNK     0       0.780  -1.316 -19.696  0.00  0.00     0.029 C 
HETATM    3  C   UNK     0       0.357  -0.291 -20.434  0.00  0.00     0.150 C 
ENDROOT
BRANCH   3   4
HETATM    4  C   UNK     0      -0.947  -0.085 -20.591  0.00  0.00     0.128 C 
HETATM    5  N   UNK     0      -0.769   1.214 -20.366  0.00  0.00    -0.146 N 
HETATM    6  C   UNK     0      -1.760  -1.099 -20.863  0.00  0.00     0.025 C 
ENDBRANCH   3   4
BRANCH   2   7
HETATM    7  C   UNK     0       2.085  -1.521 -19.539  0.00  0.00     0.002 C 
HETATM    8  C   UNK     0       2.560  -1.976 -18.384  0.00  0.00     0.000 C 
BRANCH   8   9
HETATM    9  C   UNK     0       3.865  -2.181 -18.228  0.00  0.00     0.000 C 
HETATM   10  C   UNK     0       4.541  -2.859 -19.154  0.00  0.00     0.000 C 
BRANCH  10  11
HETATM   11  C   UNK     0       5.846  -3.065 -18.998  0.00  0.00     0.000 C 
HETATM   12  C   UNK     0       6.648  -2.064 -18.654  0.00  0.00     0.000 C 
BRANCH  12  13
HETATM   13  C   UNK     0       7.953  -2.270 -18.499  0.00  0.00     0.000 C 
HETATM   14  C   UNK     0       8.379  -3.357 -17.859  0.00  0.00     0.000 C 
ENDBRANCH  12  13
ENDBRANCH  10  11
ENDBRANCH   8   9
ENDBRANCH   2   7
TORSDOF 5
ENDMDL
MODEL 2
REMARK VINA RESULT:      -6.3      5.090      8.181
REMARK  5 active torsions:
REMARK  status: ('A' for Active; 'I' for Inactive)
REMARK    1  A    between atoms: C_3  and  C_5 
REMARK    2  A    between atoms: C_4  and  C_6 
REMARK    3  A    between atoms: C_7  and  C_10 
REMARK    4  A    between atoms: C_8  and  C_9 
REMARK    5  A    between atoms: C_11  and  C_12 
ROOT
HETATM    1  O   UNK     0       1.588  -2.888 -21.839  0.00  0.00    -0.189 OA
HETATM    2  C   UNK     0      -0.792  -3.758 -22.285  0.00  0.00     0.029 C 
HETATM    3  C   UNK     0       0.505  -3.464 -22.355  0.00  0.00     0.150 C 
ENDROOT
BRANCH   3   4
HETATM    4  C   UNK     0       1.221  -3.878 -23.396  0.00  0.00     0.128 C 
HETATM    5  N   UNK     0       0.107  -4.002 -24.112  0.00  0.00    -0.146 N 
HETATM    6  C   UNK     0       2.542  -3.981 -23.306  0.00  0.00     0.025 C 
ENDBRANCH   3   4
BRANCH   2   7
HETATM    7  C   UNK     0      -1.508  -3.343 -21.244  0.00  0.00     0.002 C 
HETATM    8  C   UNK     0      -1.908  -2.079 -21.163  0.00  0.00     0.000 C 
BRANCH   8   9
HETATM    9  C   UNK     0      -2.624  -1.665 -20.121  0.00  0.00     0.000 C 
HETATM   10  C   UNK     0      -3.576  -2.451 -19.622  0.00  0.00     0.000 C 
BRANCH  10  11
HETATM   11  C   UNK     0      -4.292  -2.038 -18.580  0.00  0.00     0.000 C 
HETATM   12  C   UNK     0      -4.624  -2.886 -17.613  0.00  0.00     0.000 C 
BRANCH  12  13
HETATM   13  C   UNK     0      -5.340  -2.473 -16.571  0.00  0.00     0.000 C 
HETATM   14  C   UNK     0      -6.323  -3.239 -16.100  0.00  0.00     0.000 C 
ENDBRANCH  12  13
ENDBRANCH  10  11
ENDBRANCH   8   9
ENDBRANCH   2   7
TORSDOF 5
ENDMDL
MODEL 3
REMARK VINA RESULT:      -6.2      2.756      3.993
REMARK  5 active torsions:
REMARK  status: ('A' for Active; 'I' for Inactive)
REMARK    1  A    between atoms: C_3  and  C_5 
REMARK    2  A    between atoms: C_4  and  C_6 
REMARK    3  A    between atoms: C_7  and  C_10 
REMARK    4  A    between atoms: C_8  and  C_9 
REMARK    5  A    between atoms: C_11  and  C_12 
ROOT
HETATM    1  O   UNK     0      -3.423  -3.727 -19.639  0.00  0.00    -0.189 OA
HETATM    2  C   UNK     0      -2.390  -1.599 -20.650  0.00  0.00     0.029 C 
HETATM    3  C   UNK     0      -3.217  -2.522 -20.163  0.00  0.00     0.150 C 
ENDROOT
BRANCH   3   4
HETATM    4  C   UNK     0      -4.521  -2.271 -20.099  0.00  0.00     0.128 C 
HETATM    5  N   UNK     0      -4.404  -1.987 -18.805  0.00  0.00    -0.146 N 
HETATM    6  C   UNK     0      -5.283  -2.389 -21.182  0.00  0.00     0.025 C 
ENDBRANCH   3   4
BRANCH   2   7
HETATM    7  C   UNK     0      -1.085  -1.849 -20.714  0.00  0.00     0.002 C 
HETATM    8  C   UNK     0      -0.205  -0.945 -20.298  0.00  0.00     0.000 C 
BRANCH   8   9
HETATM    9  C   UNK     0       1.099  -1.197 -20.362  0.00  0.00     0.000 C 
HETATM   10  C   UNK     0       1.536  -2.237 -21.069  0.00  0.00     0.000 C 
BRANCH  10  11
HETATM   11  C   UNK     0       2.840  -2.490 -21.134  0.00  0.00     0.000 C 
HETATM   12  C   UNK     0       3.560  -2.598 -20.023  0.00  0.00     0.000 C 
BRANCH  12  13
HETATM   13  C   UNK     0       4.865  -2.851 -20.088  0.00  0.00     0.000 C 
HETATM   14  C   UNK     0       5.534  -3.157 -18.978  0.00  0.00     0.000 C 
ENDBRANCH  12  13
ENDBRANCH  10  11
ENDBRANCH   8   9
ENDBRANCH   2   7
TORSDOF 5
ENDMDL
MODEL 4
REMARK VINA RESULT:      -6.2      3.817      7.377
REMARK  5 active torsions:
REMARK  status: ('A' for Active; 'I' for Inactive)
REMARK    1  A    between atoms: C_3  and  C_5 
REMARK    2  A    between atoms: C_4  and  C_6 
REMARK    3  A    between atoms: C_7  and  C_10 
REMARK    4  A    between atoms: C_8  and  C_9 
REMARK    5  A    between atoms: C_11  and  C_12 
ROOT
HETATM    1  O   UNK     0       7.123  -4.308 -20.390  0.00  0.00    -0.189 OA
HETATM    2  C   UNK     0       6.034  -3.367 -18.257  0.00  0.00     0.029 C 
HETATM    3  C   UNK     0       6.827  -3.977 -19.136  0.00  0.00     0.150 C 
ENDROOT
BRANCH   3   4
HETATM    4  C   UNK     0       7.907  -4.626 -18.710  0.00  0.00     0.128 C 
HETATM    5  N   UNK     0       7.741  -5.531 -19.670  0.00  0.00    -0.146 N 
HETATM    6  C   UNK     0       8.595  -4.175 -17.667  0.00  0.00     0.025 C 
ENDBRANCH   3   4
BRANCH   2   7
HETATM    7  C   UNK     0       4.954  -2.717 -18.683  0.00  0.00     0.002 C 
HETATM    8  C   UNK     0       3.920  -2.526 -17.871  0.00  0.00     0.000 C 
BRANCH   8   9
HETATM    9  C   UNK     0       2.841  -1.877 -18.298  0.00  0.00     0.000 C 
HETATM   10  C   UNK     0       2.232  -2.272 -19.415  0.00  0.00     0.000 C 
BRANCH  10  11
HETATM   11  C   UNK     0       1.153  -1.623 -19.843  0.00  0.00     0.000 C 
HETATM   12  C   UNK     0       1.262  -0.663 -20.755  0.00  0.00     0.000 C 
BRANCH  12  13
HETATM   13  C   UNK     0       0.183  -0.014 -21.183  0.00  0.00     0.000 C 
HETATM   14  C   UNK     0      -0.430   0.851 -20.377  0.00  0.00     0.000 C 
ENDBRANCH  12  13
ENDBRANCH  10  11
ENDBRANCH   8   9
ENDBRANCH   2   7
TORSDOF 5
ENDMDL
MODEL 5
REMARK VINA RESULT:      -6.1      2.130      2.366
REMARK  5 active torsions:
REMARK  status: ('A' for Active; 'I' for Inactive)
REMARK    1  A    between atoms: C_3  and  C_5 
REMARK    2  A    between atoms: C_4  and  C_6 
REMARK    3  A    between atoms: C_7  and  C_10 
REMARK    4  A    between atoms: C_8  and  C_9 
REMARK    5  A    between atoms: C_11  and  C_12 
ROOT
HETATM    1  O   UNK     0      -0.568  -3.773 -20.870  0.00  0.00    -0.189 OA
HETATM    2  C   UNK     0       0.678  -1.626 -20.194  0.00  0.00     0.029 C 
HETATM    3  C   UNK     0      -0.219  -2.515 -20.617  0.00  0.00     0.150 C 
ENDROOT
BRANCH   3   4
HETATM    4  C   UNK     0      -1.416  -2.101 -21.024  0.00  0.00     0.128 C 
HETATM    5  N   UNK     0      -1.645  -3.294 -21.565  0.00  0.00    -0.146 N 
HETATM    6  C   UNK     0      -1.824  -0.864 -20.764  0.00  0.00     0.025 C 
ENDBRANCH   3   4
BRANCH   2   7
HETATM    7  C   UNK     0       1.875  -2.040 -19.787  0.00  0.00     0.002 C 
HETATM    8  C   UNK     0       2.798  -2.404 -20.671  0.00  0.00     0.000 C 
BRANCH   8   9
HETATM    9  C   UNK     0       3.994  -2.818 -20.263  0.00  0.00     0.000 C 
HETATM   10  C   UNK     0       4.325  -2.713 -18.977  0.00  0.00     0.000 C 
BRANCH  10  11
HETATM   11  C   UNK     0       5.521  -3.127 -18.568  0.00  0.00     0.000 C 
HETATM   12  C   UNK     0       6.379  -3.660 -19.430  0.00  0.00     0.000 C 
BRANCH  12  13
HETATM   13  C   UNK     0       7.575  -4.074 -19.021  0.00  0.00     0.000 C 
HETATM   14  C   UNK     0       7.877  -5.370 -19.067  0.00  0.00     0.000 C 
ENDBRANCH  12  13
ENDBRANCH  10  11
ENDBRANCH   8   9
ENDBRANCH   2   7
TORSDOF 5
ENDMDL
