MODEL 1
REMARK VINA RESULT:      -6.3      0.000      0.000
REMARK  5 active torsions:
REMARK  status: ('A' for Active; 'I' for Inactive)
REMARK    1  A    between atoms: C_3  and  C_5 
REMARK    2  A    between atoms: C_4  and  C_6 
REMARK    3  A    between atoms: C_7  and  C_10 
REMARK    4  A    between atoms: C_8  and  C_9 
REMARK    5  A    between atoms: C_11  and  C_12 
ROOT
HETATM    1  O   UNK     0       0.671   0.619 -21.160  0.00  0.00    -0.189 OA
HETATM    2  C   UNK     0       0.567  -1.663 -19.976  0.00  0.00     0.029 C 
HETATM    3  C   UNK     0       0.281  -0.489 -20.536  0.00  0.00     0.150 C 
ENDROOT
BRANCH   3   4
HETATM    4  C   UNK     0      -0.979  -0.067 -20.574  0.00  0.00     0.128 C 
HETATM    5  N   UNK     0      -0.567   1.181 -20.366  0.00  0.00    -0.146 N 
HETATM    6  C   UNK     0      -1.972  -0.927 -20.772  0.00  0.00     0.025 C 
ENDBRANCH   3   4
BRANCH   2   7
HETATM    7  C   UNK     0       1.828  -2.086 -19.938  0.00  0.00     0.002 C 
HETATM    8  C   UNK     0       2.447  -2.455 -21.054  0.00  0.00     0.000 C 
BRANCH   8   9
HETATM    9  C   UNK     0       3.708  -2.878 -21.015  0.00  0.00     0.000 C 
HETATM   10  C   UNK     0       4.399  -2.787 -19.881  0.00  0.00     0.000 C 
BRANCH  10  11
HETATM   11  C   UNK     0       5.660  -3.209 -19.841  0.00  0.00     0.000 C 
HETATM   12  C   UNK     0       6.212  -3.571 -18.688  0.00  0.00     0.000 C 
BRANCH  12  13
HETATM   13  C   UNK     0       7.473  -3.993 -18.648  0.00  0.00     0.000 C 
HETATM   14  C   UNK     0       7.778  -5.203 -19.112  0.00  0.00     0.000 C 
ENDBRANCH  12  13
ENDBRANCH  10  11
ENDBRANCH   8   9
ENDBRANCH   2   7
TORSDOF 5
ENDMDL
MODEL 2
REMARK VINA RESULT:      -6.3      0.990      1.241
REMARK  5 active torsions:
REMARK  status: ('A' for Active; 'I' for Inactive)
REMARK    1  A    between atoms: C_3  and  C_5 
REMARK    2  A    between atoms: C_4  and  C_6 
REMARK    3  A    between atoms: C_7  and  C_10 
REMARK    4  A    between atoms: C_8  and  C_9 
REMARK    5  A    between atoms: C_11  and  C_12 
ROOT
HETATM    1  O   UNK     0       0.043  -1.475 -21.875  0.00  0.00    -0.189 OA
HETATM    2  C   UNK     0       0.977  -1.313 -19.483  0.00  0.00     0.029 C 
HETATM    3  C   UNK     0       0.244  -1.200 -20.589  0.00  0.00     0.150 C 
ENDROOT
BRANCH   3   4
HETATM    4  C   UNK     0      -0.882  -0.492 -20.565  0.00  0.00     0.128 C 
HETATM    5  N   UNK     0      -0.177   0.622 -20.385  0.00  0.00    -0.146 N 
HETATM    6  C   UNK     0      -2.058  -1.093 -20.707  0.00  0.00     0.025 C 
ENDBRANCH   3   4
BRANCH   2   7
HETATM    7  C   UNK     0       2.103  -2.022 -19.508  0.00  0.00     0.002 C 
HETATM    8  C   UNK     0       2.971  -1.939 -18.506  0.00  0.00     0.000 C 
BRANCH   8   9
HETATM    9  C   UNK     0       4.097  -2.647 -18.532  0.00  0.00     0.000 C 
HETATM   10  C   UNK     0       4.742  -2.819 -19.684  0.00  0.00     0.000 C 
BRANCH  10  11
HETATM   11  C   UNK     0       5.868  -3.527 -19.711  0.00  0.00     0.000 C 
HETATM   12  C   UNK     0       6.579  -3.701 -18.602  0.00  0.00     0.000 C 
BRANCH  12  13
HETATM   13  C   UNK     0       7.704  -4.410 -18.629  0.00  0.00     0.000 C 
HETATM   14  C   UNK     0       7.809  -5.453 -19.450  0.00  0.00     0.000 C 
ENDBRANCH  12  13
ENDBRANCH  10  11
ENDBRANCH   8   9
ENDBRANCH   2   7
TORSDOF 5
ENDMDL
MODEL 3
REMARK VINA RESULT:      -6.3      2.654      3.709
REMARK  5 active torsions:
REMARK  status: ('A' for Active; 'I' for Inactive)
REMARK    1  A    between atoms: C_3  and  C_5 
REMARK    2  A    between atoms: C_4  and  C_6 
REMARK    3  A    between atoms: C_7  and  C_10 
REMARK    4  A    between atoms: C_8  and  C_9 
REMARK    5  A    between atoms: C_11  and  C_12 
ROOT
HETATM    1  O   UNK     0      -3.357  -3.639 -19.739  0.00  0.00    -0.189 OA
HETATM    2  C   UNK     0      -2.442  -1.500 -20.837  0.00  0.00     0.029 C 
HETATM    3  C   UNK     0      -3.215  -2.439 -20.295  0.00  0.00     0.150 C 
ENDROOT
BRANCH   3   4
HETATM    4  C   UNK     0      -4.523  -2.230 -20.178  0.00  0.00     0.128 C 
HETATM    5  N   UNK     0      -4.371  -2.012 -18.875  0.00  0.00    -0.146 N 
HETATM    6  C   UNK     0      -5.316  -2.313 -21.241  0.00  0.00     0.025 C 
ENDBRANCH   3   4
BRANCH   2   7
HETATM    7  C   UNK     0      -1.134  -1.709 -20.955  0.00  0.00     0.002 C 
HETATM    8  C   UNK     0      -0.274  -1.032 -20.202  0.00  0.00     0.000 C 
BRANCH   8   9
HETATM    9  C   UNK     0       1.034  -1.242 -20.320  0.00  0.00     0.000 C 
HETATM   10  C   UNK     0       1.658  -2.026 -19.443  0.00  0.00     0.000 C 
BRANCH  10  11
HETATM   11  C   UNK     0       2.966  -2.236 -19.561  0.00  0.00     0.000 C 
HETATM   12  C   UNK     0       3.697  -2.536 -18.493  0.00  0.00     0.000 C 
BRANCH  12  13
HETATM   13  C   UNK     0       5.006  -2.746 -18.611  0.00  0.00     0.000 C 
HETATM   14  C   UNK     0       5.537  -2.942 -19.816  0.00  0.00     0.000 C 
ENDBRANCH  12  13
ENDBRANCH  10  11
ENDBRANCH   8   9
ENDBRANCH   2   7
TORSDOF 5
ENDMDL
MODEL 4
REMARK VINA RESULT:      -6.2      3.868      7.570
REMARK  5 active torsions:
REMARK  status: ('A' for Active; 'I' for Inactive)
REMARK    1  A    between atoms: C_3  and  C_5 
REMARK    2  A    between atoms: C_4  and  C_6 
REMARK    3  A    between atoms: C_7  and  C_10 
REMARK    4  A    between atoms: C_8  and  C_9 
REMARK    5  A    between atoms: C_11  and  C_12 
ROOT
HETATM    1  O   UNK     0       7.121  -4.838 -20.531  0.00  0.00    -0.189 OA
HETATM    2  C   UNK     0       6.260  -3.400 -18.579  0.00  0.00     0.029 C 
HETATM    3  C   UNK     0       6.972  -4.193 -19.377  0.00  0.00     0.150 C 
ENDROOT
BRANCH   3   4
HETATM    4  C   UNK     0       8.146  -4.663 -18.964  0.00  0.00     0.128 C 
HETATM    5  N   UNK     0       8.087  -5.621 -19.884  0.00  0.00    -0.146 N 
HETATM    6  C   UNK     0       8.790  -4.075 -17.962  0.00  0.00     0.025 C 
ENDBRANCH   3   4
BRANCH   2   7
HETATM    7  C   UNK     0       5.086  -2.930 -18.993  0.00  0.00     0.002 C 
HETATM    8  C   UNK     0       4.166  -2.549 -18.113  0.00  0.00     0.000 C 
BRANCH   8   9
HETATM    9  C   UNK     0       2.993  -2.080 -18.528  0.00  0.00     0.000 C 
HETATM   10  C   UNK     0       2.578  -2.341 -19.766  0.00  0.00     0.000 C 
BRANCH  10  11
HETATM   11  C   UNK     0       1.405  -1.872 -20.181  0.00  0.00     0.000 C 
HETATM   12  C   UNK     0       1.310  -0.646 -20.682  0.00  0.00     0.000 C 
BRANCH  12  13
HETATM   13  C   UNK     0       0.137  -0.177 -21.098  0.00  0.00     0.000 C 
HETATM   14  C   UNK     0      -0.441   0.830 -20.445  0.00  0.00     0.000 C 
ENDBRANCH  12  13
ENDBRANCH  10  11
ENDBRANCH   8   9
ENDBRANCH   2   7
TORSDOF 5
ENDMDL
MODEL 5
REMARK VINA RESULT:      -6.0      4.366      7.634
REMARK  5 active torsions:
REMARK  status: ('A' for Active; 'I' for Inactive)
REMARK    1  A    between atoms: C_3  and  C_5 
REMARK    2  A    between atoms: C_4  and  C_6 
REMARK    3  A    between atoms: C_7  and  C_10 
REMARK    4  A    between atoms: C_8  and  C_9 
REMARK    5  A    between atoms: C_11  and  C_12 
ROOT
HETATM    1  O   UNK     0       7.932  -5.332 -18.675  0.00  0.00    -0.189 OA
HETATM    2  C   UNK     0       6.626  -3.117 -18.591  0.00  0.00     0.029 C 
HETATM    3  C   UNK     0       7.523  -4.090 -18.436  0.00  0.00     0.150 C 
ENDROOT
BRANCH   3   4
HETATM    4  C   UNK     0       8.613  -3.871 -17.705  0.00  0.00     0.128 C 
HETATM    5  N   UNK     0       8.339  -4.949 -16.975  0.00  0.00    -0.146 N 
HETATM    6  C   UNK     0       9.399  -2.833 -17.965  0.00  0.00     0.025 C 
ENDBRANCH   3   4
BRANCH   2   7
HETATM    7  C   UNK     0       5.536  -3.336 -19.321  0.00  0.00     0.002 C 
HETATM    8  C   UNK     0       4.627  -2.380 -19.475  0.00  0.00     0.000 C 
BRANCH   8   9
HETATM    9  C   UNK     0       3.537  -2.599 -20.206  0.00  0.00     0.000 C 
HETATM   10  C   UNK     0       3.658  -2.877 -21.502  0.00  0.00     0.000 C 
BRANCH  10  11
HETATM   11  C   UNK     0       2.569  -3.096 -22.234  0.00  0.00     0.000 C 
HETATM   12  C   UNK     0       1.364  -3.045 -21.678  0.00  0.00     0.000 C 
BRANCH  12  13
HETATM   13  C   UNK     0       0.275  -3.264 -22.410  0.00  0.00     0.000 C 
HETATM   14  C   UNK     0      -0.900  -3.442 -21.809  0.00  0.00     0.000 C 
ENDBRANCH  12  13
ENDBRANCH  10  11
ENDBRANCH   8   9
ENDBRANCH   2   7
TORSDOF 5
ENDMDL
