MODEL 1
REMARK VINA RESULT:      -6.4      0.000      0.000
REMARK  5 active torsions:
REMARK  status: ('A' for Active; 'I' for Inactive)
REMARK    1  A    between atoms: C_3  and  C_5 
REMARK    2  A    between atoms: C_4  and  C_6 
REMARK    3  A    between atoms: C_7  and  C_10 
REMARK    4  A    between atoms: C_8  and  C_9 
REMARK    5  A    between atoms: C_11  and  C_12 
ROOT
HETATM    1  O   UNK     0       0.848   0.498 -21.232  0.00  0.00    -0.189 OA
HETATM    2  C   UNK     0       0.904  -1.446 -19.548  0.00  0.00     0.029 C 
HETATM    3  C   UNK     0       0.535  -0.466 -20.371  0.00  0.00     0.150 C 
ENDROOT
BRANCH   3   4
HETATM    4  C   UNK     0      -0.755  -0.181 -20.521  0.00  0.00     0.128 C 
HETATM    5  N   UNK     0      -0.486   1.114 -20.384  0.00  0.00    -0.146 N 
HETATM    6  C   UNK     0      -1.640  -1.153 -20.715  0.00  0.00     0.025 C 
ENDBRANCH   3   4
BRANCH   2   7
HETATM    7  C   UNK     0       2.195  -1.730 -19.398  0.00  0.00     0.002 C 
HETATM    8  C   UNK     0       2.850  -2.400 -20.340  0.00  0.00     0.000 C 
BRANCH   8   9
HETATM    9  C   UNK     0       4.140  -2.684 -20.189  0.00  0.00     0.000 C 
HETATM   10  C   UNK     0       4.657  -2.775 -18.965  0.00  0.00     0.000 C 
BRANCH  10  11
HETATM   11  C   UNK     0       5.948  -3.060 -18.814  0.00  0.00     0.000 C 
HETATM   12  C   UNK     0       6.831  -2.088 -18.616  0.00  0.00     0.000 C 
BRANCH  12  13
HETATM   13  C   UNK     0       8.122  -2.372 -18.464  0.00  0.00     0.000 C 
HETATM   14  C   UNK     0       8.484  -3.444 -17.763  0.00  0.00     0.000 C 
ENDBRANCH  12  13
ENDBRANCH  10  11
ENDBRANCH   8   9
ENDBRANCH   2   7
TORSDOF 5
ENDMDL
MODEL 2
REMARK VINA RESULT:      -6.3      2.663      3.951
REMARK  5 active torsions:
REMARK  status: ('A' for Active; 'I' for Inactive)
REMARK    1  A    between atoms: C_3  and  C_5 
REMARK    2  A    between atoms: C_4  and  C_6 
REMARK    3  A    between atoms: C_7  and  C_10 
REMARK    4  A    between atoms: C_8  and  C_9 
REMARK    5  A    between atoms: C_11  and  C_12 
ROOT
HETATM    1  O   UNK     0      -3.271  -3.659 -19.638  0.00  0.00    -0.189 OA
HETATM    2  C   UNK     0      -2.385  -1.466 -20.651  0.00  0.00     0.029 C 
HETATM    3  C   UNK     0      -3.148  -2.446 -20.168  0.00  0.00     0.150 C 
ENDROOT
BRANCH   3   4
HETATM    4  C   UNK     0      -4.468  -2.293 -20.124  0.00  0.00     0.128 C 
HETATM    5  N   UNK     0      -4.401  -2.086 -18.812  0.00  0.00    -0.146 N 
HETATM    6  C   UNK     0      -5.194  -2.394 -21.232  0.00  0.00     0.025 C 
ENDBRANCH   3   4
BRANCH   2   7
HETATM    7  C   UNK     0      -1.065  -1.619 -20.695  0.00  0.00     0.002 C 
HETATM    8  C   UNK     0      -0.268  -0.772 -20.054  0.00  0.00     0.000 C 
BRANCH   8   9
HETATM    9  C   UNK     0       1.053  -0.926 -20.099  0.00  0.00     0.000 C 
HETATM   10  C   UNK     0       1.608  -2.013 -19.568  0.00  0.00     0.000 C 
BRANCH  10  11
HETATM   11  C   UNK     0       2.929  -2.168 -19.612  0.00  0.00     0.000 C 
HETATM   12  C   UNK     0       3.609  -2.459 -18.509  0.00  0.00     0.000 C 
BRANCH  12  13
HETATM   13  C   UNK     0       4.929  -2.613 -18.553  0.00  0.00     0.000 C 
HETATM   14  C   UNK     0       5.486  -3.248 -19.583  0.00  0.00     0.000 C 
ENDBRANCH  12  13
ENDBRANCH  10  11
ENDBRANCH   8   9
ENDBRANCH   2   7
TORSDOF 5
ENDMDL
MODEL 3
REMARK VINA RESULT:      -6.2      0.854      1.093
REMARK  5 active torsions:
REMARK  status: ('A' for Active; 'I' for Inactive)
REMARK    1  A    between atoms: C_3  and  C_5 
REMARK    2  A    between atoms: C_4  and  C_6 
REMARK    3  A    between atoms: C_7  and  C_10 
REMARK    4  A    between atoms: C_8  and  C_9 
REMARK    5  A    between atoms: C_11  and  C_12 
ROOT
HETATM    1  O   UNK     0       0.311   0.670 -20.605  0.00  0.00    -0.189 OA
HETATM    2  C   UNK     0       0.244  -1.879 -20.268  0.00  0.00     0.029 C 
HETATM    3  C   UNK     0      -0.064  -0.597 -20.452  0.00  0.00     0.150 C 
ENDROOT
BRANCH   3   4
HETATM    4  C   UNK     0      -1.339  -0.233 -20.555  0.00  0.00     0.128 C 
HETATM    5  N   UNK     0      -0.985   1.043 -20.428  0.00  0.00    -0.146 N 
HETATM    6  C   UNK     0      -2.288  -1.147 -20.716  0.00  0.00     0.025 C 
ENDBRANCH   3   4
BRANCH   2   7
HETATM    7  C   UNK     0       1.519  -2.243 -20.165  0.00  0.00     0.002 C 
HETATM    8  C   UNK     0       2.252  -1.842 -19.132  0.00  0.00     0.000 C 
BRANCH   8   9
HETATM    9  C   UNK     0       3.527  -2.207 -19.030  0.00  0.00     0.000 C 
HETATM   10  C   UNK     0       4.088  -2.925 -20.002  0.00  0.00     0.000 C 
BRANCH  10  11
HETATM   11  C   UNK     0       5.363  -3.290 -19.901  0.00  0.00     0.000 C 
HETATM   12  C   UNK     0       5.989  -3.228 -18.731  0.00  0.00     0.000 C 
BRANCH  12  13
HETATM   13  C   UNK     0       7.264  -3.593 -18.630  0.00  0.00     0.000 C 
HETATM   14  C   UNK     0       8.167  -2.722 -18.182  0.00  0.00     0.000 C 
ENDBRANCH  12  13
ENDBRANCH  10  11
ENDBRANCH   8   9
ENDBRANCH   2   7
TORSDOF 5
ENDMDL
MODEL 4
REMARK VINA RESULT:      -6.2      2.089      2.276
REMARK  5 active torsions:
REMARK  status: ('A' for Active; 'I' for Inactive)
REMARK    1  A    between atoms: C_3  and  C_5 
REMARK    2  A    between atoms: C_4  and  C_6 
REMARK    3  A    between atoms: C_7  and  C_10 
REMARK    4  A    between atoms: C_8  and  C_9 
REMARK    5  A    between atoms: C_11  and  C_12 
ROOT
HETATM    1  O   UNK     0      -0.669  -3.808 -20.671  0.00  0.00    -0.189 OA
HETATM    2  C   UNK     0       0.699  -1.630 -20.738  0.00  0.00     0.029 C 
HETATM    3  C   UNK     0      -0.272  -2.542 -20.761  0.00  0.00     0.150 C 
ENDROOT
BRANCH   3   4
HETATM    4  C   UNK     0      -1.530  -2.161 -20.965  0.00  0.00     0.128 C 
HETATM    5  N   UNK     0      -1.811  -3.361 -21.465  0.00  0.00    -0.146 N 
HETATM    6  C   UNK     0      -1.923  -0.935 -20.636  0.00  0.00     0.025 C 
ENDBRANCH   3   4
BRANCH   2   7
HETATM    7  C   UNK     0       1.957  -2.010 -20.534  0.00  0.00     0.002 C 
HETATM    8  C   UNK     0       2.441  -2.099 -19.300  0.00  0.00     0.000 C 
BRANCH   8   9
HETATM    9  C   UNK     0       3.699  -2.480 -19.098  0.00  0.00     0.000 C 
HETATM   10  C   UNK     0       4.424  -2.935 -20.119  0.00  0.00     0.000 C 
BRANCH  10  11
HETATM   11  C   UNK     0       5.682  -3.316 -19.917  0.00  0.00     0.000 C 
HETATM   12  C   UNK     0       6.132  -3.526 -18.685  0.00  0.00     0.000 C 
BRANCH  12  13
HETATM   13  C   UNK     0       7.390  -3.907 -18.483  0.00  0.00     0.000 C 
HETATM   14  C   UNK     0       7.800  -5.094 -18.926  0.00  0.00     0.000 C 
ENDBRANCH  12  13
ENDBRANCH  10  11
ENDBRANCH   8   9
ENDBRANCH   2   7
TORSDOF 5
ENDMDL
MODEL 5
REMARK VINA RESULT:      -6.0      2.945      7.055
REMARK  5 active torsions:
REMARK  status: ('A' for Active; 'I' for Inactive)
REMARK    1  A    between atoms: C_3  and  C_5 
REMARK    2  A    between atoms: C_4  and  C_6 
REMARK    3  A    between atoms: C_7  and  C_10 
REMARK    4  A    between atoms: C_8  and  C_9 
REMARK    5  A    between atoms: C_11  and  C_12 
ROOT
HETATM    1  O   UNK     0       6.383  -1.286 -20.993  0.00  0.00    -0.189 OA
HETATM    2  C   UNK     0       5.169  -2.773 -19.280  0.00  0.00     0.029 C 
HETATM    3  C   UNK     0       6.076  -2.109 -19.994  0.00  0.00     0.150 C 
ENDROOT
BRANCH   3   4
HETATM    4  C   UNK     0       7.365  -2.213 -19.684  0.00  0.00     0.128 C 
HETATM    5  N   UNK     0       7.083  -1.922 -18.417  0.00  0.00    -0.146 N 
HETATM    6  C   UNK     0       8.259  -2.516 -20.618  0.00  0.00     0.025 C 
ENDBRANCH   3   4
BRANCH   2   7
HETATM    7  C   UNK     0       3.880  -2.670 -19.591  0.00  0.00     0.002 C 
HETATM    8  C   UNK     0       3.036  -2.058 -18.767  0.00  0.00     0.000 C 
BRANCH   8   9
HETATM    9  C   UNK     0       1.747  -1.954 -19.079  0.00  0.00     0.000 C 
HETATM   10  C   UNK     0       1.348  -2.201 -20.325  0.00  0.00     0.000 C 
BRANCH  10  11
HETATM   11  C   UNK     0       0.060  -2.098 -20.638  0.00  0.00     0.000 C 
HETATM   12  C   UNK     0      -0.593  -0.958 -20.436  0.00  0.00     0.000 C 
BRANCH  12  13
HETATM   13  C   UNK     0      -1.881  -0.856 -20.748  0.00  0.00     0.000 C 
HETATM   14  C   UNK     0      -2.677  -1.917 -20.628  0.00  0.00     0.000 C 
ENDBRANCH  12  13
ENDBRANCH  10  11
ENDBRANCH   8   9
ENDBRANCH   2   7
TORSDOF 5
ENDMDL
