MODEL 1
REMARK VINA RESULT:      -5.3      0.000      0.000
REMARK  5 active torsions:
REMARK  status: ('A' for Active; 'I' for Inactive)
REMARK    1  A    between atoms: C_3  and  C_5 
REMARK    2  A    between atoms: C_4  and  C_6 
REMARK    3  A    between atoms: C_7  and  C_10 
REMARK    4  A    between atoms: C_8  and  C_9 
REMARK    5  A    between atoms: C_11  and  C_12 
ROOT
HETATM    1  O   UNK     0      29.139  15.613  39.099  0.00  0.00    -0.189 OA
HETATM    2  C   UNK     0      28.551  13.890  40.917  0.00  0.00     0.029 C 
HETATM    3  C   UNK     0      28.989  14.952  40.244  0.00  0.00     0.150 C 
ENDROOT
BRANCH   3   4
HETATM    4  C   UNK     0      29.611  15.933  40.892  0.00  0.00     0.128 C 
HETATM    5  N   UNK     0      29.639  16.653  39.774  0.00  0.00    -0.146 N 
HETATM    6  C   UNK     0      29.901  15.809  42.182  0.00  0.00     0.025 C 
ENDBRANCH   3   4
BRANCH   2   7
HETATM    7  C   UNK     0      27.929  12.909  40.270  0.00  0.00     0.002 C 
HETATM    8  C   UNK     0      26.667  12.607  40.557  0.00  0.00     0.000 C 
BRANCH   8   9
HETATM    9  C   UNK     0      26.046  11.626  39.908  0.00  0.00     0.000 C 
HETATM   10  C   UNK     0      26.743  10.820  39.109  0.00  0.00     0.000 C 
BRANCH  10  11
HETATM   11  C   UNK     0      26.122   9.838  38.460  0.00  0.00     0.000 C 
HETATM   12  C   UNK     0      25.375  10.103  37.395  0.00  0.00     0.000 C 
BRANCH  12  13
HETATM   13  C   UNK     0      24.754   9.121  36.746  0.00  0.00     0.000 C 
HETATM   14  C   UNK     0      25.183   7.867  36.880  0.00  0.00     0.000 C 
ENDBRANCH  12  13
ENDBRANCH  10  11
ENDBRANCH   8   9
ENDBRANCH   2   7
TORSDOF 5
ENDMDL
MODEL 2
REMARK VINA RESULT:      -5.2      8.354     12.027
REMARK  5 active torsions:
REMARK  status: ('A' for Active; 'I' for Inactive)
REMARK    1  A    between atoms: C_3  and  C_5 
REMARK    2  A    between atoms: C_4  and  C_6 
REMARK    3  A    between atoms: C_7  and  C_10 
REMARK    4  A    between atoms: C_8  and  C_9 
REMARK    5  A    between atoms: C_11  and  C_12 
ROOT
HETATM    1  O   UNK     0      25.566  22.652  38.545  0.00  0.00    -0.189 OA
HETATM    2  C   UNK     0      27.465  21.285  39.616  0.00  0.00     0.029 C 
HETATM    3  C   UNK     0      26.453  21.713  38.863  0.00  0.00     0.150 C 
ENDROOT
BRANCH   3   4
HETATM    4  C   UNK     0      25.967  20.930  37.904  0.00  0.00     0.128 C 
HETATM    5  N   UNK     0      25.998  21.952  37.054  0.00  0.00    -0.146 N 
HETATM    6  C   UNK     0      25.696  19.653  38.151  0.00  0.00     0.025 C 
ENDBRANCH   3   4
BRANCH   2   7
HETATM    7  C   UNK     0      27.950  22.068  40.575  0.00  0.00     0.002 C 
HETATM    8  C   UNK     0      27.299  22.205  41.725  0.00  0.00     0.000 C 
BRANCH   8   9
HETATM    9  C   UNK     0      27.785  22.989  42.684  0.00  0.00     0.000 C 
HETATM   10  C   UNK     0      28.054  22.474  43.883  0.00  0.00     0.000 C 
BRANCH  10  11
HETATM   11  C   UNK     0      28.540  23.257  44.842  0.00  0.00     0.000 C 
HETATM   12  C   UNK     0      29.851  23.429  44.970  0.00  0.00     0.000 C 
BRANCH  12  13
HETATM   13  C   UNK     0      30.337  24.211  45.930  0.00  0.00     0.000 C 
HETATM   14  C   UNK     0      29.506  24.784  46.799  0.00  0.00     0.000 C 
ENDBRANCH  12  13
ENDBRANCH  10  11
ENDBRANCH   8   9
ENDBRANCH   2   7
TORSDOF 5
ENDMDL
MODEL 3
REMARK VINA RESULT:      -5.1     13.767     15.006
REMARK  5 active torsions:
REMARK  status: ('A' for Active; 'I' for Inactive)
REMARK    1  A    between atoms: C_3  and  C_5 
REMARK    2  A    between atoms: C_4  and  C_6 
REMARK    3  A    between atoms: C_7  and  C_10 
REMARK    4  A    between atoms: C_8  and  C_9 
REMARK    5  A    between atoms: C_11  and  C_12 
ROOT
HETATM    1  O   UNK     0      28.759  24.184  46.037  0.00  0.00    -0.189 OA
HETATM    2  C   UNK     0      28.418  26.589  45.190  0.00  0.00     0.029 C 
HETATM    3  C   UNK     0      28.924  25.412  45.553  0.00  0.00     0.150 C 
ENDROOT
BRANCH   3   4
HETATM    4  C   UNK     0      30.230  25.190  45.435  0.00  0.00     0.128 C 
HETATM    5  N   UNK     0      30.447  26.501  45.378  0.00  0.00    -0.146 N 
HETATM    6  C   UNK     0      30.703  23.949  45.423  0.00  0.00     0.025 C 
ENDBRANCH   3   4
BRANCH   2   7
HETATM    7  C   UNK     0      27.112  26.810  45.308  0.00  0.00     0.002 C 
HETATM    8  C   UNK     0      26.283  26.491  44.320  0.00  0.00     0.000 C 
BRANCH   8   9
HETATM    9  C   UNK     0      24.977  26.713  44.439  0.00  0.00     0.000 C 
HETATM   10  C   UNK     0      24.174  25.727  44.836  0.00  0.00     0.000 C 
BRANCH  10  11
HETATM   11  C   UNK     0      22.868  25.948  44.955  0.00  0.00     0.000 C 
HETATM   12  C   UNK     0      22.186  25.417  45.963  0.00  0.00     0.000 C 
BRANCH  12  13
HETATM   13  C   UNK     0      20.880  25.638  46.082  0.00  0.00     0.000 C 
HETATM   14  C   UNK     0      20.366  25.937  47.274  0.00  0.00     0.000 C 
ENDBRANCH  12  13
ENDBRANCH  10  11
ENDBRANCH   8   9
ENDBRANCH   2   7
TORSDOF 5
ENDMDL
MODEL 4
REMARK VINA RESULT:      -5.1     14.046     15.745
REMARK  5 active torsions:
REMARK  status: ('A' for Active; 'I' for Inactive)
REMARK    1  A    between atoms: C_3  and  C_5 
REMARK    2  A    between atoms: C_4  and  C_6 
REMARK    3  A    between atoms: C_7  and  C_10 
REMARK    4  A    between atoms: C_8  and  C_9 
REMARK    5  A    between atoms: C_11  and  C_12 
ROOT
HETATM    1  O   UNK     0      23.440  27.040  41.065  0.00  0.00    -0.189 OA
HETATM    2  C   UNK     0      23.524  27.439  43.605  0.00  0.00     0.029 C 
HETATM    3  C   UNK     0      23.150  27.320  42.332  0.00  0.00     0.150 C 
ENDROOT
BRANCH   3   4
HETATM    4  C   UNK     0      21.890  27.571  41.989  0.00  0.00     0.128 C 
HETATM    5  N   UNK     0      22.169  28.869  41.913  0.00  0.00    -0.146 N 
HETATM    6  C   UNK     0      21.012  26.580  41.880  0.00  0.00     0.025 C 
ENDBRANCH   3   4
BRANCH   2   7
HETATM    7  C   UNK     0      24.784  27.188  43.949  0.00  0.00     0.002 C 
HETATM    8  C   UNK     0      25.145  25.971  44.338  0.00  0.00     0.000 C 
BRANCH   8   9
HETATM    9  C   UNK     0      26.405  25.720  44.681  0.00  0.00     0.000 C 
HETATM   10  C   UNK     0      27.199  26.723  45.054  0.00  0.00     0.000 C 
BRANCH  10  11
HETATM   11  C   UNK     0      28.459  26.474  45.398  0.00  0.00     0.000 C 
HETATM   12  C   UNK     0      28.876  25.224  45.566  0.00  0.00     0.000 C 
BRANCH  12  13
HETATM   13  C   UNK     0      30.137  24.975  45.909  0.00  0.00     0.000 C 
HETATM   14  C   UNK     0      30.700  23.819  45.562  0.00  0.00     0.000 C 
ENDBRANCH  12  13
ENDBRANCH  10  11
ENDBRANCH   8   9
ENDBRANCH   2   7
TORSDOF 5
ENDMDL
MODEL 5
REMARK VINA RESULT:      -5.1     13.606     15.239
REMARK  5 active torsions:
REMARK  status: ('A' for Active; 'I' for Inactive)
REMARK    1  A    between atoms: C_3  and  C_5 
REMARK    2  A    between atoms: C_4  and  C_6 
REMARK    3  A    between atoms: C_7  and  C_10 
REMARK    4  A    between atoms: C_8  and  C_9 
REMARK    5  A    between atoms: C_11  and  C_12 
ROOT
HETATM    1  O   UNK     0      28.670  23.971  44.513  0.00  0.00    -0.189 OA
HETATM    2  C   UNK     0      28.313  26.279  45.593  0.00  0.00     0.029 C 
HETATM    3  C   UNK     0      28.714  25.044  45.299  0.00  0.00     0.150 C 
ENDROOT
BRANCH   3   4
HETATM    4  C   UNK     0      29.600  24.434  46.081  0.00  0.00     0.128 C 
HETATM    5  N   UNK     0      28.919  24.823  47.155  0.00  0.00    -0.146 N 
HETATM    6  C   UNK     0      30.634  23.790  45.552  0.00  0.00     0.025 C 
ENDBRANCH   3   4
BRANCH   2   7
HETATM    7  C   UNK     0      27.427  26.889  44.811  0.00  0.00     0.002 C 
HETATM    8  C   UNK     0      26.197  26.404  44.682  0.00  0.00     0.000 C 
BRANCH   8   9
HETATM    9  C   UNK     0      25.312  27.015  43.899  0.00  0.00     0.000 C 
HETATM   10  C   UNK     0      24.441  26.291  43.199  0.00  0.00     0.000 C 
BRANCH  10  11
HETATM   11  C   UNK     0      23.555  26.901  42.416  0.00  0.00     0.000 C 
HETATM   12  C   UNK     0      23.064  28.088  42.754  0.00  0.00     0.000 C 
BRANCH  12  13
HETATM   13  C   UNK     0      22.179  28.697  41.971  0.00  0.00     0.000 C 
HETATM   14  C   UNK     0      22.150  30.028  41.917  0.00  0.00     0.000 C 
ENDBRANCH  12  13
ENDBRANCH  10  11
ENDBRANCH   8   9
ENDBRANCH   2   7
TORSDOF 5
ENDMDL
