MODEL 1
REMARK VINA RESULT:      -5.4      0.000      0.000
REMARK  5 active torsions:
REMARK  status: ('A' for Active; 'I' for Inactive)
REMARK    1  A    between atoms: C_3  and  C_5 
REMARK    2  A    between atoms: C_4  and  C_6 
REMARK    3  A    between atoms: C_7  and  C_10 
REMARK    4  A    between atoms: C_8  and  C_9 
REMARK    5  A    between atoms: C_11  and  C_12 
ROOT
HETATM    1  O   UNK     0      23.176  26.995  40.805  0.00  0.00    -0.189 OA
HETATM    2  C   UNK     0      23.729  27.369  43.289  0.00  0.00     0.029 C 
HETATM    3  C   UNK     0      23.179  27.383  42.077  0.00  0.00     0.150 C 
ENDROOT
BRANCH   3   4
HETATM    4  C   UNK     0      22.074  28.092  41.862  0.00  0.00     0.128 C 
HETATM    5  N   UNK     0      21.406  26.972  41.600  0.00  0.00    -0.146 N 
HETATM    6  C   UNK     0      22.090  29.416  41.980  0.00  0.00     0.025 C 
ENDBRANCH   3   4
BRANCH   2   7
HETATM    7  C   UNK     0      24.834  26.660  43.504  0.00  0.00     0.002 C 
HETATM    8  C   UNK     0      25.646  26.968  44.509  0.00  0.00     0.000 C 
BRANCH   8   9
HETATM    9  C   UNK     0      26.751  26.258  44.723  0.00  0.00     0.000 C 
HETATM   10  C   UNK     0      27.858  26.871  45.140  0.00  0.00     0.000 C 
BRANCH  10  11
HETATM   11  C   UNK     0      28.963  26.162  45.353  0.00  0.00     0.000 C 
HETATM   12  C   UNK     0      28.984  25.214  46.284  0.00  0.00     0.000 C 
BRANCH  12  13
HETATM   13  C   UNK     0      30.089  24.505  46.498  0.00  0.00     0.000 C 
HETATM   14  C   UNK     0      30.589  23.750  45.521  0.00  0.00     0.000 C 
ENDBRANCH  12  13
ENDBRANCH  10  11
ENDBRANCH   8   9
ENDBRANCH   2   7
TORSDOF 5
ENDMDL
MODEL 2
REMARK VINA RESULT:      -5.3      5.431      6.056
REMARK  5 active torsions:
REMARK  status: ('A' for Active; 'I' for Inactive)
REMARK    1  A    between atoms: C_3  and  C_5 
REMARK    2  A    between atoms: C_4  and  C_6 
REMARK    3  A    between atoms: C_7  and  C_10 
REMARK    4  A    between atoms: C_8  and  C_9 
REMARK    5  A    between atoms: C_11  and  C_12 
ROOT
HETATM    1  O   UNK     0      25.247  22.717  38.898  0.00  0.00    -0.189 OA
HETATM    2  C   UNK     0      27.414  21.489  39.543  0.00  0.00     0.029 C 
HETATM    3  C   UNK     0      26.265  21.865  38.985  0.00  0.00     0.150 C 
ENDROOT
BRANCH   3   4
HETATM    4  C   UNK     0      25.734  21.131  38.011  0.00  0.00     0.128 C 
HETATM    5  N   UNK     0      25.322  20.240  38.908  0.00  0.00    -0.146 N 
HETATM    6  C   UNK     0      25.820  21.528  36.746  0.00  0.00     0.025 C 
ENDBRANCH   3   4
BRANCH   2   7
HETATM    7  C   UNK     0      27.945  22.224  40.517  0.00  0.00     0.002 C 
HETATM    8  C   UNK     0      27.391  22.242  41.724  0.00  0.00     0.000 C 
BRANCH   8   9
HETATM    9  C   UNK     0      27.923  22.976  42.697  0.00  0.00     0.000 C 
HETATM   10  C   UNK     0      28.007  22.478  43.929  0.00  0.00     0.000 C 
BRANCH  10  11
HETATM   11  C   UNK     0      28.538  23.212  44.903  0.00  0.00     0.000 C 
HETATM   12  C   UNK     0      29.845  23.449  44.929  0.00  0.00     0.000 C 
BRANCH  12  13
HETATM   13  C   UNK     0      30.377  24.183  45.903  0.00  0.00     0.000 C 
HETATM   14  C   UNK     0      29.583  24.769  46.797  0.00  0.00     0.000 C 
ENDBRANCH  12  13
ENDBRANCH  10  11
ENDBRANCH   8   9
ENDBRANCH   2   7
TORSDOF 5
ENDMDL
MODEL 3
REMARK VINA RESULT:      -5.3     13.896     16.014
REMARK  5 active torsions:
REMARK  status: ('A' for Active; 'I' for Inactive)
REMARK    1  A    between atoms: C_3  and  C_5 
REMARK    2  A    between atoms: C_4  and  C_6 
REMARK    3  A    between atoms: C_7  and  C_10 
REMARK    4  A    between atoms: C_8  and  C_9 
REMARK    5  A    between atoms: C_11  and  C_12 
ROOT
HETATM    1  O   UNK     0      27.339  14.090  43.310  0.00  0.00    -0.189 OA
HETATM    2  C   UNK     0      28.903  13.877  41.278  0.00  0.00     0.029 C 
HETATM    3  C   UNK     0      28.366  14.148  42.466  0.00  0.00     0.150 C 
ENDROOT
BRANCH   3   4
HETATM    4  C   UNK     0      29.082  14.796  43.381  0.00  0.00     0.128 C 
HETATM    5  N   UNK     0      28.456  14.125  44.345  0.00  0.00    -0.146 N 
HETATM    6  C   UNK     0      29.983  15.700  43.015  0.00  0.00     0.025 C 
ENDBRANCH   3   4
BRANCH   2   7
HETATM    7  C   UNK     0      28.188  13.230  40.363  0.00  0.00     0.002 C 
HETATM    8  C   UNK     0      27.958  11.927  40.487  0.00  0.00     0.000 C 
BRANCH   8   9
HETATM    9  C   UNK     0      27.242  11.281  39.571  0.00  0.00     0.000 C 
HETATM   10  C   UNK     0      25.923  11.461  39.516  0.00  0.00     0.000 C 
BRANCH  10  11
HETATM   11  C   UNK     0      25.207  10.815  38.601  0.00  0.00     0.000 C 
HETATM   12  C   UNK     0      25.805  10.041  37.701  0.00  0.00     0.000 C 
BRANCH  12  13
HETATM   13  C   UNK     0      25.089   9.395  36.786  0.00  0.00     0.000 C 
HETATM   14  C   UNK     0      25.094   8.063  36.762  0.00  0.00     0.000 C 
ENDBRANCH  12  13
ENDBRANCH  10  11
ENDBRANCH   8   9
ENDBRANCH   2   7
TORSDOF 5
ENDMDL
MODEL 4
REMARK VINA RESULT:      -5.2     13.910     15.852
REMARK  5 active torsions:
REMARK  status: ('A' for Active; 'I' for Inactive)
REMARK    1  A    between atoms: C_3  and  C_5 
REMARK    2  A    between atoms: C_4  and  C_6 
REMARK    3  A    between atoms: C_7  and  C_10 
REMARK    4  A    between atoms: C_8  and  C_9 
REMARK    5  A    between atoms: C_11  and  C_12 
ROOT
HETATM    1  O   UNK     0      29.218  15.728  39.015  0.00  0.00    -0.189 OA
HETATM    2  C   UNK     0      28.629  13.997  40.825  0.00  0.00     0.029 C 
HETATM    3  C   UNK     0      29.084  15.053  40.153  0.00  0.00     0.150 C 
ENDROOT
BRANCH   3   4
HETATM    4  C   UNK     0      29.768  15.997  40.794  0.00  0.00     0.128 C 
HETATM    5  N   UNK     0      29.894  15.192  41.845  0.00  0.00    -0.146 N 
HETATM    6  C   UNK     0      30.006  17.167  40.212  0.00  0.00     0.025 C 
ENDBRANCH   3   4
BRANCH   2   7
HETATM    7  C   UNK     0      27.945  13.052  40.184  0.00  0.00     0.002 C 
HETATM    8  C   UNK     0      27.018  12.345  40.820  0.00  0.00     0.000 C 
BRANCH   8   9
HETATM    9  C   UNK     0      26.335  11.401  40.179  0.00  0.00     0.000 C 
HETATM   10  C   UNK     0      26.868  10.812  39.111  0.00  0.00     0.000 C 
BRANCH  10  11
HETATM   11  C   UNK     0      26.185   9.868  38.469  0.00  0.00     0.000 C 
HETATM   12  C   UNK     0      25.380  10.187  37.462  0.00  0.00     0.000 C 
BRANCH  12  13
HETATM   13  C   UNK     0      24.697   9.243  36.820  0.00  0.00     0.000 C 
HETATM   14  C   UNK     0      25.127   7.983  36.848  0.00  0.00     0.000 C 
ENDBRANCH  12  13
ENDBRANCH  10  11
ENDBRANCH   8   9
ENDBRANCH   2   7
TORSDOF 5
ENDMDL
MODEL 5
REMARK VINA RESULT:      -5.2      3.299      7.404
REMARK  5 active torsions:
REMARK  status: ('A' for Active; 'I' for Inactive)
REMARK    1  A    between atoms: C_3  and  C_5 
REMARK    2  A    between atoms: C_4  and  C_6 
REMARK    3  A    between atoms: C_7  and  C_10 
REMARK    4  A    between atoms: C_8  and  C_9 
REMARK    5  A    between atoms: C_11  and  C_12 
ROOT
HETATM    1  O   UNK     0      28.703  24.063  44.546  0.00  0.00    -0.189 OA
HETATM    2  C   UNK     0      28.375  26.299  45.776  0.00  0.00     0.029 C 
HETATM    3  C   UNK     0      28.768  25.085  45.395  0.00  0.00     0.150 C 
ENDROOT
BRANCH   3   4
HETATM    4  C   UNK     0      29.674  24.429  46.114  0.00  0.00     0.128 C 
HETATM    5  N   UNK     0      29.044  24.782  47.231  0.00  0.00    -0.146 N 
HETATM    6  C   UNK     0      30.675  23.792  45.516  0.00  0.00     0.025 C 
ENDBRANCH   3   4
BRANCH   2   7
HETATM    7  C   UNK     0      27.470  26.955  45.056  0.00  0.00     0.002 C 
HETATM    8  C   UNK     0      26.380  26.334  44.618  0.00  0.00     0.000 C 
BRANCH   8   9
HETATM    9  C   UNK     0      25.475  26.990  43.898  0.00  0.00     0.000 C 
HETATM   10  C   UNK     0      24.233  27.122  44.362  0.00  0.00     0.000 C 
BRANCH  10  11
HETATM   11  C   UNK     0      23.327  27.779  43.643  0.00  0.00     0.000 C 
HETATM   12  C   UNK     0      23.140  27.481  42.362  0.00  0.00     0.000 C 
BRANCH  12  13
HETATM   13  C   UNK     0      22.234  28.138  41.643  0.00  0.00     0.000 C 
HETATM   14  C   UNK     0      22.112  29.457  41.781  0.00  0.00     0.000 C 
ENDBRANCH  12  13
ENDBRANCH  10  11
ENDBRANCH   8   9
ENDBRANCH   2   7
TORSDOF 5
ENDMDL
