MODEL 1
REMARK VINA RESULT:      -5.3      0.000      0.000
REMARK  5 active torsions:
REMARK  status: ('A' for Active; 'I' for Inactive)
REMARK    1  A    between atoms: C_3  and  C_5 
REMARK    2  A    between atoms: C_4  and  C_6 
REMARK    3  A    between atoms: C_7  and  C_10 
REMARK    4  A    between atoms: C_8  and  C_9 
REMARK    5  A    between atoms: C_11  and  C_12 
ROOT
HETATM    1  O   UNK     0      29.015  15.746  39.308  0.00  0.00    -0.189 OA
HETATM    2  C   UNK     0      28.811  13.773  40.947  0.00  0.00     0.029 C 
HETATM    3  C   UNK     0      29.082  14.939  40.363  0.00  0.00     0.150 C 
ENDROOT
BRANCH   3   4
HETATM    4  C   UNK     0      29.746  15.875  41.037  0.00  0.00     0.128 C 
HETATM    5  N   UNK     0      29.675  15.133  42.138  0.00  0.00    -0.146 N 
HETATM    6  C   UNK     0      30.143  16.987  40.428  0.00  0.00     0.025 C 
ENDBRANCH   3   4
BRANCH   2   7
HETATM    7  C   UNK     0      28.148  12.837  40.273  0.00  0.00     0.002 C 
HETATM    8  C   UNK     0      26.858  12.624  40.512  0.00  0.00     0.000 C 
BRANCH   8   9
HETATM    9  C   UNK     0      26.196  11.688  39.838  0.00  0.00     0.000 C 
HETATM   10  C   UNK     0      26.869  10.781  39.134  0.00  0.00     0.000 C 
BRANCH  10  11
HETATM   11  C   UNK     0      26.207   9.845  38.460  0.00  0.00     0.000 C 
HETATM   12  C   UNK     0      25.337  10.184  37.515  0.00  0.00     0.000 C 
BRANCH  12  13
HETATM   13  C   UNK     0      24.675   9.248  36.842  0.00  0.00     0.000 C 
HETATM   14  C   UNK     0      25.111   7.990  36.858  0.00  0.00     0.000 C 
ENDBRANCH  12  13
ENDBRANCH  10  11
ENDBRANCH   8   9
ENDBRANCH   2   7
TORSDOF 5
ENDMDL
MODEL 2
REMARK VINA RESULT:      -5.3      1.934      2.140
REMARK  5 active torsions:
REMARK  status: ('A' for Active; 'I' for Inactive)
REMARK    1  A    between atoms: C_3  and  C_5 
REMARK    2  A    between atoms: C_4  and  C_6 
REMARK    3  A    between atoms: C_7  and  C_10 
REMARK    4  A    between atoms: C_8  and  C_9 
REMARK    5  A    between atoms: C_11  and  C_12 
ROOT
HETATM    1  O   UNK     0      29.175  12.885  43.517  0.00  0.00    -0.189 OA
HETATM    2  C   UNK     0      29.010  14.000  41.204  0.00  0.00     0.029 C 
HETATM    3  C   UNK     0      29.329  13.670  42.454  0.00  0.00     0.150 C 
ENDROOT
BRANCH   3   4
HETATM    4  C   UNK     0      30.241  14.380  43.111  0.00  0.00     0.128 C 
HETATM    5  N   UNK     0      30.890  13.261  43.420  0.00  0.00    -0.146 N 
HETATM    6  C   UNK     0      30.144  15.703  43.178  0.00  0.00     0.025 C 
ENDBRANCH   3   4
BRANCH   2   7
HETATM    7  C   UNK     0      28.097  13.290  40.547  0.00  0.00     0.002 C 
HETATM    8  C   UNK     0      28.310  12.007  40.277  0.00  0.00     0.000 C 
BRANCH   8   9
HETATM    9  C   UNK     0      27.396  11.298  39.620  0.00  0.00     0.000 C 
HETATM   10  C   UNK     0      26.118  11.669  39.660  0.00  0.00     0.000 C 
BRANCH  10  11
HETATM   11  C   UNK     0      25.204  10.961  39.003  0.00  0.00     0.000 C 
HETATM   12  C   UNK     0      25.532  10.298  37.899  0.00  0.00     0.000 C 
BRANCH  12  13
HETATM   13  C   UNK     0      24.618   9.590  37.242  0.00  0.00     0.000 C 
HETATM   14  C   UNK     0      24.946   8.408  36.724  0.00  0.00     0.000 C 
ENDBRANCH  12  13
ENDBRANCH  10  11
ENDBRANCH   8   9
ENDBRANCH   2   7
TORSDOF 5
ENDMDL
MODEL 3
REMARK VINA RESULT:      -5.2     13.778     15.829
REMARK  5 active torsions:
REMARK  status: ('A' for Active; 'I' for Inactive)
REMARK    1  A    between atoms: C_3  and  C_5 
REMARK    2  A    between atoms: C_4  and  C_6 
REMARK    3  A    between atoms: C_7  and  C_10 
REMARK    4  A    between atoms: C_8  and  C_9 
REMARK    5  A    between atoms: C_11  and  C_12 
ROOT
HETATM    1  O   UNK     0      23.286  26.928  40.775  0.00  0.00    -0.189 OA
HETATM    2  C   UNK     0      23.723  27.197  43.296  0.00  0.00     0.029 C 
HETATM    3  C   UNK     0      23.201  27.213  42.071  0.00  0.00     0.150 C 
ENDROOT
BRANCH   3   4
HETATM    4  C   UNK     0      21.997  27.745  41.874  0.00  0.00     0.128 C 
HETATM    5  N   UNK     0      21.455  26.531  41.914  0.00  0.00    -0.146 N 
HETATM    6  C   UNK     0      21.856  29.059  41.741  0.00  0.00     0.025 C 
ENDBRANCH   3   4
BRANCH   2   7
HETATM    7  C   UNK     0      24.927  26.666  43.492  0.00  0.00     0.002 C 
HETATM    8  C   UNK     0      25.636  26.987  44.569  0.00  0.00     0.000 C 
BRANCH   8   9
HETATM    9  C   UNK     0      26.839  26.454  44.765  0.00  0.00     0.000 C 
HETATM   10  C   UNK     0      27.774  27.155  45.404  0.00  0.00     0.000 C 
BRANCH  10  11
HETATM   11  C   UNK     0      28.977  26.624  45.600  0.00  0.00     0.000 C 
HETATM   12  C   UNK     0      29.271  25.424  45.110  0.00  0.00     0.000 C 
BRANCH  12  13
HETATM   13  C   UNK     0      30.475  24.893  45.307  0.00  0.00     0.000 C 
HETATM   14  C   UNK     0      30.586  23.597  45.591  0.00  0.00     0.000 C 
ENDBRANCH  12  13
ENDBRANCH  10  11
ENDBRANCH   8   9
ENDBRANCH   2   7
TORSDOF 5
ENDMDL
MODEL 4
REMARK VINA RESULT:      -5.2      8.185     12.133
REMARK  5 active torsions:
REMARK  status: ('A' for Active; 'I' for Inactive)
REMARK    1  A    between atoms: C_3  and  C_5 
REMARK    2  A    between atoms: C_4  and  C_6 
REMARK    3  A    between atoms: C_7  and  C_10 
REMARK    4  A    between atoms: C_8  and  C_9 
REMARK    5  A    between atoms: C_11  and  C_12 
ROOT
HETATM    1  O   UNK     0      25.520  22.434  37.927  0.00  0.00    -0.189 OA
HETATM    2  C   UNK     0      27.104  21.169  39.511  0.00  0.00     0.029 C 
HETATM    3  C   UNK     0      26.234  21.509  38.562  0.00  0.00     0.150 C 
ENDROOT
BRANCH   3   4
HETATM    4  C   UNK     0      25.730  20.572  37.763  0.00  0.00     0.128 C 
HETATM    5  N   UNK     0      25.008  21.496  37.135  0.00  0.00    -0.146 N 
HETATM    6  C   UNK     0      26.098  19.303  37.900  0.00  0.00     0.025 C 
ENDBRANCH   3   4
BRANCH   2   7
HETATM    7  C   UNK     0      27.607  22.106  40.310  0.00  0.00     0.002 C 
HETATM    8  C   UNK     0      27.394  22.058  41.621  0.00  0.00     0.000 C 
BRANCH   8   9
HETATM    9  C   UNK     0      27.897  22.995  42.419  0.00  0.00     0.000 C 
HETATM   10  C   UNK     0      28.167  22.704  43.690  0.00  0.00     0.000 C 
BRANCH  10  11
HETATM   11  C   UNK     0      28.670  23.640  44.489  0.00  0.00     0.000 C 
HETATM   12  C   UNK     0      29.859  23.471  45.058  0.00  0.00     0.000 C 
BRANCH  12  13
HETATM   13  C   UNK     0      30.362  24.408  45.857  0.00  0.00     0.000 C 
HETATM   14  C   UNK     0      30.210  25.693  45.545  0.00  0.00     0.000 C 
ENDBRANCH  12  13
ENDBRANCH  10  11
ENDBRANCH   8   9
ENDBRANCH   2   7
TORSDOF 5
ENDMDL
MODEL 5
REMARK VINA RESULT:      -5.2     13.557     15.090
REMARK  5 active torsions:
REMARK  status: ('A' for Active; 'I' for Inactive)
REMARK    1  A    between atoms: C_3  and  C_5 
REMARK    2  A    between atoms: C_4  and  C_6 
REMARK    3  A    between atoms: C_7  and  C_10 
REMARK    4  A    between atoms: C_8  and  C_9 
REMARK    5  A    between atoms: C_11  and  C_12 
ROOT
HETATM    1  O   UNK     0      28.302  23.735  44.936  0.00  0.00    -0.189 OA
HETATM    2  C   UNK     0      28.499  26.272  45.318  0.00  0.00     0.029 C 
HETATM    3  C   UNK     0      28.663  24.950  45.338  0.00  0.00     0.150 C 
ENDROOT
BRANCH   3   4
HETATM    4  C   UNK     0      29.628  24.417  46.083  0.00  0.00     0.128 C 
HETATM    5  N   UNK     0      28.984  24.791  47.185  0.00  0.00    -0.146 N 
HETATM    6  C   UNK     0      30.670  23.825  45.510  0.00  0.00     0.025 C 
ENDBRANCH   3   4
BRANCH   2   7
HETATM    7  C   UNK     0      27.534  26.805  44.573  0.00  0.00     0.002 C 
HETATM    8  C   UNK     0      26.271  26.427  44.737  0.00  0.00     0.000 C 
BRANCH   8   9
HETATM    9  C   UNK     0      25.307  26.960  43.992  0.00  0.00     0.000 C 
HETATM   10  C   UNK     0      24.533  26.170  43.250  0.00  0.00     0.000 C 
BRANCH  10  11
HETATM   11  C   UNK     0      23.569  26.703  42.504  0.00  0.00     0.000 C 
HETATM   12  C   UNK     0      23.156  27.946  42.728  0.00  0.00     0.000 C 
BRANCH  12  13
HETATM   13  C   UNK     0      22.192  28.479  41.982  0.00  0.00     0.000 C 
HETATM   14  C   UNK     0      22.091  29.803  41.880  0.00  0.00     0.000 C 
ENDBRANCH  12  13
ENDBRANCH  10  11
ENDBRANCH   8   9
ENDBRANCH   2   7
TORSDOF 5
ENDMDL
