MODEL 1
REMARK VINA RESULT:      -7.2      0.000      0.000
REMARK  5 active torsions:
REMARK  status: ('A' for Active; 'I' for Inactive)
REMARK    1  A    between atoms: C_3  and  C_5 
REMARK    2  A    between atoms: C_4  and  C_6 
REMARK    3  A    between atoms: C_7  and  C_10 
REMARK    4  A    between atoms: C_8  and  C_9 
REMARK    5  A    between atoms: C_11  and  C_12 
ROOT
HETATM    1  O   UNK     0     -31.162  10.121 -11.066  0.00  0.00    -0.189 OA
HETATM    2  C   UNK     0     -29.874   8.790 -12.852  0.00  0.00     0.029 C 
HETATM    3  C   UNK     0     -30.691   9.618 -12.204  0.00  0.00     0.150 C 
ENDROOT
BRANCH   3   4
HETATM    4  C   UNK     0     -31.512  10.407 -12.892  0.00  0.00     0.128 C 
HETATM    5  N   UNK     0     -31.176  11.434 -12.116  0.00  0.00    -0.146 N 
HETATM    6  C   UNK     0     -32.217   9.921 -13.908  0.00  0.00     0.025 C 
ENDBRANCH   3   4
BRANCH   2   7
HETATM    7  C   UNK     0     -29.053   8.001 -12.164  0.00  0.00     0.002 C 
HETATM    8  C   UNK     0     -29.534   7.159 -11.255  0.00  0.00     0.000 C 
BRANCH   8   9
HETATM    9  C   UNK     0     -28.712   6.371 -10.568  0.00  0.00     0.000 C 
HETATM   10  C   UNK     0     -27.468   6.773 -10.318  0.00  0.00     0.000 C 
BRANCH  10  11
HETATM   11  C   UNK     0     -26.645   5.986  -9.630  0.00  0.00     0.000 C 
HETATM   12  C   UNK     0     -27.118   4.940  -8.962  0.00  0.00     0.000 C 
BRANCH  12  13
HETATM   13  C   UNK     0     -26.296   4.152  -8.274  0.00  0.00     0.000 C 
HETATM   14  C   UNK     0     -26.759   3.462  -7.233  0.00  0.00     0.000 C 
ENDBRANCH  12  13
ENDBRANCH  10  11
ENDBRANCH   8   9
ENDBRANCH   2   7
TORSDOF 5
ENDMDL
MODEL 2
REMARK VINA RESULT:      -6.9      3.515      7.258
REMARK  5 active torsions:
REMARK  status: ('A' for Active; 'I' for Inactive)
REMARK    1  A    between atoms: C_3  and  C_5 
REMARK    2  A    between atoms: C_4  and  C_6 
REMARK    3  A    between atoms: C_7  and  C_10 
REMARK    4  A    between atoms: C_8  and  C_9 
REMARK    5  A    between atoms: C_11  and  C_12 
ROOT
HETATM    1  O   UNK     0     -24.079   7.128  -9.644  0.00  0.00    -0.189 OA
HETATM    2  C   UNK     0     -26.361   5.949  -9.499  0.00  0.00     0.029 C 
HETATM    3  C   UNK     0     -25.078   6.288  -9.389  0.00  0.00     0.150 C 
ENDROOT
BRANCH   3   4
HETATM    4  C   UNK     0     -24.242   5.499  -8.719  0.00  0.00     0.128 C 
HETATM    5  N   UNK     0     -23.214   6.227  -9.144  0.00  0.00    -0.146 N 
HETATM    6  C   UNK     0     -24.705   4.472  -8.014  0.00  0.00     0.025 C 
ENDBRANCH   3   4
BRANCH   2   7
HETATM    7  C   UNK     0     -27.196   6.737 -10.168  0.00  0.00     0.002 C 
HETATM    8  C   UNK     0     -28.433   6.334 -10.437  0.00  0.00     0.000 C 
BRANCH   8   9
HETATM    9  C   UNK     0     -29.268   7.123 -11.106  0.00  0.00     0.000 C 
HETATM   10  C   UNK     0     -28.840   7.766 -12.191  0.00  0.00     0.000 C 
BRANCH  10  11
HETATM   11  C   UNK     0     -29.674   8.556 -12.862  0.00  0.00     0.000 C 
HETATM   12  C   UNK     0     -30.459   9.411 -12.214  0.00  0.00     0.000 C 
BRANCH  12  13
HETATM   13  C   UNK     0     -31.293  10.200 -12.884  0.00  0.00     0.000 C 
HETATM   14  C   UNK     0     -32.241   9.662 -13.649  0.00  0.00     0.000 C 
ENDBRANCH  12  13
ENDBRANCH  10  11
ENDBRANCH   8   9
ENDBRANCH   2   7
TORSDOF 5
ENDMDL
MODEL 3
REMARK VINA RESULT:      -6.7      3.559      7.194
REMARK  5 active torsions:
REMARK  status: ('A' for Active; 'I' for Inactive)
REMARK    1  A    between atoms: C_3  and  C_5 
REMARK    2  A    between atoms: C_4  and  C_6 
REMARK    3  A    between atoms: C_7  and  C_10 
REMARK    4  A    between atoms: C_8  and  C_9 
REMARK    5  A    between atoms: C_11  and  C_12 
ROOT
HETATM    1  O   UNK     0     -27.659   4.470  -7.746  0.00  0.00    -0.189 OA
HETATM    2  C   UNK     0     -26.409   5.568  -9.708  0.00  0.00     0.029 C 
HETATM    3  C   UNK     0     -26.786   4.786  -8.697  0.00  0.00     0.150 C 
ENDROOT
BRANCH   3   4
HETATM    4  C   UNK     0     -26.015   3.766  -8.330  0.00  0.00     0.128 C 
HETATM    5  N   UNK     0     -26.597   3.758  -7.134  0.00  0.00    -0.146 N 
HETATM    6  C   UNK     0     -25.125   3.257  -9.174  0.00  0.00     0.025 C 
ENDBRANCH   3   4
BRANCH   2   7
HETATM    7  C   UNK     0     -27.179   6.588 -10.075  0.00  0.00     0.002 C 
HETATM    8  C   UNK     0     -28.412   6.373 -10.521  0.00  0.00     0.000 C 
BRANCH   8   9
HETATM    9  C   UNK     0     -29.181   7.394 -10.889  0.00  0.00     0.000 C 
HETATM   10  C   UNK     0     -28.764   8.642 -10.684  0.00  0.00     0.000 C 
BRANCH  10  11
HETATM   11  C   UNK     0     -29.533   9.663 -11.051  0.00  0.00     0.000 C 
HETATM   12  C   UNK     0     -30.812   9.705 -10.694  0.00  0.00     0.000 C 
BRANCH  12  13
HETATM   13  C   UNK     0     -31.581  10.726 -11.061  0.00  0.00     0.000 C 
HETATM   14  C   UNK     0     -31.473  11.224 -12.291  0.00  0.00     0.000 C 
ENDBRANCH  12  13
ENDBRANCH  10  11
ENDBRANCH   8   9
ENDBRANCH   2   7
TORSDOF 5
ENDMDL
MODEL 4
REMARK VINA RESULT:      -6.6      3.465      7.356
REMARK  5 active torsions:
REMARK  status: ('A' for Active; 'I' for Inactive)
REMARK    1  A    between atoms: C_3  and  C_5 
REMARK    2  A    between atoms: C_4  and  C_6 
REMARK    3  A    between atoms: C_7  and  C_10 
REMARK    4  A    between atoms: C_8  and  C_9 
REMARK    5  A    between atoms: C_11  and  C_12 
ROOT
HETATM    1  O   UNK     0     -27.248   4.288  -8.755  0.00  0.00    -0.189 OA
HETATM    2  C   UNK     0     -26.616   6.568  -9.766  0.00  0.00     0.029 C 
HETATM    3  C   UNK     0     -26.637   5.421  -9.088  0.00  0.00     0.150 C 
ENDROOT
BRANCH   3   4
HETATM    4  C   UNK     0     -25.611   5.098  -8.307  0.00  0.00     0.128 C 
HETATM    5  N   UNK     0     -25.820   3.810  -8.564  0.00  0.00    -0.146 N 
HETATM    6  C   UNK     0     -24.911   6.044  -7.690  0.00  0.00     0.025 C 
ENDBRANCH   3   4
BRANCH   2   7
HETATM    7  C   UNK     0     -27.643   6.891 -10.547  0.00  0.00     0.002 C 
HETATM    8  C   UNK     0     -27.455   7.637 -11.630  0.00  0.00     0.000 C 
BRANCH   8   9
HETATM    9  C   UNK     0     -28.482   7.960 -12.411  0.00  0.00     0.000 C 
HETATM   10  C   UNK     0     -29.425   8.783 -11.954  0.00  0.00     0.000 C 
BRANCH  10  11
HETATM   11  C   UNK     0     -30.453   9.106 -12.734  0.00  0.00     0.000 C 
HETATM   12  C   UNK     0     -31.127  10.231 -12.526  0.00  0.00     0.000 C 
BRANCH  12  13
HETATM   13  C   UNK     0     -32.155  10.555 -13.306  0.00  0.00     0.000 C 
HETATM   14  C   UNK     0     -32.322   9.930 -14.471  0.00  0.00     0.000 C 
ENDBRANCH  12  13
ENDBRANCH  10  11
ENDBRANCH   8   9
ENDBRANCH   2   7
TORSDOF 5
ENDMDL
MODEL 5
REMARK VINA RESULT:      -6.4      2.210      2.452
REMARK  5 active torsions:
REMARK  status: ('A' for Active; 'I' for Inactive)
REMARK    1  A    between atoms: C_3  and  C_5 
REMARK    2  A    between atoms: C_4  and  C_6 
REMARK    3  A    between atoms: C_7  and  C_10 
REMARK    4  A    between atoms: C_8  and  C_9 
REMARK    5  A    between atoms: C_11  and  C_12 
ROOT
HETATM    1  O   UNK     0     -31.017   8.376 -15.328  0.00  0.00    -0.189 OA
HETATM    2  C   UNK     0     -30.347   9.051 -12.938  0.00  0.00     0.029 C 
HETATM    3  C   UNK     0     -30.965   8.903 -14.108  0.00  0.00     0.150 C 
ENDROOT
BRANCH   3   4
HETATM    4  C   UNK     0     -32.119   9.526 -14.328  0.00  0.00     0.128 C 
HETATM    5  N   UNK     0     -31.950   9.377 -15.639  0.00  0.00    -0.146 N 
HETATM    6  C   UNK     0     -32.848   9.971 -13.310  0.00  0.00     0.025 C 
ENDBRANCH   3   4
BRANCH   2   7
HETATM    7  C   UNK     0     -29.193   8.428 -12.718  0.00  0.00     0.002 C 
HETATM    8  C   UNK     0     -28.902   7.957 -11.510  0.00  0.00     0.000 C 
BRANCH   8   9
HETATM    9  C   UNK     0     -27.748   7.333 -11.291  0.00  0.00     0.000 C 
HETATM   10  C   UNK     0     -27.577   6.637 -10.169  0.00  0.00     0.000 C 
BRANCH  10  11
HETATM   11  C   UNK     0     -26.423   6.013  -9.949  0.00  0.00     0.000 C 
HETATM   12  C   UNK     0     -25.373   6.684  -9.489  0.00  0.00     0.000 C 
BRANCH  12  13
HETATM   13  C   UNK     0     -24.219   6.060  -9.269  0.00  0.00     0.000 C 
HETATM   14  C   UNK     0     -23.919   4.963  -9.961  0.00  0.00     0.000 C 
ENDBRANCH  12  13
ENDBRANCH  10  11
ENDBRANCH   8   9
ENDBRANCH   2   7
TORSDOF 5
ENDMDL
