MODEL 1
REMARK VINA RESULT:      -7.1      0.000      0.000
REMARK  5 active torsions:
REMARK  status: ('A' for Active; 'I' for Inactive)
REMARK    1  A    between atoms: C_3  and  C_5 
REMARK    2  A    between atoms: C_4  and  C_6 
REMARK    3  A    between atoms: C_7  and  C_10 
REMARK    4  A    between atoms: C_8  and  C_9 
REMARK    5  A    between atoms: C_11  and  C_12 
ROOT
HETATM    1  O   UNK     0     -30.777  10.232 -11.108  0.00  0.00    -0.189 OA
HETATM    2  C   UNK     0     -29.672   8.596 -12.758  0.00  0.00     0.029 C 
HETATM    3  C   UNK     0     -30.395   9.560 -12.190  0.00  0.00     0.150 C 
ENDROOT
BRANCH   3   4
HETATM    4  C   UNK     0     -31.182  10.324 -12.943  0.00  0.00     0.128 C 
HETATM    5  N   UNK     0     -31.080  11.306 -12.052  0.00  0.00    -0.146 N 
HETATM    6  C   UNK     0     -31.668   9.864 -14.090  0.00  0.00     0.025 C 
ENDBRANCH   3   4
BRANCH   2   7
HETATM    7  C   UNK     0     -28.885   7.832 -12.006  0.00  0.00     0.002 C 
HETATM    8  C   UNK     0     -29.409   7.007 -11.106  0.00  0.00     0.000 C 
BRANCH   8   9
HETATM    9  C   UNK     0     -28.621   6.243 -10.354  0.00  0.00     0.000 C 
HETATM   10  C   UNK     0     -27.346   6.586 -10.175  0.00  0.00     0.000 C 
BRANCH  10  11
HETATM   11  C   UNK     0     -26.558   5.823  -9.423  0.00  0.00     0.000 C 
HETATM   12  C   UNK     0     -27.021   4.698  -8.889  0.00  0.00     0.000 C 
BRANCH  12  13
HETATM   13  C   UNK     0     -26.232   3.935  -8.138  0.00  0.00     0.000 C 
HETATM   14  C   UNK     0     -25.736   4.418  -7.000  0.00  0.00     0.000 C 
ENDBRANCH  12  13
ENDBRANCH  10  11
ENDBRANCH   8   9
ENDBRANCH   2   7
TORSDOF 5
ENDMDL
MODEL 2
REMARK VINA RESULT:      -7.0      3.249      7.122
REMARK  5 active torsions:
REMARK  status: ('A' for Active; 'I' for Inactive)
REMARK    1  A    between atoms: C_3  and  C_5 
REMARK    2  A    between atoms: C_4  and  C_6 
REMARK    3  A    between atoms: C_7  and  C_10 
REMARK    4  A    between atoms: C_8  and  C_9 
REMARK    5  A    between atoms: C_11  and  C_12 
ROOT
HETATM    1  O   UNK     0     -25.009   7.611  -8.143  0.00  0.00    -0.189 OA
HETATM    2  C   UNK     0     -26.497   5.851  -9.287  0.00  0.00     0.029 C 
HETATM    3  C   UNK     0     -25.605   6.486  -8.529  0.00  0.00     0.150 C 
ENDROOT
BRANCH   3   4
HETATM    4  C   UNK     0     -24.851   5.795  -7.678  0.00  0.00     0.128 C 
HETATM    5  N   UNK     0     -23.854   6.656  -7.863  0.00  0.00    -0.146 N 
HETATM    6  C   UNK     0     -25.329   4.705  -7.089  0.00  0.00     0.025 C 
ENDBRANCH   3   4
BRANCH   2   7
HETATM    7  C   UNK     0     -27.251   6.541 -10.137  0.00  0.00     0.002 C 
HETATM    8  C   UNK     0     -28.539   6.251 -10.283  0.00  0.00     0.000 C 
BRANCH   8   9
HETATM    9  C   UNK     0     -29.292   6.942 -11.134  0.00  0.00     0.000 C 
HETATM   10  C   UNK     0     -28.712   7.715 -12.050  0.00  0.00     0.000 C 
BRANCH  10  11
HETATM   11  C   UNK     0     -29.464   8.407 -12.902  0.00  0.00     0.000 C 
HETATM   12  C   UNK     0     -30.444   9.184 -12.455  0.00  0.00     0.000 C 
BRANCH  12  13
HETATM   13  C   UNK     0     -31.197   9.876 -13.306  0.00  0.00     0.000 C 
HETATM   14  C   UNK     0     -32.495   9.601 -13.414  0.00  0.00     0.000 C 
ENDBRANCH  12  13
ENDBRANCH  10  11
ENDBRANCH   8   9
ENDBRANCH   2   7
TORSDOF 5
ENDMDL
MODEL 3
REMARK VINA RESULT:      -6.8      0.900      1.162
REMARK  5 active torsions:
REMARK  status: ('A' for Active; 'I' for Inactive)
REMARK    1  A    between atoms: C_3  and  C_5 
REMARK    2  A    between atoms: C_4  and  C_6 
REMARK    3  A    between atoms: C_7  and  C_10 
REMARK    4  A    between atoms: C_8  and  C_9 
REMARK    5  A    between atoms: C_11  and  C_12 
ROOT
HETATM    1  O   UNK     0     -31.602  10.189 -11.215  0.00  0.00    -0.189 OA
HETATM    2  C   UNK     0     -29.997   8.891 -12.751  0.00  0.00     0.029 C 
HETATM    3  C   UNK     0     -30.925   9.706 -12.253  0.00  0.00     0.150 C 
ENDROOT
BRANCH   3   4
HETATM    4  C   UNK     0     -31.609  10.504 -13.069  0.00  0.00     0.128 C 
HETATM    5  N   UNK     0     -31.440  11.515 -12.222  0.00  0.00    -0.146 N 
HETATM    6  C   UNK     0     -32.100  10.036 -14.211  0.00  0.00     0.025 C 
ENDBRANCH   3   4
BRANCH   2   7
HETATM    7  C   UNK     0     -29.314   8.093 -11.935  0.00  0.00     0.002 C 
HETATM    8  C   UNK     0     -27.986   8.086 -11.959  0.00  0.00     0.000 C 
BRANCH   8   9
HETATM    9  C   UNK     0     -27.303   7.288 -11.143  0.00  0.00     0.000 C 
HETATM   10  C   UNK     0     -27.956   6.447 -10.344  0.00  0.00     0.000 C 
BRANCH  10  11
HETATM   11  C   UNK     0     -27.274   5.648  -9.527  0.00  0.00     0.000 C 
HETATM   12  C   UNK     0     -26.172   6.084  -8.927  0.00  0.00     0.000 C 
BRANCH  12  13
HETATM   13  C   UNK     0     -25.490   5.285  -8.110  0.00  0.00     0.000 C 
HETATM   14  C   UNK     0     -24.544   5.797  -7.325  0.00  0.00     0.000 C 
ENDBRANCH  12  13
ENDBRANCH  10  11
ENDBRANCH   8   9
ENDBRANCH   2   7
TORSDOF 5
ENDMDL
MODEL 4
REMARK VINA RESULT:      -6.6      3.250      7.195
REMARK  5 active torsions:
REMARK  status: ('A' for Active; 'I' for Inactive)
REMARK    1  A    between atoms: C_3  and  C_5 
REMARK    2  A    between atoms: C_4  and  C_6 
REMARK    3  A    between atoms: C_7  and  C_10 
REMARK    4  A    between atoms: C_8  and  C_9 
REMARK    5  A    between atoms: C_11  and  C_12 
ROOT
HETATM    1  O   UNK     0     -27.579   4.482  -8.360  0.00  0.00    -0.189 OA
HETATM    2  C   UNK     0     -26.170   6.135  -9.738  0.00  0.00     0.029 C 
HETATM    3  C   UNK     0     -26.590   5.145  -8.952  0.00  0.00     0.150 C 
ENDROOT
BRANCH   3   4
HETATM    4  C   UNK     0     -25.706   4.314  -8.407  0.00  0.00     0.128 C 
HETATM    5  N   UNK     0     -25.540   3.719  -9.585  0.00  0.00    -0.146 N 
HETATM    6  C   UNK     0     -25.402   4.407  -7.117  0.00  0.00     0.025 C 
ENDBRANCH   3   4
BRANCH   2   7
HETATM    7  C   UNK     0     -27.054   6.966 -10.282  0.00  0.00     0.002 C 
HETATM    8  C   UNK     0     -28.267   6.537 -10.609  0.00  0.00     0.000 C 
BRANCH   8   9
HETATM    9  C   UNK     0     -29.151   7.368 -11.154  0.00  0.00     0.000 C 
HETATM   10  C   UNK     0     -28.926   7.867 -12.368  0.00  0.00     0.000 C 
BRANCH  10  11
HETATM   11  C   UNK     0     -29.809   8.699 -12.914  0.00  0.00     0.000 C 
HETATM   12  C   UNK     0     -30.653   9.381 -12.148  0.00  0.00     0.000 C 
BRANCH  12  13
HETATM   13  C   UNK     0     -31.536  10.213 -12.693  0.00  0.00     0.000 C 
HETATM   14  C   UNK     0     -31.865  10.077 -13.976  0.00  0.00     0.000 C 
ENDBRANCH  12  13
ENDBRANCH  10  11
ENDBRANCH   8   9
ENDBRANCH   2   7
TORSDOF 5
ENDMDL
MODEL 5
REMARK VINA RESULT:      -6.6      4.067      7.507
REMARK  5 active torsions:
REMARK  status: ('A' for Active; 'I' for Inactive)
REMARK    1  A    between atoms: C_3  and  C_5 
REMARK    2  A    between atoms: C_4  and  C_6 
REMARK    3  A    between atoms: C_7  and  C_10 
REMARK    4  A    between atoms: C_8  and  C_9 
REMARK    5  A    between atoms: C_11  and  C_12 
ROOT
HETATM    1  O   UNK     0     -24.527   4.154 -10.473  0.00  0.00    -0.189 OA
HETATM    2  C   UNK     0     -24.944   6.619  -9.865  0.00  0.00     0.029 C 
HETATM    3  C   UNK     0     -24.468   5.379  -9.957  0.00  0.00     0.150 C 
ENDROOT
BRANCH   3   4
HETATM    4  C   UNK     0     -23.406   5.025  -9.239  0.00  0.00     0.128 C 
HETATM    5  N   UNK     0     -23.311   3.896  -9.936  0.00  0.00    -0.146 N 
HETATM    6  C   UNK     0     -22.951   5.819  -8.276  0.00  0.00     0.025 C 
ENDBRANCH   3   4
BRANCH   2   7
HETATM    7  C   UNK     0     -26.007   6.973 -10.583  0.00  0.00     0.002 C 
HETATM    8  C   UNK     0     -27.227   6.615 -10.199  0.00  0.00     0.000 C 
BRANCH   8   9
HETATM    9  C   UNK     0     -28.289   6.969 -10.918  0.00  0.00     0.000 C 
HETATM   10  C   UNK     0     -28.139   7.792 -11.954  0.00  0.00     0.000 C 
BRANCH  10  11
HETATM   11  C   UNK     0     -29.201   8.147 -12.673  0.00  0.00     0.000 C 
HETATM   12  C   UNK     0     -29.956   9.172 -12.296  0.00  0.00     0.000 C 
BRANCH  12  13
HETATM   13  C   UNK     0     -31.017   9.527 -13.015  0.00  0.00     0.000 C 
HETATM   14  C   UNK     0     -31.537  10.744 -12.869  0.00  0.00     0.000 C 
ENDBRANCH  12  13
ENDBRANCH  10  11
ENDBRANCH   8   9
ENDBRANCH   2   7
TORSDOF 5
ENDMDL
