MODEL 1
REMARK VINA RESULT:      -7.2      0.000      0.000
REMARK  5 active torsions:
REMARK  status: ('A' for Active; 'I' for Inactive)
REMARK    1  A    between atoms: C_3  and  C_5 
REMARK    2  A    between atoms: C_4  and  C_6 
REMARK    3  A    between atoms: C_7  and  C_10 
REMARK    4  A    between atoms: C_8  and  C_9 
REMARK    5  A    between atoms: C_11  and  C_12 
ROOT
HETATM    1  O   UNK     0     -30.747  10.508 -11.226  0.00  0.00    -0.189 OA
HETATM    2  C   UNK     0     -29.851   8.709 -12.832  0.00  0.00     0.029 C 
HETATM    3  C   UNK     0     -30.484   9.744 -12.283  0.00  0.00     0.150 C 
ENDROOT
BRANCH   3   4
HETATM    4  C   UNK     0     -31.298  10.489 -13.025  0.00  0.00     0.128 C 
HETATM    5  N   UNK     0     -31.197  11.479 -12.142  0.00  0.00    -0.146 N 
HETATM    6  C   UNK     0     -31.797  10.013 -14.160  0.00  0.00     0.025 C 
ENDBRANCH   3   4
BRANCH   2   7
HETATM    7  C   UNK     0     -29.037   7.964 -12.090  0.00  0.00     0.002 C 
HETATM    8  C   UNK     0     -29.530   7.134 -11.177  0.00  0.00     0.000 C 
BRANCH   8   9
HETATM    9  C   UNK     0     -28.715   6.390 -10.435  0.00  0.00     0.000 C 
HETATM   10  C   UNK     0     -27.432   6.729 -10.321  0.00  0.00     0.000 C 
BRANCH  10  11
HETATM   11  C   UNK     0     -26.616   5.985  -9.580  0.00  0.00     0.000 C 
HETATM   12  C   UNK     0     -27.065   4.887  -8.982  0.00  0.00     0.000 C 
BRANCH  12  13
HETATM   13  C   UNK     0     -26.249   4.143  -8.240  0.00  0.00     0.000 C 
HETATM   14  C   UNK     0     -26.746   3.405  -7.249  0.00  0.00     0.000 C 
ENDBRANCH  12  13
ENDBRANCH  10  11
ENDBRANCH   8   9
ENDBRANCH   2   7
TORSDOF 5
ENDMDL
MODEL 2
REMARK VINA RESULT:      -7.0      3.540      7.243
REMARK  5 active torsions:
REMARK  status: ('A' for Active; 'I' for Inactive)
REMARK    1  A    between atoms: C_3  and  C_5 
REMARK    2  A    between atoms: C_4  and  C_6 
REMARK    3  A    between atoms: C_7  and  C_10 
REMARK    4  A    between atoms: C_8  and  C_9 
REMARK    5  A    between atoms: C_11  and  C_12 
ROOT
HETATM    1  O   UNK     0     -24.154   7.257  -9.443  0.00  0.00    -0.189 OA
HETATM    2  C   UNK     0     -26.407   6.017  -9.376  0.00  0.00     0.029 C 
HETATM    3  C   UNK     0     -25.145   6.406  -9.198  0.00  0.00     0.150 C 
ENDROOT
BRANCH   3   4
HETATM    4  C   UNK     0     -24.342   5.697  -8.410  0.00  0.00     0.128 C 
HETATM    5  N   UNK     0     -23.442   5.631  -9.387  0.00  0.00    -0.146 N 
HETATM    6  C   UNK     0     -24.711   5.395  -7.170  0.00  0.00     0.025 C 
ENDBRANCH   3   4
BRANCH   2   7
HETATM    7  C   UNK     0     -27.210   6.726 -10.164  0.00  0.00     0.002 C 
HETATM    8  C   UNK     0     -28.472   6.354 -10.347  0.00  0.00     0.000 C 
BRANCH   8   9
HETATM    9  C   UNK     0     -29.275   7.064 -11.135  0.00  0.00     0.000 C 
HETATM   10  C   UNK     0     -28.758   7.768 -12.140  0.00  0.00     0.000 C 
BRANCH  10  11
HETATM   11  C   UNK     0     -29.560   8.478 -12.929  0.00  0.00     0.000 C 
HETATM   12  C   UNK     0     -30.459   9.304 -12.405  0.00  0.00     0.000 C 
BRANCH  12  13
HETATM   13  C   UNK     0     -31.261  10.014 -13.194  0.00  0.00     0.000 C 
HETATM   14  C   UNK     0     -31.978   9.399 -14.132  0.00  0.00     0.000 C 
ENDBRANCH  12  13
ENDBRANCH  10  11
ENDBRANCH   8   9
ENDBRANCH   2   7
TORSDOF 5
ENDMDL
MODEL 3
REMARK VINA RESULT:      -6.7      3.444      7.347
REMARK  5 active torsions:
REMARK  status: ('A' for Active; 'I' for Inactive)
REMARK    1  A    between atoms: C_3  and  C_5 
REMARK    2  A    between atoms: C_4  and  C_6 
REMARK    3  A    between atoms: C_7  and  C_10 
REMARK    4  A    between atoms: C_8  and  C_9 
REMARK    5  A    between atoms: C_11  and  C_12 
ROOT
HETATM    1  O   UNK     0     -27.465   4.462  -8.434  0.00  0.00    -0.189 OA
HETATM    2  C   UNK     0     -26.653   6.305 -10.035  0.00  0.00     0.029 C 
HETATM    3  C   UNK     0     -26.736   5.316  -9.147  0.00  0.00     0.150 C 
ENDROOT
BRANCH   3   4
HETATM    4  C   UNK     0     -25.626   4.821  -8.606  0.00  0.00     0.128 C 
HETATM    5  N   UNK     0     -25.656   3.811  -9.471  0.00  0.00    -0.146 N 
HETATM    6  C   UNK     0     -25.041   5.440  -7.587  0.00  0.00     0.025 C 
ENDBRANCH   3   4
BRANCH   2   7
HETATM    7  C   UNK     0     -27.762   6.801 -10.576  0.00  0.00     0.002 C 
HETATM    8  C   UNK     0     -27.692   7.737 -11.516  0.00  0.00     0.000 C 
BRANCH   8   9
HETATM    9  C   UNK     0     -28.802   8.232 -12.056  0.00  0.00     0.000 C 
HETATM   10  C   UNK     0     -29.362   9.321 -11.533  0.00  0.00     0.000 C 
BRANCH  10  11
HETATM   11  C   UNK     0     -30.472   9.817 -12.072  0.00  0.00     0.000 C 
HETATM   12  C   UNK     0     -30.974   9.287 -13.182  0.00  0.00     0.000 C 
BRANCH  12  13
HETATM   13  C   UNK     0     -32.084   9.783 -13.722  0.00  0.00     0.000 C 
HETATM   14  C   UNK     0     -32.206   9.839 -15.047  0.00  0.00     0.000 C 
ENDBRANCH  12  13
ENDBRANCH  10  11
ENDBRANCH   8   9
ENDBRANCH   2   7
TORSDOF 5
ENDMDL
MODEL 4
REMARK VINA RESULT:      -6.7      3.354      7.203
REMARK  5 active torsions:
REMARK  status: ('A' for Active; 'I' for Inactive)
REMARK    1  A    between atoms: C_3  and  C_5 
REMARK    2  A    between atoms: C_4  and  C_6 
REMARK    3  A    between atoms: C_7  and  C_10 
REMARK    4  A    between atoms: C_8  and  C_9 
REMARK    5  A    between atoms: C_11  and  C_12 
ROOT
HETATM    1  O   UNK     0     -25.242   7.624  -8.039  0.00  0.00    -0.189 OA
HETATM    2  C   UNK     0     -26.538   6.191  -9.737  0.00  0.00     0.029 C 
HETATM    3  C   UNK     0     -25.718   6.631  -8.785  0.00  0.00     0.150 C 
ENDROOT
BRANCH   3   4
HETATM    4  C   UNK     0     -24.899   5.779  -8.173  0.00  0.00     0.128 C 
HETATM    5  N   UNK     0     -25.947   5.083  -7.741  0.00  0.00    -0.146 N 
HETATM    6  C   UNK     0     -23.583   5.949  -8.237  0.00  0.00     0.025 C 
ENDBRANCH   3   4
BRANCH   2   7
HETATM    7  C   UNK     0     -27.357   7.042 -10.348  0.00  0.00     0.002 C 
HETATM    8  C   UNK     0     -28.603   6.686 -10.638  0.00  0.00     0.000 C 
BRANCH   8   9
HETATM    9  C   UNK     0     -29.421   7.539 -11.249  0.00  0.00     0.000 C 
HETATM   10  C   UNK     0     -29.150   8.843 -11.229  0.00  0.00     0.000 C 
BRANCH  10  11
HETATM   11  C   UNK     0     -29.968   9.696 -11.840  0.00  0.00     0.000 C 
HETATM   12  C   UNK     0     -30.821   9.266 -12.763  0.00  0.00     0.000 C 
BRANCH  12  13
HETATM   13  C   UNK     0     -31.638  10.119 -13.374  0.00  0.00     0.000 C 
HETATM   14  C   UNK     0     -31.848  10.009 -14.685  0.00  0.00     0.000 C 
ENDBRANCH  12  13
ENDBRANCH  10  11
ENDBRANCH   8   9
ENDBRANCH   2   7
TORSDOF 5
ENDMDL
MODEL 5
REMARK VINA RESULT:      -6.3      4.961      8.178
REMARK  5 active torsions:
REMARK  status: ('A' for Active; 'I' for Inactive)
REMARK    1  A    between atoms: C_3  and  C_5 
REMARK    2  A    between atoms: C_4  and  C_6 
REMARK    3  A    between atoms: C_7  and  C_10 
REMARK    4  A    between atoms: C_8  and  C_9 
REMARK    5  A    between atoms: C_11  and  C_12 
ROOT
HETATM    1  O   UNK     0     -23.963   5.636  -6.567  0.00  0.00    -0.189 OA
HETATM    2  C   UNK     0     -22.885   6.540  -8.721  0.00  0.00     0.029 C 
HETATM    3  C   UNK     0     -23.116   6.003  -7.524  0.00  0.00     0.150 C 
ENDROOT
BRANCH   3   4
HETATM    4  C   UNK     0     -22.097   5.564  -6.790  0.00  0.00     0.128 C 
HETATM    5  N   UNK     0     -22.180   4.378  -7.385  0.00  0.00    -0.146 N 
HETATM    6  C   UNK     0     -21.511   6.365  -5.907  0.00  0.00     0.025 C 
ENDBRANCH   3   4
BRANCH   2   7
HETATM    7  C   UNK     0     -23.903   6.979  -9.455  0.00  0.00     0.002 C 
HETATM    8  C   UNK     0     -24.943   6.190  -9.702  0.00  0.00     0.000 C 
BRANCH   8   9
HETATM    9  C   UNK     0     -25.961   6.630 -10.436  0.00  0.00     0.000 C 
HETATM   10  C   UNK     0     -27.210   6.445 -10.010  0.00  0.00     0.000 C 
BRANCH  10  11
HETATM   11  C   UNK     0     -28.229   6.884 -10.744  0.00  0.00     0.000 C 
HETATM   12  C   UNK     0     -28.012   7.665 -11.797  0.00  0.00     0.000 C 
BRANCH  12  13
HETATM   13  C   UNK     0     -29.031   8.104 -12.530  0.00  0.00     0.000 C 
HETATM   14  C   UNK     0     -29.794   9.096 -12.074  0.00  0.00     0.000 C 
ENDBRANCH  12  13
ENDBRANCH  10  11
ENDBRANCH   8   9
ENDBRANCH   2   7
TORSDOF 5
ENDMDL
