MODEL 1
REMARK VINA RESULT:      -6.9      0.000      0.000
REMARK  5 active torsions:
REMARK  status: ('A' for Active; 'I' for Inactive)
REMARK    1  A    between atoms: C_3  and  C_5 
REMARK    2  A    between atoms: C_4  and  C_6 
REMARK    3  A    between atoms: C_7  and  C_10 
REMARK    4  A    between atoms: C_8  and  C_9 
REMARK    5  A    between atoms: C_11  and  C_12 
ROOT
HETATM    1  O   UNK     0      14.842  -5.157  29.145  0.00  0.00    -0.189 OA
HETATM    2  C   UNK     0      16.445  -3.294  28.386  0.00  0.00     0.029 C 
HETATM    3  C   UNK     0      15.404  -3.993  28.832  0.00  0.00     0.150 C 
ENDROOT
BRANCH   3   4
HETATM    4  C   UNK     0      14.288  -3.361  29.186  0.00  0.00     0.128 C 
HETATM    5  N   UNK     0      13.654  -4.527  29.269  0.00  0.00    -0.146 N 
HETATM    6  C   UNK     0      14.270  -2.037  29.292  0.00  0.00     0.025 C 
ENDBRANCH   3   4
BRANCH   2   7
HETATM    7  C   UNK     0      17.561  -3.926  28.032  0.00  0.00     0.002 C 
HETATM    8  C   UNK     0      17.709  -5.221  28.286  0.00  0.00     0.000 C 
BRANCH   8   9
HETATM    9  C   UNK     0      18.825  -5.853  27.932  0.00  0.00     0.000 C 
HETATM   10  C   UNK     0      18.901  -6.440  26.739  0.00  0.00     0.000 C 
BRANCH  10  11
HETATM   11  C   UNK     0      20.017  -7.071  26.385  0.00  0.00     0.000 C 
HETATM   12  C   UNK     0      19.962  -8.151  25.612  0.00  0.00     0.000 C 
BRANCH  12  13
HETATM   13  C   UNK     0      21.078  -8.782  25.258  0.00  0.00     0.000 C 
HETATM   14  C   UNK     0      21.029  -9.741  24.335  0.00  0.00     0.000 C 
ENDBRANCH  12  13
ENDBRANCH  10  11
ENDBRANCH   8   9
ENDBRANCH   2   7
TORSDOF 5
ENDMDL
MODEL 2
REMARK VINA RESULT:      -6.7      3.156      4.102
REMARK  5 active torsions:
REMARK  status: ('A' for Active; 'I' for Inactive)
REMARK    1  A    between atoms: C_3  and  C_5 
REMARK    2  A    between atoms: C_4  and  C_6 
REMARK    3  A    between atoms: C_7  and  C_10 
REMARK    4  A    between atoms: C_8  and  C_9 
REMARK    5  A    between atoms: C_11  and  C_12 
ROOT
HETATM    1  O   UNK     0      15.586  -3.681  29.049  0.00  0.00    -0.189 OA
HETATM    2  C   UNK     0      17.121  -5.723  28.742  0.00  0.00     0.029 C 
HETATM    3  C   UNK     0      16.093  -4.909  28.971  0.00  0.00     0.150 C 
ENDROOT
BRANCH   3   4
HETATM    4  C   UNK     0      14.908  -5.418  29.297  0.00  0.00     0.128 C 
HETATM    5  N   UNK     0      14.349  -4.222  29.135  0.00  0.00    -0.146 N 
HETATM    6  C   UNK     0      14.790  -6.706  29.601  0.00  0.00     0.025 C 
ENDBRANCH   3   4
BRANCH   2   7
HETATM    7  C   UNK     0      18.306  -5.214  28.417  0.00  0.00     0.002 C 
HETATM    8  C   UNK     0      18.946  -5.638  27.333  0.00  0.00     0.000 C 
BRANCH   8   9
HETATM    9  C   UNK     0      20.131  -5.128  27.008  0.00  0.00     0.000 C 
HETATM   10  C   UNK     0      20.284  -3.807  26.943  0.00  0.00     0.000 C 
BRANCH  10  11
HETATM   11  C   UNK     0      21.469  -3.296  26.618  0.00  0.00     0.000 C 
HETATM   12  C   UNK     0      21.948  -2.242  27.270  0.00  0.00     0.000 C 
BRANCH  12  13
HETATM   13  C   UNK     0      23.132  -1.731  26.946  0.00  0.00     0.000 C 
HETATM   14  C   UNK     0      23.874  -2.324  26.012  0.00  0.00     0.000 C 
ENDBRANCH  12  13
ENDBRANCH  10  11
ENDBRANCH   8   9
ENDBRANCH   2   7
TORSDOF 5
ENDMDL
MODEL 3
REMARK VINA RESULT:      -6.6      4.039      5.474
REMARK  5 active torsions:
REMARK  status: ('A' for Active; 'I' for Inactive)
REMARK    1  A    between atoms: C_3  and  C_5 
REMARK    2  A    between atoms: C_4  and  C_6 
REMARK    3  A    between atoms: C_7  and  C_10 
REMARK    4  A    between atoms: C_8  and  C_9 
REMARK    5  A    between atoms: C_11  and  C_12 
ROOT
HETATM    1  O   UNK     0      16.431  -5.709  29.194  0.00  0.00    -0.189 OA
HETATM    2  C   UNK     0      15.333  -3.390  28.995  0.00  0.00     0.029 C 
HETATM    3  C   UNK     0      15.575  -4.692  29.138  0.00  0.00     0.150 C 
ENDROOT
BRANCH   3   4
HETATM    4  C   UNK     0      14.562  -5.534  29.326  0.00  0.00     0.128 C 
HETATM    5  N   UNK     0      13.701  -4.531  29.181  0.00  0.00    -0.146 N 
HETATM    6  C   UNK     0      14.792  -6.824  29.547  0.00  0.00     0.025 C 
ENDBRANCH   3   4
BRANCH   2   7
HETATM    7  C   UNK     0      16.345  -2.548  28.806  0.00  0.00     0.002 C 
HETATM    8  C   UNK     0      17.052  -2.587  27.682  0.00  0.00     0.000 C 
BRANCH   8   9
HETATM    9  C   UNK     0      18.064  -1.745  27.494  0.00  0.00     0.000 C 
HETATM   10  C   UNK     0      19.154  -2.157  26.850  0.00  0.00     0.000 C 
BRANCH  10  11
HETATM   11  C   UNK     0      20.167  -1.315  26.662  0.00  0.00     0.000 C 
HETATM   12  C   UNK     0      20.230  -0.176  27.342  0.00  0.00     0.000 C 
BRANCH  12  13
HETATM   13  C   UNK     0      21.243   0.665  27.154  0.00  0.00     0.000 C 
HETATM   14  C   UNK     0      21.275   1.819  27.818  0.00  0.00     0.000 C 
ENDBRANCH  12  13
ENDBRANCH  10  11
ENDBRANCH   8   9
ENDBRANCH   2   7
TORSDOF 5
ENDMDL
MODEL 4
REMARK VINA RESULT:      -6.6      4.725      6.591
REMARK  5 active torsions:
REMARK  status: ('A' for Active; 'I' for Inactive)
REMARK    1  A    between atoms: C_3  and  C_5 
REMARK    2  A    between atoms: C_4  and  C_6 
REMARK    3  A    between atoms: C_7  and  C_10 
REMARK    4  A    between atoms: C_8  and  C_9 
REMARK    5  A    between atoms: C_11  and  C_12 
ROOT
HETATM    1  O   UNK     0      20.230   0.786  28.131  0.00  0.00    -0.189 OA
HETATM    2  C   UNK     0      20.153  -1.215  26.515  0.00  0.00     0.029 C 
HETATM    3  C   UNK     0      20.456  -0.084  27.151  0.00  0.00     0.150 C 
ENDROOT
BRANCH   3   4
HETATM    4  C   UNK     0      21.462   0.668  26.714  0.00  0.00     0.128 C 
HETATM    5  N   UNK     0      20.822   0.856  25.564  0.00  0.00    -0.146 N 
HETATM    6  C   UNK     0      22.522   0.886  27.485  0.00  0.00     0.025 C 
ENDBRANCH   3   4
BRANCH   2   7
HETATM    7  C   UNK     0      19.146  -1.967  26.952  0.00  0.00     0.002 C 
HETATM    8  C   UNK     0      19.266  -3.290  26.998  0.00  0.00     0.000 C 
BRANCH   8   9
HETATM    9  C   UNK     0      18.259  -4.041  27.435  0.00  0.00     0.000 C 
HETATM   10  C   UNK     0      17.352  -3.516  28.256  0.00  0.00     0.000 C 
BRANCH  10  11
HETATM   11  C   UNK     0      16.345  -4.267  28.693  0.00  0.00     0.000 C 
HETATM   12  C   UNK     0      16.551  -5.532  29.041  0.00  0.00     0.000 C 
BRANCH  12  13
HETATM   13  C   UNK     0      15.544  -6.283  29.478  0.00  0.00     0.000 C 
HETATM   14  C   UNK     0      14.292  -5.847  29.351  0.00  0.00     0.000 C 
ENDBRANCH  12  13
ENDBRANCH  10  11
ENDBRANCH   8   9
ENDBRANCH   2   7
TORSDOF 5
ENDMDL
MODEL 5
REMARK VINA RESULT:      -6.5      2.957      3.357
REMARK  5 active torsions:
REMARK  status: ('A' for Active; 'I' for Inactive)
REMARK    1  A    between atoms: C_3  and  C_5 
REMARK    2  A    between atoms: C_4  and  C_6 
REMARK    3  A    between atoms: C_7  and  C_10 
REMARK    4  A    between atoms: C_8  and  C_9 
REMARK    5  A    between atoms: C_11  and  C_12 
ROOT
HETATM    1  O   UNK     0      14.936  -5.118  29.139  0.00  0.00    -0.189 OA
HETATM    2  C   UNK     0      15.809  -2.777  28.526  0.00  0.00     0.029 C 
HETATM    3  C   UNK     0      15.065  -3.816  28.901  0.00  0.00     0.150 C 
ENDROOT
BRANCH   3   4
HETATM    4  C   UNK     0      13.792  -3.628  29.238  0.00  0.00     0.128 C 
HETATM    5  N   UNK     0      13.567  -4.934  29.116  0.00  0.00    -0.146 N 
HETATM    6  C   UNK     0      13.342  -2.409  29.514  0.00  0.00     0.025 C 
ENDBRANCH   3   4
BRANCH   2   7
HETATM    7  C   UNK     0      17.082  -2.965  28.189  0.00  0.00     0.002 C 
HETATM    8  C   UNK     0      17.683  -2.136  27.342  0.00  0.00     0.000 C 
BRANCH   8   9
HETATM    9  C   UNK     0      18.956  -2.325  27.006  0.00  0.00     0.000 C 
HETATM   10  C   UNK     0      19.445  -3.562  26.942  0.00  0.00     0.000 C 
BRANCH  10  11
HETATM   11  C   UNK     0      20.717  -3.752  26.605  0.00  0.00     0.000 C 
HETATM   12  C   UNK     0      21.600  -2.767  26.730  0.00  0.00     0.000 C 
BRANCH  12  13
HETATM   13  C   UNK     0      22.873  -2.956  26.393  0.00  0.00     0.000 C 
HETATM   14  C   UNK     0      23.242  -4.104  25.826  0.00  0.00     0.000 C 
ENDBRANCH  12  13
ENDBRANCH  10  11
ENDBRANCH   8   9
ENDBRANCH   2   7
TORSDOF 5
ENDMDL
