MODEL 1
REMARK VINA RESULT:      -7.0      0.000      0.000
REMARK  5 active torsions:
REMARK  status: ('A' for Active; 'I' for Inactive)
REMARK    1  A    between atoms: C_3  and  C_5 
REMARK    2  A    between atoms: C_4  and  C_6 
REMARK    3  A    between atoms: C_7  and  C_10 
REMARK    4  A    between atoms: C_8  and  C_9 
REMARK    5  A    between atoms: C_11  and  C_12 
ROOT
HETATM    1  O   UNK     0      18.965  -9.282  24.961  0.00  0.00    -0.189 OA
HETATM    2  C   UNK     0      20.042  -7.281  26.168  0.00  0.00     0.029 C 
HETATM    3  C   UNK     0      19.813  -8.405  25.491  0.00  0.00     0.150 C 
ENDROOT
BRANCH   3   4
HETATM    4  C   UNK     0      20.837  -9.133  25.055  0.00  0.00     0.128 C 
HETATM    5  N   UNK     0      19.998  -9.899  24.364  0.00  0.00    -0.146 N 
HETATM    6  C   UNK     0      22.078  -8.840  25.429  0.00  0.00     0.025 C 
ENDBRANCH   3   4
BRANCH   2   7
HETATM    7  C   UNK     0      19.018  -6.553  26.604  0.00  0.00     0.002 C 
HETATM    8  C   UNK     0      19.169  -5.731  27.636  0.00  0.00     0.000 C 
BRANCH   8   9
HETATM    9  C   UNK     0      18.144  -5.004  28.072  0.00  0.00     0.000 C 
HETATM   10  C   UNK     0      17.152  -5.593  28.738  0.00  0.00     0.000 C 
BRANCH  10  11
HETATM   11  C   UNK     0      16.127  -4.867  29.173  0.00  0.00     0.000 C 
HETATM   12  C   UNK     0      16.041  -3.576  28.872  0.00  0.00     0.000 C 
BRANCH  12  13
HETATM   13  C   UNK     0      15.016  -2.849  29.308  0.00  0.00     0.000 C 
HETATM   14  C   UNK     0      13.777  -3.327  29.207  0.00  0.00     0.000 C 
ENDBRANCH  12  13
ENDBRANCH  10  11
ENDBRANCH   8   9
ENDBRANCH   2   7
TORSDOF 5
ENDMDL
MODEL 2
REMARK VINA RESULT:      -6.7      3.459      7.337
REMARK  5 active torsions:
REMARK  status: ('A' for Active; 'I' for Inactive)
REMARK    1  A    between atoms: C_3  and  C_5 
REMARK    2  A    between atoms: C_4  and  C_6 
REMARK    3  A    between atoms: C_7  and  C_10 
REMARK    4  A    between atoms: C_8  and  C_9 
REMARK    5  A    between atoms: C_11  and  C_12 
ROOT
HETATM    1  O   UNK     0      16.308  -2.773  27.893  0.00  0.00    -0.189 OA
HETATM    2  C   UNK     0      16.029  -4.878  29.345  0.00  0.00     0.029 C 
HETATM    3  C   UNK     0      15.916  -3.673  28.790  0.00  0.00     0.150 C 
ENDROOT
BRANCH   3   4
HETATM    4  C   UNK     0      15.000  -2.821  29.244  0.00  0.00     0.128 C 
HETATM    5  N   UNK     0      15.958  -1.945  29.532  0.00  0.00    -0.146 N 
HETATM    6  C   UNK     0      13.712  -3.146  29.227  0.00  0.00     0.025 C 
ENDBRANCH   3   4
BRANCH   2   7
HETATM    7  C   UNK     0      16.945  -5.730  28.891  0.00  0.00     0.002 C 
HETATM    8  C   UNK     0      18.060  -5.280  28.327  0.00  0.00     0.000 C 
BRANCH   8   9
HETATM    9  C   UNK     0      18.975  -6.132  27.873  0.00  0.00     0.000 C 
HETATM   10  C   UNK     0      19.131  -6.295  26.560  0.00  0.00     0.000 C 
BRANCH  10  11
HETATM   11  C   UNK     0      20.046  -7.147  26.106  0.00  0.00     0.000 C 
HETATM   12  C   UNK     0      19.687  -8.347  25.665  0.00  0.00     0.000 C 
BRANCH  12  13
HETATM   13  C   UNK     0      20.601  -9.199  25.210  0.00  0.00     0.000 C 
HETATM   14  C   UNK     0      20.428  -9.785  24.027  0.00  0.00     0.000 C 
ENDBRANCH  12  13
ENDBRANCH  10  11
ENDBRANCH   8   9
ENDBRANCH   2   7
TORSDOF 5
ENDMDL
MODEL 3
REMARK VINA RESULT:      -6.4      5.057      6.761
REMARK  5 active torsions:
REMARK  status: ('A' for Active; 'I' for Inactive)
REMARK    1  A    between atoms: C_3  and  C_5 
REMARK    2  A    between atoms: C_4  and  C_6 
REMARK    3  A    between atoms: C_7  and  C_10 
REMARK    4  A    between atoms: C_8  and  C_9 
REMARK    5  A    between atoms: C_11  and  C_12 
ROOT
HETATM    1  O   UNK     0      16.422  -5.740  29.123  0.00  0.00    -0.189 OA
HETATM    2  C   UNK     0      15.304  -3.425  29.022  0.00  0.00     0.029 C 
HETATM    3  C   UNK     0      15.558  -4.729  29.115  0.00  0.00     0.150 C 
ENDROOT
BRANCH   3   4
HETATM    4  C   UNK     0      14.555  -5.585  29.291  0.00  0.00     0.128 C 
HETATM    5  N   UNK     0      13.681  -4.603  29.086  0.00  0.00    -0.146 N 
HETATM    6  C   UNK     0      14.801  -6.863  29.556  0.00  0.00     0.025 C 
ENDBRANCH   3   4
BRANCH   2   7
HETATM    7  C   UNK     0      16.307  -2.569  28.846  0.00  0.00     0.002 C 
HETATM    8  C   UNK     0      16.988  -2.556  27.705  0.00  0.00     0.000 C 
BRANCH   8   9
HETATM    9  C   UNK     0      17.990  -1.699  27.531  0.00  0.00     0.000 C 
HETATM   10  C   UNK     0      19.100  -2.100  26.913  0.00  0.00     0.000 C 
BRANCH  10  11
HETATM   11  C   UNK     0      20.103  -1.244  26.737  0.00  0.00     0.000 C 
HETATM   12  C   UNK     0      20.147  -0.109  27.427  0.00  0.00     0.000 C 
BRANCH  12  13
HETATM   13  C   UNK     0      21.150   0.746  27.252  0.00  0.00     0.000 C 
HETATM   14  C   UNK     0      21.586   1.472  28.280  0.00  0.00     0.000 C 
ENDBRANCH  12  13
ENDBRANCH  10  11
ENDBRANCH   8   9
ENDBRANCH   2   7
TORSDOF 5
ENDMDL
MODEL 4
REMARK VINA RESULT:      -6.4      4.296      6.760
REMARK  5 active torsions:
REMARK  status: ('A' for Active; 'I' for Inactive)
REMARK    1  A    between atoms: C_3  and  C_5 
REMARK    2  A    between atoms: C_4  and  C_6 
REMARK    3  A    between atoms: C_7  and  C_10 
REMARK    4  A    between atoms: C_8  and  C_9 
REMARK    5  A    between atoms: C_11  and  C_12 
ROOT
HETATM    1  O   UNK     0      15.422  -3.635  28.846  0.00  0.00    -0.189 OA
HETATM    2  C   UNK     0      17.029  -5.643  28.796  0.00  0.00     0.029 C 
HETATM    3  C   UNK     0      15.971  -4.844  28.919  0.00  0.00     0.150 C 
ENDROOT
BRANCH   3   4
HETATM    4  C   UNK     0      14.801  -5.352  29.296  0.00  0.00     0.128 C 
HETATM    5  N   UNK     0      14.233  -4.159  29.143  0.00  0.00    -0.146 N 
HETATM    6  C   UNK     0      14.698  -6.637  29.619  0.00  0.00     0.025 C 
ENDBRANCH   3   4
BRANCH   2   7
HETATM    7  C   UNK     0      18.199  -5.134  28.419  0.00  0.00     0.002 C 
HETATM    8  C   UNK     0      18.890  -5.696  27.433  0.00  0.00     0.000 C 
BRANCH   8   9
HETATM    9  C   UNK     0      20.060  -5.187  27.057  0.00  0.00     0.000 C 
HETATM   10  C   UNK     0      20.162  -3.883  26.807  0.00  0.00     0.000 C 
BRANCH  10  11
HETATM   11  C   UNK     0      21.331  -3.373  26.431  0.00  0.00     0.000 C 
HETATM   12  C   UNK     0      21.927  -2.441  27.167  0.00  0.00     0.000 C 
BRANCH  12  13
HETATM   13  C   UNK     0      23.096  -1.931  26.791  0.00  0.00     0.000 C 
HETATM   14  C   UNK     0      23.886  -2.624  25.973  0.00  0.00     0.000 C 
ENDBRANCH  12  13
ENDBRANCH  10  11
ENDBRANCH   8   9
ENDBRANCH   2   7
TORSDOF 5
ENDMDL
MODEL 5
REMARK VINA RESULT:      -6.3      4.072      6.946
REMARK  5 active torsions:
REMARK  status: ('A' for Active; 'I' for Inactive)
REMARK    1  A    between atoms: C_3  and  C_5 
REMARK    2  A    between atoms: C_4  and  C_6 
REMARK    3  A    between atoms: C_7  and  C_10 
REMARK    4  A    between atoms: C_8  and  C_9 
REMARK    5  A    between atoms: C_11  and  C_12 
ROOT
HETATM    1  O   UNK     0      15.553  -3.613  28.480  0.00  0.00    -0.189 OA
HETATM    2  C   UNK     0      17.094  -5.649  28.797  0.00  0.00     0.029 C 
HETATM    3  C   UNK     0      16.067  -4.801  28.786  0.00  0.00     0.150 C 
ENDROOT
BRANCH   3   4
HETATM    4  C   UNK     0      14.899  -5.174  29.301  0.00  0.00     0.128 C 
HETATM    5  N   UNK     0      14.456  -3.924  29.201  0.00  0.00    -0.146 N 
HETATM    6  C   UNK     0      14.689  -6.439  29.647  0.00  0.00     0.025 C 
ENDBRANCH   3   4
BRANCH   2   7
HETATM    7  C   UNK     0      18.263  -5.275  28.283  0.00  0.00     0.002 C 
HETATM    8  C   UNK     0      18.840  -5.999  27.330  0.00  0.00     0.000 C 
BRANCH   8   9
HETATM    9  C   UNK     0      20.008  -5.625  26.816  0.00  0.00     0.000 C 
HETATM   10  C   UNK     0      20.364  -4.342  26.852  0.00  0.00     0.000 C 
BRANCH  10  11
HETATM   11  C   UNK     0      21.533  -3.968  26.338  0.00  0.00     0.000 C 
HETATM   12  C   UNK     0      22.333  -4.860  25.767  0.00  0.00     0.000 C 
BRANCH  12  13
HETATM   13  C   UNK     0      23.502  -4.485  25.253  0.00  0.00     0.000 C 
HETATM   14  C   UNK     0      24.197  -3.511  25.837  0.00  0.00     0.000 C 
ENDBRANCH  12  13
ENDBRANCH  10  11
ENDBRANCH   8   9
ENDBRANCH   2   7
TORSDOF 5
ENDMDL
