MODEL 1
REMARK VINA RESULT:      -7.1      0.000      0.000
REMARK  5 active torsions:
REMARK  status: ('A' for Active; 'I' for Inactive)
REMARK    1  A    between atoms: C_3  and  C_5 
REMARK    2  A    between atoms: C_4  and  C_6 
REMARK    3  A    between atoms: C_7  and  C_10 
REMARK    4  A    between atoms: C_8  and  C_9 
REMARK    5  A    between atoms: C_11  and  C_12 
ROOT
HETATM    1  O   UNK     0      18.971  -9.243  24.918  0.00  0.00    -0.189 OA
HETATM    2  C   UNK     0      20.037  -7.283  26.197  0.00  0.00     0.029 C 
HETATM    3  C   UNK     0      19.814  -8.393  25.497  0.00  0.00     0.150 C 
ENDROOT
BRANCH   3   4
HETATM    4  C   UNK     0      20.840  -9.141  25.101  0.00  0.00     0.128 C 
HETATM    5  N   UNK     0      20.009  -9.911  24.403  0.00  0.00    -0.146 N 
HETATM    6  C   UNK     0      22.074  -8.856  25.501  0.00  0.00     0.025 C 
ENDBRANCH   3   4
BRANCH   2   7
HETATM    7  C   UNK     0      19.011  -6.535  26.593  0.00  0.00     0.002 C 
HETATM    8  C   UNK     0      19.063  -5.879  27.747  0.00  0.00     0.000 C 
BRANCH   8   9
HETATM    9  C   UNK     0      18.036  -5.131  28.142  0.00  0.00     0.000 C 
HETATM   10  C   UNK     0      17.051  -5.684  28.847  0.00  0.00     0.000 C 
BRANCH  10  11
HETATM   11  C   UNK     0      16.023  -4.937  29.242  0.00  0.00     0.000 C 
HETATM   12  C   UNK     0      15.933  -3.666  28.868  0.00  0.00     0.000 C 
BRANCH  12  13
HETATM   13  C   UNK     0      14.906  -2.919  29.264  0.00  0.00     0.000 C 
HETATM   14  C   UNK     0      13.669  -3.408  29.196  0.00  0.00     0.000 C 
ENDBRANCH  12  13
ENDBRANCH  10  11
ENDBRANCH   8   9
ENDBRANCH   2   7
TORSDOF 5
ENDMDL
MODEL 2
REMARK VINA RESULT:      -6.7      3.572      7.387
REMARK  5 active torsions:
REMARK  status: ('A' for Active; 'I' for Inactive)
REMARK    1  A    between atoms: C_3  and  C_5 
REMARK    2  A    between atoms: C_4  and  C_6 
REMARK    3  A    between atoms: C_7  and  C_10 
REMARK    4  A    between atoms: C_8  and  C_9 
REMARK    5  A    between atoms: C_11  and  C_12 
ROOT
HETATM    1  O   UNK     0      16.216  -2.343  27.634  0.00  0.00    -0.189 OA
HETATM    2  C   UNK     0      15.763  -4.350  29.178  0.00  0.00     0.029 C 
HETATM    3  C   UNK     0      15.739  -3.172  28.558  0.00  0.00     0.150 C 
ENDROOT
BRANCH   3   4
HETATM    4  C   UNK     0      14.856  -2.249  28.929  0.00  0.00     0.128 C 
HETATM    5  N   UNK     0      15.617  -1.303  28.387  0.00  0.00    -0.146 N 
HETATM    6  C   UNK     0      13.754  -2.598  29.584  0.00  0.00     0.025 C 
ENDBRANCH   3   4
BRANCH   2   7
HETATM    7  C   UNK     0      16.646  -5.273  28.807  0.00  0.00     0.002 C 
HETATM    8  C   UNK     0      17.862  -4.918  28.407  0.00  0.00     0.000 C 
BRANCH   8   9
HETATM    9  C   UNK     0      18.744  -5.841  28.036  0.00  0.00     0.000 C 
HETATM   10  C   UNK     0      19.008  -6.020  26.743  0.00  0.00     0.000 C 
BRANCH  10  11
HETATM   11  C   UNK     0      19.890  -6.943  26.371  0.00  0.00     0.000 C 
HETATM   12  C   UNK     0      19.501  -8.003  25.672  0.00  0.00     0.000 C 
BRANCH  12  13
HETATM   13  C   UNK     0      20.383  -8.926  25.300  0.00  0.00     0.000 C 
HETATM   14  C   UNK     0      20.048  -9.826  24.378  0.00  0.00     0.000 C 
ENDBRANCH  12  13
ENDBRANCH  10  11
ENDBRANCH   8   9
ENDBRANCH   2   7
TORSDOF 5
ENDMDL
MODEL 3
REMARK VINA RESULT:      -6.4      4.462      6.795
REMARK  5 active torsions:
REMARK  status: ('A' for Active; 'I' for Inactive)
REMARK    1  A    between atoms: C_3  and  C_5 
REMARK    2  A    between atoms: C_4  and  C_6 
REMARK    3  A    between atoms: C_7  and  C_10 
REMARK    4  A    between atoms: C_8  and  C_9 
REMARK    5  A    between atoms: C_11  and  C_12 
ROOT
HETATM    1  O   UNK     0      15.769  -3.670  29.177  0.00  0.00    -0.189 OA
HETATM    2  C   UNK     0      17.153  -5.795  28.745  0.00  0.00     0.029 C 
HETATM    3  C   UNK     0      16.183  -4.924  29.016  0.00  0.00     0.150 C 
ENDROOT
BRANCH   3   4
HETATM    4  C   UNK     0      14.957  -5.364  29.281  0.00  0.00     0.128 C 
HETATM    5  N   UNK     0      14.480  -4.133  29.118  0.00  0.00    -0.146 N 
HETATM    6  C   UNK     0      14.747  -6.647  29.555  0.00  0.00     0.025 C 
ENDBRANCH   3   4
BRANCH   2   7
HETATM    7  C   UNK     0      18.380  -5.355  28.480  0.00  0.00     0.002 C 
HETATM    8  C   UNK     0      18.793  -5.231  27.223  0.00  0.00     0.000 C 
BRANCH   8   9
HETATM    9  C   UNK     0      20.020  -4.791  26.959  0.00  0.00     0.000 C 
HETATM   10  C   UNK     0      20.248  -3.481  26.880  0.00  0.00     0.000 C 
BRANCH  10  11
HETATM   11  C   UNK     0      21.475  -3.040  26.616  0.00  0.00     0.000 C 
HETATM   12  C   UNK     0      21.987  -2.025  27.303  0.00  0.00     0.000 C 
BRANCH  12  13
HETATM   13  C   UNK     0      23.214  -1.584  27.039  0.00  0.00     0.000 C 
HETATM   14  C   UNK     0      23.914  -2.132  26.048  0.00  0.00     0.000 C 
ENDBRANCH  12  13
ENDBRANCH  10  11
ENDBRANCH   8   9
ENDBRANCH   2   7
TORSDOF 5
ENDMDL
MODEL 4
REMARK VINA RESULT:      -6.4      5.079      6.829
REMARK  5 active torsions:
REMARK  status: ('A' for Active; 'I' for Inactive)
REMARK    1  A    between atoms: C_3  and  C_5 
REMARK    2  A    between atoms: C_4  and  C_6 
REMARK    3  A    between atoms: C_7  and  C_10 
REMARK    4  A    between atoms: C_8  and  C_9 
REMARK    5  A    between atoms: C_11  and  C_12 
ROOT
HETATM    1  O   UNK     0      16.412  -5.645  29.399  0.00  0.00    -0.189 OA
HETATM    2  C   UNK     0      15.259  -3.414  28.840  0.00  0.00     0.029 C 
HETATM    3  C   UNK     0      15.532  -4.683  29.136  0.00  0.00     0.150 C 
ENDROOT
BRANCH   3   4
HETATM    4  C   UNK     0      14.538  -5.557  29.271  0.00  0.00     0.128 C 
HETATM    5  N   UNK     0      13.655  -4.586  29.051  0.00  0.00    -0.146 N 
HETATM    6  C   UNK     0      14.795  -6.834  29.529  0.00  0.00     0.025 C 
ENDBRANCH   3   4
BRANCH   2   7
HETATM    7  C   UNK     0      16.253  -2.540  28.705  0.00  0.00     0.002 C 
HETATM    8  C   UNK     0      17.082  -2.619  27.670  0.00  0.00     0.000 C 
BRANCH   8   9
HETATM    9  C   UNK     0      18.076  -1.745  27.535  0.00  0.00     0.000 C 
HETATM   10  C   UNK     0      19.165  -2.086  26.849  0.00  0.00     0.000 C 
BRANCH  10  11
HETATM   11  C   UNK     0      20.159  -1.212  26.714  0.00  0.00     0.000 C 
HETATM   12  C   UNK     0      20.181  -0.100  27.440  0.00  0.00     0.000 C 
BRANCH  12  13
HETATM   13  C   UNK     0      21.175   0.773  27.305  0.00  0.00     0.000 C 
HETATM   14  C   UNK     0      21.481   1.586  28.314  0.00  0.00     0.000 C 
ENDBRANCH  12  13
ENDBRANCH  10  11
ENDBRANCH   8   9
ENDBRANCH   2   7
TORSDOF 5
ENDMDL
MODEL 5
REMARK VINA RESULT:      -6.4      4.493      4.997
REMARK  5 active torsions:
REMARK  status: ('A' for Active; 'I' for Inactive)
REMARK    1  A    between atoms: C_3  and  C_5 
REMARK    2  A    between atoms: C_4  and  C_6 
REMARK    3  A    between atoms: C_7  and  C_10 
REMARK    4  A    between atoms: C_8  and  C_9 
REMARK    5  A    between atoms: C_11  and  C_12 
ROOT
HETATM    1  O   UNK     0      22.350  -1.842  27.832  0.00  0.00    -0.189 OA
HETATM    2  C   UNK     0      21.612  -3.798  26.333  0.00  0.00     0.029 C 
HETATM    3  C   UNK     0      22.257  -2.773  26.886  0.00  0.00     0.150 C 
ENDROOT
BRANCH   3   4
HETATM    4  C   UNK     0      23.391  -2.337  26.345  0.00  0.00     0.128 C 
HETATM    5  N   UNK     0      23.156  -1.122  26.831  0.00  0.00    -0.146 N 
HETATM    6  C   UNK     0      24.167  -3.164  25.653  0.00  0.00     0.025 C 
ENDBRANCH   3   4
BRANCH   2   7
HETATM    7  C   UNK     0      20.477  -4.233  26.874  0.00  0.00     0.002 C 
HETATM    8  C   UNK     0      20.133  -5.513  26.776  0.00  0.00     0.000 C 
BRANCH   8   9
HETATM    9  C   UNK     0      18.998  -5.947  27.317  0.00  0.00     0.000 C 
HETATM   10  C   UNK     0      18.456  -5.282  28.336  0.00  0.00     0.000 C 
BRANCH  10  11
HETATM   11  C   UNK     0      17.322  -5.715  28.878  0.00  0.00     0.000 C 
HETATM   12  C   UNK     0      16.250  -4.931  28.912  0.00  0.00     0.000 C 
BRANCH  12  13
HETATM   13  C   UNK     0      15.115  -5.364  29.454  0.00  0.00     0.000 C 
HETATM   14  C   UNK     0      14.821  -6.663  29.420  0.00  0.00     0.000 C 
ENDBRANCH  12  13
ENDBRANCH  10  11
ENDBRANCH   8   9
ENDBRANCH   2   7
TORSDOF 5
ENDMDL
