REMARK  5 active torsions:
REMARK  status: ('A' for Active; 'I' for Inactive)
REMARK    1  A    between atoms: C_3  and  C_5 
REMARK    2  A    between atoms: C_4  and  C_6 
REMARK    3  A    between atoms: C_7  and  C_10 
REMARK    4  A    between atoms: C_8  and  C_9 
REMARK    5  A    between atoms: C_11  and  C_12 
ROOT
HETATM    1  O   UNK     0       8.705  -7.018   0.000  0.00  0.00    -0.189 OA
HETATM    2  C   UNK     0       8.024  -4.537   0.000  0.00  0.00     0.029 C 
HETATM    3  C   UNK     0       8.694  -5.688   0.000  0.00  0.00     0.150 C 
ENDROOT
BRANCH   3   4
HETATM    4  C   UNK     0      10.024  -5.677   0.000  0.00  0.00     0.128 C 
HETATM    5  N   UNK     0      10.013  -4.347   0.000  0.00  0.00    -0.146 N 
HETATM    6  C   UNK     0      10.706  -6.817   0.000  0.00  0.00     0.025 C 
ENDBRANCH   3   4
BRANCH   2   7
HETATM    7  C   UNK     0       6.694  -4.548   0.000  0.00  0.00     0.002 C 
HETATM    8  C   UNK     0       6.012  -3.408   0.000  0.00  0.00     0.000 C 
BRANCH   8   9
HETATM    9  C   UNK     0       4.682  -3.420   0.000  0.00  0.00     0.000 C 
HETATM   10  C   UNK     0       4.012  -2.269   0.000  0.00  0.00     0.000 C 
BRANCH  10  11
HETATM   11  C   UNK     0       2.682  -2.280   0.000  0.00  0.00     0.000 C 
HETATM   12  C   UNK     0       2.000  -1.140   0.000  0.00  0.00     0.000 C 
BRANCH  12  13
HETATM   13  C   UNK     0       0.670  -1.151   0.000  0.00  0.00     0.000 C 
HETATM   14  C   UNK     0       0.000   0.000   0.000  0.00  0.00     0.000 C 
ENDBRANCH  12  13
ENDBRANCH  10  11
ENDBRANCH   8   9
ENDBRANCH   2   7
TORSDOF 5
