MODEL 1
REMARK VINA RESULT:      -5.6      0.000      0.000
REMARK  5 active torsions:
REMARK  status: ('A' for Active; 'I' for Inactive)
REMARK    1  A    between atoms: O_1  and  C_7 
REMARK    2  A    between atoms: O_2  and  C_9 
REMARK    3  A    between atoms: O_3  and  C_10 
REMARK    4  A    between atoms: C_5  and  C_9 
REMARK    5  A    between atoms: C_6  and  C_10 
ROOT
HETATM    1  N   UNK     0      14.336  59.948  12.873  0.00  0.00    -0.262 NA
HETATM    2  C   UNK     0      14.953  57.257  12.432  0.00  0.00     0.010 A 
HETATM    3  C   UNK     0      15.880  58.095  13.043  0.00  0.00    -0.006 A 
HETATM    4  C   UNK     0      13.717  57.763  12.042  0.00  0.00     0.099 A 
HETATM    5  C   UNK     0      13.460  59.103  12.283  0.00  0.00     0.064 A 
HETATM    6  C   UNK     0      15.526  59.420  13.238  0.00  0.00     0.127 A 
HETATM    7  C   UNK     0      12.149  59.698  11.885  0.00  0.00     0.073 C 
ENDROOT
BRANCH   2   8
HETATM    8  C   UNK     0      15.279  55.817  12.196  0.00  0.00     0.206 C 
BRANCH   8   9
HETATM    9  O   UNK     0      14.276  55.006  12.794  0.00  0.00    -0.396 OA
HETATM   10  H   UNK     0      14.650  54.651  13.618  0.00  0.00     0.209 HD
ENDBRANCH   8   9
ENDBRANCH   2   8
BRANCH   3  11
HETATM   11  C   UNK     0      17.217  57.607  13.480  0.00  0.00     0.205 C 
BRANCH  11  12
HETATM   12  O   UNK     0      17.744  58.487  14.466  0.00  0.00    -0.396 OA
HETATM   13  H   UNK     0      17.024  59.050  14.794  0.00  0.00     0.209 HD
ENDBRANCH  11  12
ENDBRANCH   3  11
BRANCH   4  14
HETATM   14  O   UNK     0      12.792  56.968  11.444  0.00  0.00    -0.358 OA
HETATM   15  H   UNK     0      13.187  56.442  10.731  0.00  0.00     0.218 HD
ENDBRANCH   4  14
TORSDOF 5
ENDMDL
MODEL 2
REMARK VINA RESULT:      -5.6      2.077      3.853
REMARK  5 active torsions:
REMARK  status: ('A' for Active; 'I' for Inactive)
REMARK    1  A    between atoms: O_1  and  C_7 
REMARK    2  A    between atoms: O_2  and  C_9 
REMARK    3  A    between atoms: O_3  and  C_10 
REMARK    4  A    between atoms: C_5  and  C_9 
REMARK    5  A    between atoms: C_6  and  C_10 
ROOT
HETATM    1  N   UNK     0      15.353  59.060  13.369  0.00  0.00    -0.262 NA
HETATM    2  C   UNK     0      12.976  59.237  11.910  0.00  0.00     0.010 A 
HETATM    3  C   UNK     0      13.464  60.350  12.586  0.00  0.00    -0.006 A 
HETATM    4  C   UNK     0      13.675  58.036  11.962  0.00  0.00     0.099 A 
HETATM    5  C   UNK     0      14.848  58.000  12.699  0.00  0.00     0.064 A 
HETATM    6  C   UNK     0      14.646  60.210  13.296  0.00  0.00     0.127 A 
HETATM    7  C   UNK     0      15.639  56.736  12.787  0.00  0.00     0.073 C 
ENDROOT
BRANCH   2   8
HETATM    8  C   UNK     0      11.705  59.329  11.127  0.00  0.00     0.206 C 
BRANCH   8   9
HETATM    9  O   UNK     0      10.887  58.207  11.430  0.00  0.00    -0.396 OA
HETATM   10  H   UNK     0      10.332  58.456  12.189  0.00  0.00     0.209 HD
ENDBRANCH   8   9
ENDBRANCH   2   8
BRANCH   3  11
HETATM   11  C   UNK     0      12.757  61.660  12.566  0.00  0.00     0.205 C 
BRANCH  11  12
HETATM   12  O   UNK     0      12.182  61.909  13.843  0.00  0.00    -0.396 OA
HETATM   13  H   UNK     0      12.458  62.792  14.140  0.00  0.00     0.209 HD
ENDBRANCH  11  12
ENDBRANCH   3  11
BRANCH   4  14
HETATM   14  O   UNK     0      13.221  56.933  11.311  0.00  0.00    -0.358 OA
HETATM   15  H   UNK     0      12.260  56.965  11.189  0.00  0.00     0.218 HD
ENDBRANCH   4  14
TORSDOF 5
ENDMDL
MODEL 3
REMARK VINA RESULT:      -4.9      2.716      3.759
REMARK  5 active torsions:
REMARK  status: ('A' for Active; 'I' for Inactive)
REMARK    1  A    between atoms: O_1  and  C_7 
REMARK    2  A    between atoms: O_2  and  C_9 
REMARK    3  A    between atoms: O_3  and  C_10 
REMARK    4  A    between atoms: C_5  and  C_9 
REMARK    5  A    between atoms: C_6  and  C_10 
ROOT
HETATM    1  N   UNK     0      16.092  56.607  11.583  0.00  0.00    -0.262 NA
HETATM    2  C   UNK     0      15.732  54.259  13.057  0.00  0.00     0.010 A 
HETATM    3  C   UNK     0      16.855  54.412  12.251  0.00  0.00    -0.006 A 
HETATM    4  C   UNK     0      14.790  55.279  13.128  0.00  0.00     0.099 A 
HETATM    5  C   UNK     0      15.014  56.422  12.378  0.00  0.00     0.064 A 
HETATM    6  C   UNK     0      16.986  55.593  11.540  0.00  0.00     0.127 A 
HETATM    7  C   UNK     0      14.034  57.549  12.418  0.00  0.00     0.073 C 
ENDROOT
BRANCH   2   8
HETATM    8  C   UNK     0      15.537  53.006  13.848  0.00  0.00     0.206 C 
BRANCH   8   9
HETATM    9  O   UNK     0      15.979  53.220  15.182  0.00  0.00    -0.396 OA
HETATM   10  H   UNK     0      16.115  52.344  15.582  0.00  0.00     0.209 HD
ENDBRANCH   8   9
ENDBRANCH   2   8
BRANCH   3  11
HETATM   11  C   UNK     0      17.895  53.352  12.137  0.00  0.00     0.205 C 
BRANCH  11  12
HETATM   12  O   UNK     0      18.618  53.263  13.359  0.00  0.00    -0.396 OA
HETATM   13  H   UNK     0      18.353  52.447  13.816  0.00  0.00     0.209 HD
ENDBRANCH  11  12
ENDBRANCH   3  11
BRANCH   4  14
HETATM   14  O   UNK     0      13.683  55.158  13.907  0.00  0.00    -0.358 OA
HETATM   15  H   UNK     0      12.879  55.388  13.417  0.00  0.00     0.218 HD
ENDBRANCH   4  14
TORSDOF 5
ENDMDL
