MODEL 1
REMARK VINA RESULT:      -5.0      0.000      0.000
REMARK  5 active torsions:
REMARK  status: ('A' for Active; 'I' for Inactive)
REMARK    1  A    between atoms: O_1  and  C_7 
REMARK    2  A    between atoms: O_2  and  C_9 
REMARK    3  A    between atoms: O_3  and  C_10 
REMARK    4  A    between atoms: C_5  and  C_9 
REMARK    5  A    between atoms: C_6  and  C_10 
ROOT
HETATM    1  N   UNK     0      27.287  36.656   5.430  0.00  0.00    -0.262 NA
HETATM    2  C   UNK     0      26.398  36.866   2.788  0.00  0.00     0.010 A 
HETATM    3  C   UNK     0      25.993  35.794   3.578  0.00  0.00    -0.006 A 
HETATM    4  C   UNK     0      27.246  37.832   3.318  0.00  0.00     0.099 A 
HETATM    5  C   UNK     0      27.658  37.683   4.632  0.00  0.00     0.064 A 
HETATM    6  C   UNK     0      26.462  35.736   4.880  0.00  0.00     0.127 A 
HETATM    7  C   UNK     0      28.569  38.693   5.251  0.00  0.00     0.073 C 
ENDROOT
BRANCH   2   8
HETATM    8  C   UNK     0      25.923  36.981   1.375  0.00  0.00     0.206 C 
BRANCH   8   9
HETATM    9  O   UNK     0      27.003  36.703   0.494  0.00  0.00    -0.396 OA
HETATM   10  H   UNK     0      27.818  36.731   1.024  0.00  0.00     0.209 HD
ENDBRANCH   8   9
ENDBRANCH   2   8
BRANCH   3  11
HETATM   11  C   UNK     0      25.087  34.731   3.063  0.00  0.00     0.205 C 
BRANCH  11  12
HETATM   12  O   UNK     0      24.977  33.692   4.029  0.00  0.00    -0.396 OA
HETATM   13  H   UNK     0      25.474  32.920   3.711  0.00  0.00     0.209 HD
ENDBRANCH  11  12
ENDBRANCH   3  11
BRANCH   4  14
HETATM   14  O   UNK     0      27.657  38.889   2.569  0.00  0.00    -0.358 OA
HETATM   15  H   UNK     0      26.921  39.488   2.370  0.00  0.00     0.218 HD
ENDBRANCH   4  14
TORSDOF 5
ENDMDL
MODEL 2
REMARK VINA RESULT:      -5.0     18.497     19.868
REMARK  5 active torsions:
REMARK  status: ('A' for Active; 'I' for Inactive)
REMARK    1  A    between atoms: O_1  and  C_7 
REMARK    2  A    between atoms: O_2  and  C_9 
REMARK    3  A    between atoms: O_3  and  C_10 
REMARK    4  A    between atoms: C_5  and  C_9 
REMARK    5  A    between atoms: C_6  and  C_10 
ROOT
HETATM    1  N   UNK     0      18.040  28.183  21.032  0.00  0.00    -0.262 NA
HETATM    2  C   UNK     0      19.311  27.650  18.600  0.00  0.00     0.010 A 
HETATM    3  C   UNK     0      20.047  27.687  19.779  0.00  0.00    -0.006 A 
HETATM    4  C   UNK     0      17.939  27.879  18.636  0.00  0.00     0.099 A 
HETATM    5  C   UNK     0      17.357  28.138  19.865  0.00  0.00     0.064 A 
HETATM    6  C   UNK     0      19.371  27.956  20.957  0.00  0.00     0.127 A 
HETATM    7  C   UNK     0      15.888  28.390  19.961  0.00  0.00     0.073 C 
ENDROOT
BRANCH   2   8
HETATM    8  C   UNK     0      19.987  27.364  17.297  0.00  0.00     0.206 C 
BRANCH   8   9
HETATM    9  O   UNK     0      19.868  25.979  17.002  0.00  0.00    -0.396 OA
HETATM   10  H   UNK     0      18.962  25.833  16.681  0.00  0.00     0.209 HD
ENDBRANCH   8   9
ENDBRANCH   2   8
BRANCH   3  11
HETATM   11  C   UNK     0      21.518  27.451  19.799  0.00  0.00     0.205 C 
BRANCH  11  12
HETATM   12  O   UNK     0      22.187  28.580  19.249  0.00  0.00    -0.396 OA
HETATM   13  H   UNK     0      22.953  28.789  19.810  0.00  0.00     0.209 HD
ENDBRANCH  11  12
ENDBRANCH   3  11
BRANCH   4  14
HETATM   14  O   UNK     0      17.195  27.849  17.499  0.00  0.00    -0.358 OA
HETATM   15  H   UNK     0      16.529  27.145  17.531  0.00  0.00     0.218 HD
ENDBRANCH   4  14
TORSDOF 5
ENDMDL
MODEL 3
REMARK VINA RESULT:      -4.9     14.765     15.230
REMARK  5 active torsions:
REMARK  status: ('A' for Active; 'I' for Inactive)
REMARK    1  A    between atoms: O_1  and  C_7 
REMARK    2  A    between atoms: O_2  and  C_9 
REMARK    3  A    between atoms: O_3  and  C_10 
REMARK    4  A    between atoms: C_5  and  C_9 
REMARK    5  A    between atoms: C_6  and  C_10 
ROOT
HETATM    1  N   UNK     0      18.584  32.015  14.625  0.00  0.00    -0.262 NA
HETATM    2  C   UNK     0      20.663  30.824  16.064  0.00  0.00     0.010 A 
HETATM    3  C   UNK     0      19.874  30.057  15.214  0.00  0.00    -0.006 A 
HETATM    4  C   UNK     0      20.414  32.186  16.196  0.00  0.00     0.099 A 
HETATM    5  C   UNK     0      19.372  32.728  15.461  0.00  0.00     0.064 A 
HETATM    6  C   UNK     0      18.856  30.694  14.524  0.00  0.00     0.127 A 
HETATM    7  C   UNK     0      19.062  34.186  15.564  0.00  0.00     0.073 C 
ENDROOT
BRANCH   2   8
HETATM    8  C   UNK     0      21.777  30.190  16.834  0.00  0.00     0.206 C 
BRANCH   8   9
HETATM    9  O   UNK     0      23.017  30.723  16.389  0.00  0.00    -0.396 OA
HETATM   10  H   UNK     0      22.898  31.684  16.298  0.00  0.00     0.209 HD
ENDBRANCH   8   9
ENDBRANCH   2   8
BRANCH   3  11
HETATM   11  C   UNK     0      20.095  28.595  15.035  0.00  0.00     0.205 C 
BRANCH  11  12
HETATM   12  O   UNK     0      19.007  27.877  15.606  0.00  0.00    -0.396 OA
HETATM   13  H   UNK     0      18.567  28.449  16.257  0.00  0.00     0.209 HD
ENDBRANCH  11  12
ENDBRANCH   3  11
BRANCH   4  14
HETATM   14  O   UNK     0      21.168  32.959  17.020  0.00  0.00    -0.358 OA
HETATM   15  H   UNK     0      21.547  33.716  16.545  0.00  0.00     0.218 HD
ENDBRANCH   4  14
TORSDOF 5
ENDMDL
