MODEL 1
REMARK VINA RESULT:      -6.0      0.000      0.000
REMARK  5 active torsions:
REMARK  status: ('A' for Active; 'I' for Inactive)
REMARK    1  A    between atoms: O_1  and  C_7 
REMARK    2  A    between atoms: O_2  and  C_9 
REMARK    3  A    between atoms: O_3  and  C_10 
REMARK    4  A    between atoms: C_5  and  C_9 
REMARK    5  A    between atoms: C_6  and  C_10 
ROOT
HETATM    1  N   UNK     0      10.015  15.370   2.923  0.00  0.00    -0.262 NA
HETATM    2  C   UNK     0      11.941  16.252   1.099  0.00  0.00     0.010 A 
HETATM    3  C   UNK     0      12.033  16.611   2.440  0.00  0.00    -0.006 A 
HETATM    4  C   UNK     0      10.887  15.452   0.670  0.00  0.00     0.099 A 
HETATM    5  C   UNK     0       9.959  15.041   1.612  0.00  0.00     0.064 A 
HETATM    6  C   UNK     0      11.054  16.148   3.303  0.00  0.00     0.127 A 
HETATM    7  C   UNK     0       8.808  14.180   1.205  0.00  0.00     0.073 C 
ENDROOT
BRANCH   2   8
HETATM    8  C   UNK     0      12.970  16.721   0.121  0.00  0.00     0.206 C 
BRANCH   8   9
HETATM    9  O   UNK     0      14.146  15.936   0.266  0.00  0.00    -0.396 OA
HETATM   10  H   UNK     0      14.900  16.550   0.261  0.00  0.00     0.209 HD
ENDBRANCH   8   9
ENDBRANCH   2   8
BRANCH   3  11
HETATM   11  C   UNK     0      13.139  17.465   2.954  0.00  0.00     0.205 C 
BRANCH  11  12
HETATM   12  O   UNK     0      14.295  16.664   3.174  0.00  0.00    -0.396 OA
HETATM   13  H   UNK     0      14.009  15.751   3.347  0.00  0.00     0.209 HD
ENDBRANCH  11  12
ENDBRANCH   3  11
BRANCH   4  14
HETATM   14  O   UNK     0      10.772  15.087  -0.634  0.00  0.00    -0.358 OA
HETATM   15  H   UNK     0      11.639  15.034  -1.065  0.00  0.00     0.218 HD
ENDBRANCH   4  14
TORSDOF 5
ENDMDL
MODEL 2
REMARK VINA RESULT:      -5.6      1.414      2.296
REMARK  5 active torsions:
REMARK  status: ('A' for Active; 'I' for Inactive)
REMARK    1  A    between atoms: O_1  and  C_7 
REMARK    2  A    between atoms: O_2  and  C_9 
REMARK    3  A    between atoms: O_3  and  C_10 
REMARK    4  A    between atoms: C_5  and  C_9 
REMARK    5  A    between atoms: C_6  and  C_10 
ROOT
HETATM    1  N   UNK     0      11.401  14.265   3.283  0.00  0.00    -0.262 NA
HETATM    2  C   UNK     0      10.865  15.517   0.842  0.00  0.00     0.010 A 
HETATM    3  C   UNK     0      12.052  15.783   1.518  0.00  0.00    -0.006 A 
HETATM    4  C   UNK     0       9.947  14.626   1.386  0.00  0.00     0.099 A 
HETATM    5  C   UNK     0      10.259  14.032   2.598  0.00  0.00     0.064 A 
HETATM    6  C   UNK     0      12.270  15.137   2.724  0.00  0.00     0.127 A 
HETATM    7  C   UNK     0       9.308  13.066   3.225  0.00  0.00     0.073 C 
ENDROOT
BRANCH   2   8
HETATM    8  C   UNK     0      10.576  16.185  -0.464  0.00  0.00     0.206 C 
BRANCH   8   9
HETATM    9  O   UNK     0      10.190  15.203  -1.416  0.00  0.00    -0.396 OA
HETATM   10  H   UNK     0      10.595  14.363  -1.141  0.00  0.00     0.209 HD
ENDBRANCH   8   9
ENDBRANCH   2   8
BRANCH   3  11
HETATM   11  C   UNK     0      13.070  16.729   0.983  0.00  0.00     0.205 C 
BRANCH  11  12
HETATM   12  O   UNK     0      14.165  15.994   0.447  0.00  0.00    -0.396 OA
HETATM   13  H   UNK     0      14.210  16.160  -0.509  0.00  0.00     0.209 HD
ENDBRANCH  11  12
ENDBRANCH   3  11
BRANCH   4  14
HETATM   14  O   UNK     0       8.780  14.348   0.748  0.00  0.00    -0.358 OA
HETATM   15  H   UNK     0       8.720  13.409   0.513  0.00  0.00     0.218 HD
ENDBRANCH   4  14
TORSDOF 5
ENDMDL
MODEL 3
REMARK VINA RESULT:      -5.6      1.341      3.399
REMARK  5 active torsions:
REMARK  status: ('A' for Active; 'I' for Inactive)
REMARK    1  A    between atoms: O_1  and  C_7 
REMARK    2  A    between atoms: O_2  and  C_9 
REMARK    3  A    between atoms: O_3  and  C_10 
REMARK    4  A    between atoms: C_5  and  C_9 
REMARK    5  A    between atoms: C_6  and  C_10 
ROOT
HETATM    1  N   UNK     0      10.530  14.105   2.981  0.00  0.00    -0.262 NA
HETATM    2  C   UNK     0      12.161  15.789   1.458  0.00  0.00     0.010 A 
HETATM    3  C   UNK     0      10.914  15.404   0.978  0.00  0.00    -0.006 A 
HETATM    4  C   UNK     0      12.593  15.334   2.699  0.00  0.00     0.099 A 
HETATM    5  C   UNK     0      11.748  14.502   3.415  0.00  0.00     0.064 A 
HETATM    6  C   UNK     0      10.144  14.568   1.770  0.00  0.00     0.127 A 
HETATM    7  C   UNK     0      12.162  13.985   4.754  0.00  0.00     0.073 C 
ENDROOT
BRANCH   2   8
HETATM    8  C   UNK     0      13.035  16.691   0.647  0.00  0.00     0.206 C 
BRANCH   8   9
HETATM    9  O   UNK     0      14.237  16.006   0.318  0.00  0.00    -0.396 OA
HETATM   10  H   UNK     0      14.009  15.067   0.209  0.00  0.00     0.209 HD
ENDBRANCH   8   9
ENDBRANCH   2   8
BRANCH   3  11
HETATM   11  C   UNK     0      10.402  15.860  -0.344  0.00  0.00     0.205 C 
BRANCH  11  12
HETATM   12  O   UNK     0       9.114  15.298  -0.574  0.00  0.00    -0.396 OA
HETATM   13  H   UNK     0       8.524  15.573   0.147  0.00  0.00     0.209 HD
ENDBRANCH  11  12
ENDBRANCH   3  11
BRANCH   4  14
HETATM   14  O   UNK     0      13.806  15.694   3.194  0.00  0.00    -0.358 OA
HETATM   15  H   UNK     0      14.528  15.348   2.646  0.00  0.00     0.218 HD
ENDBRANCH   4  14
TORSDOF 5
ENDMDL
