MODEL 1
REMARK VINA RESULT:      -5.8      0.000      0.000
REMARK  5 active torsions:
REMARK  status: ('A' for Active; 'I' for Inactive)
REMARK    1  A    between atoms: O_1  and  C_7 
REMARK    2  A    between atoms: O_2  and  C_9 
REMARK    3  A    between atoms: O_3  and  C_10 
REMARK    4  A    between atoms: C_5  and  C_9 
REMARK    5  A    between atoms: C_6  and  C_10 
ROOT
HETATM    1  N   UNK     0     -21.825 -11.411  23.497  0.00  0.00    -0.262 NA
HETATM    2  C   UNK     0     -21.180 -12.667  25.909  0.00  0.00     0.010 A 
HETATM    3  C   UNK     0     -22.445 -12.829  25.354  0.00  0.00    -0.006 A 
HETATM    4  C   UNK     0     -20.237 -11.879  25.259  0.00  0.00     0.099 A 
HETATM    5  C   UNK     0     -20.605 -11.278  24.066  0.00  0.00     0.064 A 
HETATM    6  C   UNK     0     -22.715 -12.185  24.158  0.00  0.00     0.127 A 
HETATM    7  C   UNK     0     -19.631 -10.421  23.326  0.00  0.00     0.073 C 
ENDROOT
BRANCH   2   8
HETATM    8  C   UNK     0     -20.831 -13.338  27.199  0.00  0.00     0.206 C 
BRANCH   8   9
HETATM    9  O   UNK     0     -19.703 -14.181  26.999  0.00  0.00    -0.396 OA
HETATM   10  H   UNK     0     -19.390 -14.451  27.878  0.00  0.00     0.209 HD
ENDBRANCH   8   9
ENDBRANCH   2   8
BRANCH   3  11
HETATM   11  C   UNK     0     -23.493 -13.660  26.008  0.00  0.00     0.205 C 
BRANCH  11  12
HETATM   12  O   UNK     0     -24.236 -14.355  25.013  0.00  0.00    -0.396 OA
HETATM   13  H   UNK     0     -23.722 -15.129  24.726  0.00  0.00     0.209 HD
ENDBRANCH  11  12
ENDBRANCH   3  11
BRANCH   4  14
HETATM   14  O   UNK     0     -18.993 -11.703  25.778  0.00  0.00    -0.358 OA
HETATM   15  H   UNK     0     -18.972 -10.958  26.398  0.00  0.00     0.218 HD
ENDBRANCH   4  14
TORSDOF 5
ENDMDL
MODEL 2
REMARK VINA RESULT:      -5.5      1.570      3.525
REMARK  5 active torsions:
REMARK  status: ('A' for Active; 'I' for Inactive)
REMARK    1  A    between atoms: O_1  and  C_7 
REMARK    2  A    between atoms: O_2  and  C_9 
REMARK    3  A    between atoms: O_3  and  C_10 
REMARK    4  A    between atoms: C_5  and  C_9 
REMARK    5  A    between atoms: C_6  and  C_10 
ROOT
HETATM    1  N   UNK     0     -23.198 -11.894  23.810  0.00  0.00    -0.262 NA
HETATM    2  C   UNK     0     -21.131 -12.225  25.663  0.00  0.00     0.010 A 
HETATM    3  C   UNK     0     -20.900 -11.542  24.473  0.00  0.00    -0.006 A 
HETATM    4  C   UNK     0     -22.394 -12.742  25.927  0.00  0.00     0.099 A 
HETATM    5  C   UNK     0     -23.385 -12.552  24.978  0.00  0.00     0.064 A 
HETATM    6  C   UNK     0     -21.957 -11.406  23.589  0.00  0.00     0.127 A 
HETATM    7  C   UNK     0     -24.760 -13.086  25.211  0.00  0.00     0.073 C 
ENDROOT
BRANCH   2   8
HETATM    8  C   UNK     0     -20.028 -12.403  26.656  0.00  0.00     0.206 C 
BRANCH   8   9
HETATM    9  O   UNK     0     -19.710 -13.784  26.762  0.00  0.00    -0.396 OA
HETATM   10  H   UNK     0     -18.899 -13.850  27.294  0.00  0.00     0.209 HD
ENDBRANCH   8   9
ENDBRANCH   2   8
BRANCH   3  11
HETATM   11  C   UNK     0     -19.567 -10.968  24.138  0.00  0.00     0.205 C 
BRANCH  11  12
HETATM   12  O   UNK     0     -19.539 -10.606  22.762  0.00  0.00    -0.396 OA
HETATM   13  H   UNK     0     -18.851 -11.131  22.319  0.00  0.00     0.209 HD
ENDBRANCH  11  12
ENDBRANCH   3  11
BRANCH   4  14
HETATM   14  O   UNK     0     -22.648 -13.414  27.081  0.00  0.00    -0.358 OA
HETATM   15  H   UNK     0     -23.598 -13.435  27.276  0.00  0.00     0.218 HD
ENDBRANCH   4  14
TORSDOF 5
ENDMDL
MODEL 3
REMARK VINA RESULT:      -5.5      1.889      3.435
REMARK  5 active torsions:
REMARK  status: ('A' for Active; 'I' for Inactive)
REMARK    1  A    between atoms: O_1  and  C_7 
REMARK    2  A    between atoms: O_2  and  C_9 
REMARK    3  A    between atoms: O_3  and  C_10 
REMARK    4  A    between atoms: C_5  and  C_9 
REMARK    5  A    between atoms: C_6  and  C_10 
ROOT
HETATM    1  N   UNK     0     -23.015 -13.136  26.756  0.00  0.00    -0.262 NA
HETATM    2  C   UNK     0     -20.552 -12.209  25.813  0.00  0.00     0.010 A 
HETATM    3  C   UNK     0     -21.692 -12.091  25.024  0.00  0.00    -0.006 A 
HETATM    4  C   UNK     0     -20.643 -12.790  27.073  0.00  0.00     0.099 A 
HETATM    5  C   UNK     0     -21.886 -13.234  27.495  0.00  0.00     0.064 A 
HETATM    6  C   UNK     0     -22.887 -12.567  25.537  0.00  0.00     0.127 A 
HETATM    7  C   UNK     0     -22.040 -13.865  28.840  0.00  0.00     0.073 C 
ENDROOT
BRANCH   2   8
HETATM    8  C   UNK     0     -19.234 -11.714  25.312  0.00  0.00     0.206 C 
BRANCH   8   9
HETATM    9  O   UNK     0     -18.611 -10.935  26.325  0.00  0.00    -0.396 OA
HETATM   10  H   UNK     0     -19.321 -10.547  26.864  0.00  0.00     0.209 HD
ENDBRANCH   8   9
ENDBRANCH   2   8
BRANCH   3  11
HETATM   11  C   UNK     0     -21.652 -11.479  23.667  0.00  0.00     0.205 C 
BRANCH  11  12
HETATM   12  O   UNK     0     -22.653 -12.074  22.849  0.00  0.00    -0.396 OA
HETATM   13  H   UNK     0     -23.525 -11.841  23.209  0.00  0.00     0.209 HD
ENDBRANCH  11  12
ENDBRANCH   3  11
BRANCH   4  14
HETATM   14  O   UNK     0     -19.547 -12.919  27.865  0.00  0.00    -0.358 OA
HETATM   15  H   UNK     0     -18.871 -12.259  27.644  0.00  0.00     0.218 HD
ENDBRANCH   4  14
TORSDOF 5
ENDMDL
