MODEL 1
REMARK VINA RESULT:      -5.0      0.000      0.000
REMARK  5 active torsions:
REMARK  status: ('A' for Active; 'I' for Inactive)
REMARK    1  A    between atoms: O_1  and  C_7 
REMARK    2  A    between atoms: O_2  and  C_9 
REMARK    3  A    between atoms: O_3  and  C_10 
REMARK    4  A    between atoms: C_5  and  C_9 
REMARK    5  A    between atoms: C_6  and  C_10 
ROOT
HETATM    1  N   UNK     0     -40.634  48.761  15.107  0.00  0.00    -0.262 NA
HETATM    2  C   UNK     0     -38.213  49.529  16.275  0.00  0.00     0.010 A 
HETATM    3  C   UNK     0     -38.835  48.349  16.669  0.00  0.00    -0.006 A 
HETATM    4  C   UNK     0     -38.801  50.325  15.298  0.00  0.00     0.099 A 
HETATM    5  C   UNK     0     -40.000  49.901  14.750  0.00  0.00     0.064 A 
HETATM    6  C   UNK     0     -40.033  48.013  16.060  0.00  0.00     0.127 A 
HETATM    7  C   UNK     0     -40.673  50.718  13.696  0.00  0.00     0.073 C 
ENDROOT
BRANCH   2   8
HETATM    8  C   UNK     0     -36.918  49.942  16.897  0.00  0.00     0.206 C 
BRANCH   8   9
HETATM    9  O   UNK     0     -35.881  49.843  15.929  0.00  0.00    -0.396 OA
HETATM   10  H   UNK     0     -35.878  48.926  15.607  0.00  0.00     0.209 HD
ENDBRANCH   8   9
ENDBRANCH   2   8
BRANCH   3  11
HETATM   11  C   UNK     0     -38.252  47.459  17.711  0.00  0.00     0.205 C 
BRANCH  11  12
HETATM   12  O   UNK     0     -37.433  46.474  17.090  0.00  0.00    -0.396 OA
HETATM   13  H   UNK     0     -36.616  46.381  17.607  0.00  0.00     0.209 HD
ENDBRANCH  11  12
ENDBRANCH   3  11
BRANCH   4  14
HETATM   14  O   UNK     0     -38.216  51.484  14.894  0.00  0.00    -0.358 OA
HETATM   15  H   UNK     0     -37.371  51.316  14.448  0.00  0.00     0.218 HD
ENDBRANCH   4  14
TORSDOF 5
ENDMDL
MODEL 2
REMARK VINA RESULT:      -4.8      1.763      2.942
REMARK  5 active torsions:
REMARK  status: ('A' for Active; 'I' for Inactive)
REMARK    1  A    between atoms: O_1  and  C_7 
REMARK    2  A    between atoms: O_2  and  C_9 
REMARK    3  A    between atoms: O_3  and  C_10 
REMARK    4  A    between atoms: C_5  and  C_9 
REMARK    5  A    between atoms: C_6  and  C_10 
ROOT
HETATM    1  N   UNK     0     -39.393  50.382  14.956  0.00  0.00    -0.262 NA
HETATM    2  C   UNK     0     -38.776  48.314  16.733  0.00  0.00     0.010 A 
HETATM    3  C   UNK     0     -39.943  48.261  15.979  0.00  0.00    -0.006 A 
HETATM    4  C   UNK     0     -37.917  49.399  16.600  0.00  0.00     0.099 A 
HETATM    5  C   UNK     0     -38.267  50.398  15.706  0.00  0.00     0.064 A 
HETATM    6  C   UNK     0     -40.203  49.311  15.113  0.00  0.00     0.127 A 
HETATM    7  C   UNK     0     -37.380  51.586  15.524  0.00  0.00     0.073 C 
ENDROOT
BRANCH   2   8
HETATM    8  C   UNK     0     -38.443  47.209  17.684  0.00  0.00     0.206 C 
BRANCH   8   9
HETATM    9  O   UNK     0     -37.343  46.467  17.173  0.00  0.00    -0.396 OA
HETATM   10  H   UNK     0     -36.607  46.583  17.797  0.00  0.00     0.209 HD
ENDBRANCH   8   9
ENDBRANCH   2   8
BRANCH   3  11
HETATM   11  C   UNK     0     -40.899  47.124  16.082  0.00  0.00     0.205 C 
BRANCH  11  12
HETATM   12  O   UNK     0     -41.745  47.110  14.937  0.00  0.00    -0.396 OA
HETATM   13  H   UNK     0     -41.684  46.236  14.518  0.00  0.00     0.209 HD
ENDBRANCH  11  12
ENDBRANCH   3  11
BRANCH   4  14
HETATM   14  O   UNK     0     -36.770  49.478  17.325  0.00  0.00    -0.358 OA
HETATM   15  H   UNK     0     -36.932  49.294  18.264  0.00  0.00     0.218 HD
ENDBRANCH   4  14
TORSDOF 5
ENDMDL
MODEL 3
REMARK VINA RESULT:      -4.7      1.606      2.915
REMARK  5 active torsions:
REMARK  status: ('A' for Active; 'I' for Inactive)
REMARK    1  A    between atoms: O_1  and  C_7 
REMARK    2  A    between atoms: O_2  and  C_9 
REMARK    3  A    between atoms: O_3  and  C_10 
REMARK    4  A    between atoms: C_5  and  C_9 
REMARK    5  A    between atoms: C_6  and  C_10 
ROOT
HETATM    1  N   UNK     0     -39.413  50.969  14.139  0.00  0.00    -0.262 NA
HETATM    2  C   UNK     0     -38.889  49.057  16.109  0.00  0.00     0.010 A 
HETATM    3  C   UNK     0     -38.006  50.113  15.909  0.00  0.00    -0.006 A 
HETATM    4  C   UNK     0     -40.033  48.956  15.325  0.00  0.00     0.099 A 
HETATM    5  C   UNK     0     -40.248  49.928  14.362  0.00  0.00     0.064 A 
HETATM    6  C   UNK     0     -38.311  51.033  14.920  0.00  0.00     0.127 A 
HETATM    7  C   UNK     0     -41.461  49.869  13.494  0.00  0.00     0.073 C 
ENDROOT
BRANCH   2   8
HETATM    8  C   UNK     0     -38.613  48.033  17.164  0.00  0.00     0.206 C 
BRANCH   8   9
HETATM    9  O   UNK     0     -38.389  46.773  16.546  0.00  0.00    -0.396 OA
HETATM   10  H   UNK     0     -37.615  46.376  16.980  0.00  0.00     0.209 HD
ENDBRANCH   8   9
ENDBRANCH   2   8
BRANCH   3  11
HETATM   11  C   UNK     0     -36.766  50.270  16.718  0.00  0.00     0.205 C 
BRANCH  11  12
HETATM   12  O   UNK     0     -35.630  50.015  15.900  0.00  0.00    -0.396 OA
HETATM   13  H   UNK     0     -34.833  50.066  16.453  0.00  0.00     0.209 HD
ENDBRANCH  11  12
ENDBRANCH   3  11
BRANCH   4  14
HETATM   14  O   UNK     0     -40.913  47.935  15.499  0.00  0.00    -0.358 OA
HETATM   15  H   UNK     0     -40.656  47.370  16.244  0.00  0.00     0.218 HD
ENDBRANCH   4  14
TORSDOF 5
ENDMDL
