MODEL 1
REMARK VINA RESULT:      -5.9      0.000      0.000
REMARK  5 active torsions:
REMARK  status: ('A' for Active; 'I' for Inactive)
REMARK    1  A    between atoms: O_1  and  C_7 
REMARK    2  A    between atoms: O_2  and  C_9 
REMARK    3  A    between atoms: O_3  and  C_10 
REMARK    4  A    between atoms: C_5  and  C_9 
REMARK    5  A    between atoms: C_6  and  C_10 
ROOT
HETATM    1  N   UNK     0       3.774   7.920  19.050  0.00  0.00    -0.262 NA
HETATM    2  C   UNK     0       1.430   6.399  18.967  0.00  0.00     0.010 A 
HETATM    3  C   UNK     0       2.518   5.964  19.717  0.00  0.00    -0.006 A 
HETATM    4  C   UNK     0       1.513   7.593  18.259  0.00  0.00     0.099 A 
HETATM    5  C   UNK     0       2.695   8.310  18.333  0.00  0.00     0.064 A 
HETATM    6  C   UNK     0       3.656   6.754  19.725  0.00  0.00     0.127 A 
HETATM    7  C   UNK     0       2.837   9.600  17.593  0.00  0.00     0.073 C 
ENDROOT
BRANCH   2   8
HETATM    8  C   UNK     0       0.175   5.588  18.922  0.00  0.00     0.206 C 
BRANCH   8   9
HETATM    9  O   UNK     0      -0.937   6.429  19.202  0.00  0.00    -0.396 OA
HETATM   10  H   UNK     0      -1.452   5.995  19.903  0.00  0.00     0.209 HD
ENDBRANCH   8   9
ENDBRANCH   2   8
BRANCH   3  11
HETATM   11  C   UNK     0       2.486   4.694  20.493  0.00  0.00     0.205 C 
BRANCH  11  12
HETATM   12  O   UNK     0       2.755   3.600  19.624  0.00  0.00    -0.396 OA
HETATM   13  H   UNK     0       2.447   3.831  18.731  0.00  0.00     0.209 HD
ENDBRANCH  11  12
ENDBRANCH   3  11
BRANCH   4  14
HETATM   14  O   UNK     0       0.465   8.041  17.518  0.00  0.00    -0.358 OA
HETATM   15  H   UNK     0       0.177   8.920  17.809  0.00  0.00     0.218 HD
ENDBRANCH   4  14
TORSDOF 5
ENDMDL
MODEL 2
REMARK VINA RESULT:      -5.5      1.444      3.570
REMARK  5 active torsions:
REMARK  status: ('A' for Active; 'I' for Inactive)
REMARK    1  A    between atoms: O_1  and  C_7 
REMARK    2  A    between atoms: O_2  and  C_9 
REMARK    3  A    between atoms: O_3  and  C_10 
REMARK    4  A    between atoms: C_5  and  C_9 
REMARK    5  A    between atoms: C_6  and  C_10 
ROOT
HETATM    1  N   UNK     0       4.172   7.612  20.470  0.00  0.00    -0.262 NA
HETATM    2  C   UNK     0       2.083   6.667  18.871  0.00  0.00     0.010 A 
HETATM    3  C   UNK     0       2.816   7.781  18.476  0.00  0.00    -0.006 A 
HETATM    4  C   UNK     0       2.394   6.025  20.064  0.00  0.00     0.099 A 
HETATM    5  C   UNK     0       3.437   6.531  20.821  0.00  0.00     0.064 A 
HETATM    6  C   UNK     0       3.840   8.210  19.304  0.00  0.00     0.127 A 
HETATM    7  C   UNK     0       3.813   5.879  22.111  0.00  0.00     0.073 C 
ENDROOT
BRANCH   2   8
HETATM    8  C   UNK     0       0.967   6.158  18.017  0.00  0.00     0.206 C 
BRANCH   8   9
HETATM    9  O   UNK     0      -0.271   6.396  18.674  0.00  0.00    -0.396 OA
HETATM   10  H   UNK     0      -0.973   6.274  18.012  0.00  0.00     0.209 HD
ENDBRANCH   8   9
ENDBRANCH   2   8
BRANCH   3  11
HETATM   11  C   UNK     0       2.527   8.508  17.209  0.00  0.00     0.205 C 
BRANCH  11  12
HETATM   12  O   UNK     0       2.035   9.810  17.510  0.00  0.00    -0.396 OA
HETATM   13  H   UNK     0       1.069   9.806  17.407  0.00  0.00     0.209 HD
ENDBRANCH  11  12
ENDBRANCH   3  11
BRANCH   4  14
HETATM   14  O   UNK     0       1.694   4.934  20.475  0.00  0.00    -0.358 OA
HETATM   15  H   UNK     0       1.843   4.753  21.416  0.00  0.00     0.218 HD
ENDBRANCH   4  14
TORSDOF 5
ENDMDL
MODEL 3
REMARK VINA RESULT:      -5.4      1.911      3.390
REMARK  5 active torsions:
REMARK  status: ('A' for Active; 'I' for Inactive)
REMARK    1  A    between atoms: O_1  and  C_7 
REMARK    2  A    between atoms: O_2  and  C_9 
REMARK    3  A    between atoms: O_3  and  C_10 
REMARK    4  A    between atoms: C_5  and  C_9 
REMARK    5  A    between atoms: C_6  and  C_10 
ROOT
HETATM    1  N   UNK     0       3.218   5.976  21.094  0.00  0.00    -0.262 NA
HETATM    2  C   UNK     0       2.666   7.364  18.732  0.00  0.00     0.010 A 
HETATM    3  C   UNK     0       1.850   6.310  19.130  0.00  0.00    -0.006 A 
HETATM    4  C   UNK     0       3.757   7.724  19.514  0.00  0.00     0.099 A 
HETATM    5  C   UNK     0       3.989   7.006  20.676  0.00  0.00     0.064 A 
HETATM    6  C   UNK     0       2.167   5.654  20.308  0.00  0.00     0.127 A 
HETATM    7  C   UNK     0       5.147   7.351  21.553  0.00  0.00     0.073 C 
ENDROOT
BRANCH   2   8
HETATM    8  C   UNK     0       2.372   8.110  17.470  0.00  0.00     0.206 C 
BRANCH   8   9
HETATM    9  O   UNK     0       1.853   9.393  17.793  0.00  0.00    -0.396 OA
HETATM   10  H   UNK     0       1.300   9.285  18.586  0.00  0.00     0.209 HD
ENDBRANCH   8   9
ENDBRANCH   2   8
BRANCH   3  11
HETATM   11  C   UNK     0       0.669   5.881  18.331  0.00  0.00     0.205 C 
BRANCH  11  12
HETATM   12  O   UNK     0      -0.505   6.493  18.853  0.00  0.00    -0.396 OA
HETATM   13  H   UNK     0      -0.858   5.930  19.562  0.00  0.00     0.209 HD
ENDBRANCH  11  12
ENDBRANCH   3  11
BRANCH   4  14
HETATM   14  O   UNK     0       4.572   8.749  19.150  0.00  0.00    -0.358 OA
HETATM   15  H   UNK     0       4.673   8.795  18.187  0.00  0.00     0.218 HD
ENDBRANCH   4  14
TORSDOF 5
ENDMDL
