MODEL 1
REMARK VINA RESULT:      -5.8      0.000      0.000
REMARK  5 active torsions:
REMARK  status: ('A' for Active; 'I' for Inactive)
REMARK    1  A    between atoms: O_1  and  C_7 
REMARK    2  A    between atoms: O_2  and  C_9 
REMARK    3  A    between atoms: O_3  and  C_10 
REMARK    4  A    between atoms: C_5  and  C_9 
REMARK    5  A    between atoms: C_6  and  C_10 
ROOT
HETATM    1  N   UNK     0      31.247  18.419   1.386  0.00  0.00    -0.262 NA
HETATM    2  C   UNK     0      32.682  19.664   3.436  0.00  0.00     0.010 A 
HETATM    3  C   UNK     0      31.305  19.499   3.548  0.00  0.00    -0.006 A 
HETATM    4  C   UNK     0      33.342  19.206   2.301  0.00  0.00     0.099 A 
HETATM    5  C   UNK     0      32.586  18.596   1.313  0.00  0.00     0.064 A 
HETATM    6  C   UNK     0      30.641  18.877   2.504  0.00  0.00     0.127 A 
HETATM    7  C   UNK     0      33.245  18.086   0.074  0.00  0.00     0.073 C 
ENDROOT
BRANCH   2   8
HETATM    8  C   UNK     0      33.452  20.328   4.532  0.00  0.00     0.206 C 
BRANCH   8   9
HETATM    9  O   UNK     0      34.075  19.335   5.335  0.00  0.00    -0.396 OA
HETATM   10  H   UNK     0      34.588  18.765   4.737  0.00  0.00     0.209 HD
ENDBRANCH   8   9
ENDBRANCH   2   8
BRANCH   3  11
HETATM   11  C   UNK     0      30.547  19.971   4.740  0.00  0.00     0.205 C 
BRANCH  11  12
HETATM   12  O   UNK     0      29.598  18.981   5.120  0.00  0.00    -0.396 OA
HETATM   13  H   UNK     0      29.300  18.516   4.321  0.00  0.00     0.209 HD
ENDBRANCH  11  12
ENDBRANCH   3  11
BRANCH   4  14
HETATM   14  O   UNK     0      34.686  19.354   2.165  0.00  0.00    -0.358 OA
HETATM   15  H   UNK     0      35.113  19.507   3.023  0.00  0.00     0.218 HD
ENDBRANCH   4  14
TORSDOF 5
ENDMDL
MODEL 2
REMARK VINA RESULT:      -5.7      2.322      4.722
REMARK  5 active torsions:
REMARK  status: ('A' for Active; 'I' for Inactive)
REMARK    1  A    between atoms: O_1  and  C_7 
REMARK    2  A    between atoms: O_2  and  C_9 
REMARK    3  A    between atoms: O_3  and  C_10 
REMARK    4  A    between atoms: C_5  and  C_9 
REMARK    5  A    between atoms: C_6  and  C_10 
ROOT
HETATM    1  N   UNK     0      33.685  19.293   1.970  0.00  0.00    -0.262 NA
HETATM    2  C   UNK     0      31.300  18.088   1.147  0.00  0.00     0.010 A 
HETATM    3  C   UNK     0      32.481  17.847   0.452  0.00  0.00    -0.006 A 
HETATM    4  C   UNK     0      31.311  18.930   2.254  0.00  0.00     0.099 A 
HETATM    5  C   UNK     0      32.517  19.503   2.621  0.00  0.00     0.064 A 
HETATM    6  C   UNK     0      33.635  18.469   0.899  0.00  0.00     0.127 A 
HETATM    7  C   UNK     0      32.586  20.415   3.802  0.00  0.00     0.073 C 
ENDROOT
BRANCH   2   8
HETATM    8  C   UNK     0      30.024  17.443   0.711  0.00  0.00     0.206 C 
BRANCH   8   9
HETATM    9  O   UNK     0      29.522  16.634   1.766  0.00  0.00    -0.396 OA
HETATM   10  H   UNK     0      28.659  16.292   1.478  0.00  0.00     0.209 HD
ENDBRANCH   8   9
ENDBRANCH   2   8
BRANCH   3  11
HETATM   11  C   UNK     0      32.527  16.955  -0.740  0.00  0.00     0.205 C 
BRANCH  11  12
HETATM   12  O   UNK     0      33.773  16.267  -0.769  0.00  0.00    -0.396 OA
HETATM   13  H   UNK     0      33.797  15.641  -0.025  0.00  0.00     0.209 HD
ENDBRANCH  11  12
ENDBRANCH   3  11
BRANCH   4  14
HETATM   14  O   UNK     0      30.173  19.183   2.951  0.00  0.00    -0.358 OA
HETATM   15  H   UNK     0      30.199  20.061   3.364  0.00  0.00     0.218 HD
ENDBRANCH   4  14
TORSDOF 5
ENDMDL
MODEL 3
REMARK VINA RESULT:      -5.3      2.448      3.903
REMARK  5 active torsions:
REMARK  status: ('A' for Active; 'I' for Inactive)
REMARK    1  A    between atoms: O_1  and  C_7 
REMARK    2  A    between atoms: O_2  and  C_9 
REMARK    3  A    between atoms: O_3  and  C_10 
REMARK    4  A    between atoms: C_5  and  C_9 
REMARK    5  A    between atoms: C_6  and  C_10 
ROOT
HETATM    1  N   UNK     0      31.543  19.296   2.598  0.00  0.00    -0.262 NA
HETATM    2  C   UNK     0      32.258  17.736   0.391  0.00  0.00     0.010 A 
HETATM    3  C   UNK     0      30.938  17.761   0.830  0.00  0.00    -0.006 A 
HETATM    4  C   UNK     0      33.220  18.491   1.053  0.00  0.00     0.099 A 
HETATM    5  C   UNK     0      32.815  19.247   2.141  0.00  0.00     0.064 A 
HETATM    6  C   UNK     0      30.636  18.549   1.929  0.00  0.00     0.127 A 
HETATM    7  C   UNK     0      33.807  20.077   2.888  0.00  0.00     0.073 C 
ENDROOT
BRANCH   2   8
HETATM    8  C   UNK     0      32.643  16.904  -0.790  0.00  0.00     0.206 C 
BRANCH   8   9
HETATM    9  O   UNK     0      33.792  16.133  -0.465  0.00  0.00    -0.396 OA
HETATM   10  H   UNK     0      34.227  16.572   0.286  0.00  0.00     0.209 HD
ENDBRANCH   8   9
ENDBRANCH   2   8
BRANCH   3  11
HETATM   11  C   UNK     0      29.868  16.972   0.160  0.00  0.00     0.205 C 
BRANCH  11  12
HETATM   12  O   UNK     0      28.996  16.424   1.142  0.00  0.00    -0.396 OA
HETATM   13  H   UNK     0      29.535  16.048   1.858  0.00  0.00     0.209 HD
ENDBRANCH  11  12
ENDBRANCH   3  11
BRANCH   4  14
HETATM   14  O   UNK     0      34.516  18.486   0.646  0.00  0.00    -0.358 OA
HETATM   15  H   UNK     0      34.642  19.043  -0.138  0.00  0.00     0.218 HD
ENDBRANCH   4  14
TORSDOF 5
ENDMDL
