MODEL 1
REMARK VINA RESULT:      -5.1      0.000      0.000
REMARK  5 active torsions:
REMARK  status: ('A' for Active; 'I' for Inactive)
REMARK    1  A    between atoms: O_1  and  C_7 
REMARK    2  A    between atoms: O_2  and  C_9 
REMARK    3  A    between atoms: O_3  and  C_10 
REMARK    4  A    between atoms: C_5  and  C_9 
REMARK    5  A    between atoms: C_6  and  C_10 
ROOT
HETATM    1  N   UNK     0      20.783  57.132  25.555  0.00  0.00    -0.262 NA
HETATM    2  C   UNK     0      20.142  54.837  24.093  0.00  0.00     0.010 A 
HETATM    3  C   UNK     0      19.977  54.854  25.474  0.00  0.00    -0.006 A 
HETATM    4  C   UNK     0      20.627  55.966  23.443  0.00  0.00     0.099 A 
HETATM    5  C   UNK     0      20.930  57.078  24.211  0.00  0.00     0.064 A 
HETATM    6  C   UNK     0      20.309  56.015  26.152  0.00  0.00     0.127 A 
HETATM    7  C   UNK     0      21.453  58.318  23.563  0.00  0.00     0.073 C 
ENDROOT
BRANCH   2   8
HETATM    8  C   UNK     0      19.800  53.611  23.308  0.00  0.00     0.206 C 
BRANCH   8   9
HETATM    9  O   UNK     0      20.998  52.976  22.884  0.00  0.00    -0.396 OA
HETATM   10  H   UNK     0      21.293  52.406  23.614  0.00  0.00     0.209 HD
ENDBRANCH   8   9
ENDBRANCH   2   8
BRANCH   3  11
HETATM   11  C   UNK     0      19.463  53.673  26.222  0.00  0.00     0.205 C 
BRANCH  11  12
HETATM   12  O   UNK     0      20.545  52.806  26.542  0.00  0.00    -0.396 OA
HETATM   13  H   UNK     0      21.377  53.296  26.433  0.00  0.00     0.209 HD
ENDBRANCH  11  12
ENDBRANCH   3  11
BRANCH   4  14
HETATM   14  O   UNK     0      20.799  55.978  22.095  0.00  0.00    -0.358 OA
HETATM   15  H   UNK     0      21.653  56.369  21.851  0.00  0.00     0.218 HD
ENDBRANCH   4  14
TORSDOF 5
ENDMDL
MODEL 2
REMARK VINA RESULT:      -5.0      5.179      6.247
REMARK  5 active torsions:
REMARK  status: ('A' for Active; 'I' for Inactive)
REMARK    1  A    between atoms: O_1  and  C_7 
REMARK    2  A    between atoms: O_2  and  C_9 
REMARK    3  A    between atoms: O_3  and  C_10 
REMARK    4  A    between atoms: C_5  and  C_9 
REMARK    5  A    between atoms: C_6  and  C_10 
ROOT
HETATM    1  N   UNK     0      14.003  54.053  27.003  0.00  0.00    -0.262 NA
HETATM    2  C   UNK     0      15.620  53.538  24.782  0.00  0.00     0.010 A 
HETATM    3  C   UNK     0      14.252  53.292  24.722  0.00  0.00    -0.006 A 
HETATM    4  C   UNK     0      16.180  54.041  25.951  0.00  0.00     0.099 A 
HETATM    5  C   UNK     0      15.337  54.280  27.024  0.00  0.00     0.064 A 
HETATM    6  C   UNK     0      13.495  53.564  25.850  0.00  0.00     0.127 A 
HETATM    7  C   UNK     0      15.886  54.821  28.303  0.00  0.00     0.073 C 
ENDROOT
BRANCH   2   8
HETATM    8  C   UNK     0      16.487  53.264  23.595  0.00  0.00     0.206 C 
BRANCH   8   9
HETATM    9  O   UNK     0      17.329  52.154  23.876  0.00  0.00    -0.396 OA
HETATM   10  H   UNK     0      16.809  51.351  23.703  0.00  0.00     0.209 HD
ENDBRANCH   8   9
ENDBRANCH   2   8
BRANCH   3  11
HETATM   11  C   UNK     0      13.599  52.753  23.497  0.00  0.00     0.205 C 
BRANCH  11  12
HETATM   12  O   UNK     0      13.621  51.330  23.535  0.00  0.00    -0.396 OA
HETATM   13  H   UNK     0      13.737  50.999  22.629  0.00  0.00     0.209 HD
ENDBRANCH  11  12
ENDBRANCH   3  11
BRANCH   4  14
HETATM   14  O   UNK     0      17.513  54.290  26.038  0.00  0.00    -0.358 OA
HETATM   15  H   UNK     0      17.721  55.199  25.772  0.00  0.00     0.218 HD
ENDBRANCH   4  14
TORSDOF 5
ENDMDL
MODEL 3
REMARK VINA RESULT:      -5.0      3.431      4.400
REMARK  5 active torsions:
REMARK  status: ('A' for Active; 'I' for Inactive)
REMARK    1  A    between atoms: O_1  and  C_7 
REMARK    2  A    between atoms: O_2  and  C_9 
REMARK    3  A    between atoms: O_3  and  C_10 
REMARK    4  A    between atoms: C_5  and  C_9 
REMARK    5  A    between atoms: C_6  and  C_10 
ROOT
HETATM    1  N   UNK     0      20.241  60.398  24.597  0.00  0.00    -0.262 NA
HETATM    2  C   UNK     0      20.631  58.173  22.951  0.00  0.00     0.010 A 
HETATM    3  C   UNK     0      21.662  58.626  23.768  0.00  0.00    -0.006 A 
HETATM    4  C   UNK     0      19.406  58.831  22.957  0.00  0.00     0.099 A 
HETATM    5  C   UNK     0      19.263  59.928  23.789  0.00  0.00     0.064 A 
HETATM    6  C   UNK     0      21.418  59.734  24.564  0.00  0.00     0.127 A 
HETATM    7  C   UNK     0      17.968  60.671  23.835  0.00  0.00     0.073 C 
ENDROOT
BRANCH   2   8
HETATM    8  C   UNK     0      20.836  56.982  22.071  0.00  0.00     0.206 C 
BRANCH   8   9
HETATM    9  O   UNK     0      19.888  55.979  22.411  0.00  0.00    -0.396 OA
HETATM   10  H   UNK     0      19.512  55.647  21.577  0.00  0.00     0.209 HD
ENDBRANCH   8   9
ENDBRANCH   2   8
BRANCH   3  11
HETATM   11  C   UNK     0      22.994  57.961  23.801  0.00  0.00     0.205 C 
BRANCH  11  12
HETATM   12  O   UNK     0      24.010  58.920  23.527  0.00  0.00    -0.396 OA
HETATM   13  H   UNK     0      23.613  59.658  23.036  0.00  0.00     0.209 HD
ENDBRANCH  11  12
ENDBRANCH   3  11
BRANCH   4  14
HETATM   14  O   UNK     0      18.382  58.409  22.169  0.00  0.00    -0.358 OA
HETATM   15  H   UNK     0      18.581  58.543  21.229  0.00  0.00     0.218 HD
ENDBRANCH   4  14
TORSDOF 5
ENDMDL
