MODEL 1
REMARK VINA RESULT:      -5.7      0.000      0.000
REMARK  5 active torsions:
REMARK  status: ('A' for Active; 'I' for Inactive)
REMARK    1  A    between atoms: O_1  and  C_7 
REMARK    2  A    between atoms: O_2  and  C_9 
REMARK    3  A    between atoms: O_3  and  C_10 
REMARK    4  A    between atoms: C_5  and  C_9 
REMARK    5  A    between atoms: C_6  and  C_10 
ROOT
HETATM    1  N   UNK     0      34.514  35.565  51.469  0.00  0.00    -0.262 NA
HETATM    2  C   UNK     0      32.923  36.910  53.333  0.00  0.00     0.010 A 
HETATM    3  C   UNK     0      32.375  36.478  52.129  0.00  0.00    -0.006 A 
HETATM    4  C   UNK     0      34.265  36.670  53.605  0.00  0.00     0.099 A 
HETATM    5  C   UNK     0      35.012  36.000  52.650  0.00  0.00     0.064 A 
HETATM    6  C   UNK     0      33.206  35.817  51.240  0.00  0.00     0.127 A 
HETATM    7  C   UNK     0      36.458  35.715  52.892  0.00  0.00     0.073 C 
ENDROOT
BRANCH   2   8
HETATM    8  C   UNK     0      32.074  37.628  54.332  0.00  0.00     0.206 C 
BRANCH   8   9
HETATM    9  O   UNK     0      32.064  36.896  55.550  0.00  0.00    -0.396 OA
HETATM   10  H   UNK     0      32.697  37.328  56.148  0.00  0.00     0.209 HD
ENDBRANCH   8   9
ENDBRANCH   2   8
BRANCH   3  11
HETATM   11  C   UNK     0      30.945  36.708  51.785  0.00  0.00     0.205 C 
BRANCH  11  12
HETATM   12  O   UNK     0      30.737  36.425  50.406  0.00  0.00    -0.396 OA
HETATM   13  H   UNK     0      30.882  35.476  50.260  0.00  0.00     0.209 HD
ENDBRANCH  11  12
ENDBRANCH   3  11
BRANCH   4  14
HETATM   14  O   UNK     0      34.827  37.081  54.772  0.00  0.00    -0.358 OA
HETATM   15  H   UNK     0      34.856  38.048  54.829  0.00  0.00     0.218 HD
ENDBRANCH   4  14
TORSDOF 5
ENDMDL
MODEL 2
REMARK VINA RESULT:      -5.4      1.889      3.063
REMARK  5 active torsions:
REMARK  status: ('A' for Active; 'I' for Inactive)
REMARK    1  A    between atoms: O_1  and  C_7 
REMARK    2  A    between atoms: O_2  and  C_9 
REMARK    3  A    between atoms: O_3  and  C_10 
REMARK    4  A    between atoms: C_5  and  C_9 
REMARK    5  A    between atoms: C_6  and  C_10 
ROOT
HETATM    1  N   UNK     0      34.665  36.748  53.701  0.00  0.00    -0.262 NA
HETATM    2  C   UNK     0      33.037  35.988  51.559  0.00  0.00     0.010 A 
HETATM    3  C   UNK     0      32.515  36.757  52.594  0.00  0.00    -0.006 A 
HETATM    4  C   UNK     0      34.372  35.599  51.594  0.00  0.00     0.099 A 
HETATM    5  C   UNK     0      35.137  36.001  52.677  0.00  0.00     0.064 A 
HETATM    6  C   UNK     0      33.363  37.106  53.633  0.00  0.00     0.127 A 
HETATM    7  C   UNK     0      36.576  35.612  52.764  0.00  0.00     0.073 C 
ENDROOT
BRANCH   2   8
HETATM    8  C   UNK     0      32.170  35.581  50.412  0.00  0.00     0.206 C 
BRANCH   8   9
HETATM    9  O   UNK     0      31.947  34.178  50.468  0.00  0.00    -0.396 OA
HETATM   10  H   UNK     0      32.714  33.785  50.917  0.00  0.00     0.209 HD
ENDBRANCH   8   9
ENDBRANCH   2   8
BRANCH   3  11
HETATM   11  C   UNK     0      31.094  37.200  52.609  0.00  0.00     0.205 C 
BRANCH  11  12
HETATM   12  O   UNK     0      30.589  37.132  53.938  0.00  0.00    -0.396 OA
HETATM   13  H   UNK     0      31.341  37.079  54.552  0.00  0.00     0.209 HD
ENDBRANCH  11  12
ENDBRANCH   3  11
BRANCH   4  14
HETATM   14  O   UNK     0      34.908  34.847  50.597  0.00  0.00    -0.358 OA
HETATM   15  H   UNK     0      35.581  34.237  50.937  0.00  0.00     0.218 HD
ENDBRANCH   4  14
TORSDOF 5
ENDMDL
MODEL 3
REMARK VINA RESULT:      -5.2      1.792      3.337
REMARK  5 active torsions:
REMARK  status: ('A' for Active; 'I' for Inactive)
REMARK    1  A    between atoms: O_1  and  C_7 
REMARK    2  A    between atoms: O_2  and  C_9 
REMARK    3  A    between atoms: O_3  and  C_10 
REMARK    4  A    between atoms: C_5  and  C_9 
REMARK    5  A    between atoms: C_6  and  C_10 
ROOT
HETATM    1  N   UNK     0      31.226  36.294  51.163  0.00  0.00    -0.262 NA
HETATM    2  C   UNK     0      33.551  36.597  52.686  0.00  0.00     0.010 A 
HETATM    3  C   UNK     0      32.370  37.216  53.083  0.00  0.00    -0.006 A 
HETATM    4  C   UNK     0      33.570  35.827  51.528  0.00  0.00     0.099 A 
HETATM    5  C   UNK     0      32.393  35.707  50.809  0.00  0.00     0.064 A 
HETATM    6  C   UNK     0      31.246  37.035  52.293  0.00  0.00     0.127 A 
HETATM    7  C   UNK     0      32.358  34.891  49.558  0.00  0.00     0.073 C 
ENDROOT
BRANCH   2   8
HETATM    8  C   UNK     0      34.795  36.757  53.499  0.00  0.00     0.206 C 
BRANCH   8   9
HETATM    9  O   UNK     0      34.496  36.511  54.866  0.00  0.00    -0.396 OA
HETATM   10  H   UNK     0      35.231  36.875  55.389  0.00  0.00     0.209 HD
ENDBRANCH   8   9
ENDBRANCH   2   8
BRANCH   3  11
HETATM   11  C   UNK     0      32.292  38.053  54.312  0.00  0.00     0.205 C 
BRANCH  11  12
HETATM   12  O   UNK     0      31.801  37.266  55.391  0.00  0.00    -0.396 OA
HETATM   13  H   UNK     0      32.493  37.208  56.072  0.00  0.00     0.209 HD
ENDBRANCH  11  12
ENDBRANCH   3  11
BRANCH   4  14
HETATM   14  O   UNK     0      34.710  35.211  51.116  0.00  0.00    -0.358 OA
HETATM   15  H   UNK     0      34.796  34.329  51.509  0.00  0.00     0.218 HD
ENDBRANCH   4  14
TORSDOF 5
ENDMDL
