MODEL 1
REMARK VINA RESULT:      -5.7      0.000      0.000
REMARK  5 active torsions:
REMARK  status: ('A' for Active; 'I' for Inactive)
REMARK    1  A    between atoms: O_1  and  C_7 
REMARK    2  A    between atoms: O_2  and  C_9 
REMARK    3  A    between atoms: O_3  and  C_10 
REMARK    4  A    between atoms: C_5  and  C_9 
REMARK    5  A    between atoms: C_6  and  C_10 
ROOT
HETATM    1  N   UNK     0     166.015  -4.077 339.437  0.00  0.00    -0.262 NA
HETATM    2  C   UNK     0     163.865  -3.687 341.180  0.00  0.00     0.010 A 
HETATM    3  C   UNK     0     163.941  -2.965 339.994  0.00  0.00    -0.006 A 
HETATM    4  C   UNK     0     164.862  -4.603 341.496  0.00  0.00     0.099 A 
HETATM    5  C   UNK     0     165.907  -4.760 340.600  0.00  0.00     0.064 A 
HETATM    6  C   UNK     0     165.027  -3.195 339.165  0.00  0.00     0.127 A 
HETATM    7  C   UNK     0     167.004  -5.731 340.889  0.00  0.00     0.073 C 
ENDROOT
BRANCH   2   8
HETATM    8  C   UNK     0     162.716  -3.482 342.114  0.00  0.00     0.206 C 
BRANCH   8   9
HETATM    9  O   UNK     0     163.163  -2.767 343.258  0.00  0.00    -0.396 OA
HETATM   10  H   UNK     0     164.033  -3.129 343.498  0.00  0.00     0.209 HD
ENDBRANCH   8   9
ENDBRANCH   2   8
BRANCH   3  11
HETATM   11  C   UNK     0     162.903  -1.971 339.606  0.00  0.00     0.205 C 
BRANCH  11  12
HETATM   12  O   UNK     0     161.838  -2.635 338.934  0.00  0.00    -0.396 OA
HETATM   13  H   UNK     0     161.092  -2.724 339.550  0.00  0.00     0.209 HD
ENDBRANCH  11  12
ENDBRANCH   3  11
BRANCH   4  14
HETATM   14  O   UNK     0     164.814  -5.321 342.649  0.00  0.00    -0.358 OA
HETATM   15  H   UNK     0     165.502  -6.004 342.669  0.00  0.00     0.218 HD
ENDBRANCH   4  14
TORSDOF 5
ENDMDL
MODEL 2
REMARK VINA RESULT:      -5.7      3.504      5.405
REMARK  5 active torsions:
REMARK  status: ('A' for Active; 'I' for Inactive)
REMARK    1  A    between atoms: O_1  and  C_7 
REMARK    2  A    between atoms: O_2  and  C_9 
REMARK    3  A    between atoms: O_3  and  C_10 
REMARK    4  A    between atoms: C_5  and  C_9 
REMARK    5  A    between atoms: C_6  and  C_10 
ROOT
HETATM    1  N   UNK     0     166.514  -3.092 341.982  0.00  0.00    -0.262 NA
HETATM    2  C   UNK     0     167.423  -5.469 343.138  0.00  0.00     0.010 A 
HETATM    3  C   UNK     0     167.420  -4.290 343.876  0.00  0.00    -0.006 A 
HETATM    4  C   UNK     0     166.972  -5.460 341.823  0.00  0.00     0.099 A 
HETATM    5  C   UNK     0     166.532  -4.258 341.295  0.00  0.00     0.064 A 
HETATM    6  C   UNK     0     166.960  -3.139 343.257  0.00  0.00     0.127 A 
HETATM    7  C   UNK     0     166.036  -4.193 339.888  0.00  0.00     0.073 C 
ENDROOT
BRANCH   2   8
HETATM    8  C   UNK     0     167.907  -6.742 343.754  0.00  0.00     0.206 C 
BRANCH   8   9
HETATM    9  O   UNK     0     169.095  -7.160 343.094  0.00  0.00    -0.396 OA
HETATM   10  H   UNK     0     169.685  -7.526 343.774  0.00  0.00     0.209 HD
ENDBRANCH   8   9
ENDBRANCH   2   8
BRANCH   3  11
HETATM   11  C   UNK     0     167.892  -4.240 345.288  0.00  0.00     0.205 C 
BRANCH  11  12
HETATM   12  O   UNK     0     169.257  -3.838 345.317  0.00  0.00    -0.396 OA
HETATM   13  H   UNK     0     169.772  -4.454 344.770  0.00  0.00     0.209 HD
ENDBRANCH  11  12
ENDBRANCH   3  11
BRANCH   4  14
HETATM   14  O   UNK     0     166.964  -6.597 341.078  0.00  0.00    -0.358 OA
HETATM   15  H   UNK     0     167.481  -6.490 340.264  0.00  0.00     0.218 HD
ENDBRANCH   4  14
TORSDOF 5
ENDMDL
MODEL 3
REMARK VINA RESULT:      -5.6      1.858      2.825
REMARK  5 active torsions:
REMARK  status: ('A' for Active; 'I' for Inactive)
REMARK    1  A    between atoms: O_1  and  C_7 
REMARK    2  A    between atoms: O_2  and  C_9 
REMARK    3  A    between atoms: O_3  and  C_10 
REMARK    4  A    between atoms: C_5  and  C_9 
REMARK    5  A    between atoms: C_6  and  C_10 
ROOT
HETATM    1  N   UNK     0     164.788  -5.022 342.156  0.00  0.00    -0.262 NA
HETATM    2  C   UNK     0     163.649  -3.083 340.496  0.00  0.00     0.010 A 
HETATM    3  C   UNK     0     163.034  -3.424 341.696  0.00  0.00    -0.006 A 
HETATM    4  C   UNK     0     164.833  -3.711 340.126  0.00  0.00     0.099 A 
HETATM    5  C   UNK     0     165.358  -4.665 340.982  0.00  0.00     0.064 A 
HETATM    6  C   UNK     0     163.638  -4.391 342.483  0.00  0.00     0.127 A 
HETATM    7  C   UNK     0     166.628  -5.368 340.634  0.00  0.00     0.073 C 
ENDROOT
BRANCH   2   8
HETATM    8  C   UNK     0     163.043  -2.045 339.607  0.00  0.00     0.206 C 
BRANCH   8   9
HETATM    9  O   UNK     0     161.943  -2.612 338.908  0.00  0.00    -0.396 OA
HETATM   10  H   UNK     0     161.622  -1.937 338.286  0.00  0.00     0.209 HD
ENDBRANCH   8   9
ENDBRANCH   2   8
BRANCH   3  11
HETATM   11  C   UNK     0     161.765  -2.785 342.142  0.00  0.00     0.205 C 
BRANCH  11  12
HETATM   12  O   UNK     0     160.667  -3.385 341.464  0.00  0.00    -0.396 OA
HETATM   13  H   UNK     0     160.657  -3.064 340.547  0.00  0.00     0.209 HD
ENDBRANCH  11  12
ENDBRANCH   3  11
BRANCH   4  14
HETATM   14  O   UNK     0     165.456  -3.398 338.959  0.00  0.00    -0.358 OA
HETATM   15  H   UNK     0     166.420  -3.413 339.058  0.00  0.00     0.218 HD
ENDBRANCH   4  14
TORSDOF 5
ENDMDL
