MODEL 1
REMARK VINA RESULT:      -4.8      0.000      0.000
REMARK  5 active torsions:
REMARK  status: ('A' for Active; 'I' for Inactive)
REMARK    1  A    between atoms: O_1  and  C_7 
REMARK    2  A    between atoms: O_2  and  C_9 
REMARK    3  A    between atoms: O_3  and  C_10 
REMARK    4  A    between atoms: C_5  and  C_9 
REMARK    5  A    between atoms: C_6  and  C_10 
ROOT
HETATM    1  N   UNK     0      37.391   5.054  36.346  0.00  0.00    -0.262 NA
HETATM    2  C   UNK     0      39.733   3.552  36.083  0.00  0.00     0.010 A 
HETATM    3  C   UNK     0      39.096   4.055  34.954  0.00  0.00    -0.006 A 
HETATM    4  C   UNK     0      39.201   3.800  37.343  0.00  0.00     0.099 A 
HETATM    5  C   UNK     0      38.039   4.549  37.421  0.00  0.00     0.064 A 
HETATM    6  C   UNK     0      37.938   4.793  35.138  0.00  0.00     0.127 A 
HETATM    7  C   UNK     0      37.425   4.846  38.750  0.00  0.00     0.073 C 
ENDROOT
BRANCH   2   8
HETATM    8  C   UNK     0      40.987   2.749  35.946  0.00  0.00     0.206 C 
BRANCH   8   9
HETATM    9  O   UNK     0      40.800   1.480  36.559  0.00  0.00    -0.396 OA
HETATM   10  H   UNK     0      41.638   1.248  36.994  0.00  0.00     0.209 HD
ENDBRANCH   8   9
ENDBRANCH   2   8
BRANCH   3  11
HETATM   11  C   UNK     0      39.621   3.820  33.580  0.00  0.00     0.205 C 
BRANCH  11  12
HETATM   12  O   UNK     0      38.542   3.502  32.708  0.00  0.00    -0.396 OA
HETATM   13  H   UNK     0      37.767   4.024  32.973  0.00  0.00     0.209 HD
ENDBRANCH  11  12
ENDBRANCH   3  11
BRANCH   4  14
HETATM   14  O   UNK     0      39.802   3.320  38.464  0.00  0.00    -0.358 OA
HETATM   15  H   UNK     0      39.221   3.396  39.237  0.00  0.00     0.218 HD
ENDBRANCH   4  14
TORSDOF 5
ENDMDL
MODEL 2
REMARK VINA RESULT:      -4.8     19.378     20.093
REMARK  5 active torsions:
REMARK  status: ('A' for Active; 'I' for Inactive)
REMARK    1  A    between atoms: O_1  and  C_7 
REMARK    2  A    between atoms: O_2  and  C_9 
REMARK    3  A    between atoms: O_3  and  C_10 
REMARK    4  A    between atoms: C_5  and  C_9 
REMARK    5  A    between atoms: C_6  and  C_10 
ROOT
HETATM    1  N   UNK     0      50.896  20.045  40.779  0.00  0.00    -0.262 NA
HETATM    2  C   UNK     0      48.769  19.721  42.564  0.00  0.00     0.010 A 
HETATM    3  C   UNK     0      49.658  18.675  42.339  0.00  0.00    -0.006 A 
HETATM    4  C   UNK     0      48.944  20.929  41.897  0.00  0.00     0.099 A 
HETATM    5  C   UNK     0      50.012  21.040  41.023  0.00  0.00     0.064 A 
HETATM    6  C   UNK     0      50.694  18.886  41.444  0.00  0.00     0.127 A 
HETATM    7  C   UNK     0      50.246  22.315  40.282  0.00  0.00     0.073 C 
ENDROOT
BRANCH   2   8
HETATM    8  C   UNK     0      47.632  19.552  43.519  0.00  0.00     0.206 C 
BRANCH   8   9
HETATM    9  O   UNK     0      46.411  19.510  42.791  0.00  0.00    -0.396 OA
HETATM   10  H   UNK     0      46.502  20.129  42.047  0.00  0.00     0.209 HD
ENDBRANCH   8   9
ENDBRANCH   2   8
BRANCH   3  11
HETATM   11  C   UNK     0      49.519  17.360  43.024  0.00  0.00     0.205 C 
BRANCH  11  12
HETATM   12  O   UNK     0      48.622  16.535  42.289  0.00  0.00    -0.396 OA
HETATM   13  H   UNK     0      47.979  16.150  42.908  0.00  0.00     0.209 HD
ENDBRANCH  11  12
ENDBRANCH   3  11
BRANCH   4  14
HETATM   14  O   UNK     0      48.091  21.968  42.097  0.00  0.00    -0.358 OA
HETATM   15  H   UNK     0      47.390  21.734  42.726  0.00  0.00     0.218 HD
ENDBRANCH   4  14
TORSDOF 5
ENDMDL
MODEL 3
REMARK VINA RESULT:      -4.6     24.032     25.493
REMARK  5 active torsions:
REMARK  status: ('A' for Active; 'I' for Inactive)
REMARK    1  A    between atoms: O_1  and  C_7 
REMARK    2  A    between atoms: O_2  and  C_9 
REMARK    3  A    between atoms: O_3  and  C_10 
REMARK    4  A    between atoms: C_5  and  C_9 
REMARK    5  A    between atoms: C_6  and  C_10 
ROOT
HETATM    1  N   UNK     0      28.940  24.207  22.527  0.00  0.00    -0.262 NA
HETATM    2  C   UNK     0      31.469  24.467  23.690  0.00  0.00     0.010 A 
HETATM    3  C   UNK     0      31.208  23.419  22.812  0.00  0.00    -0.006 A 
HETATM    4  C   UNK     0      30.467  25.384  23.986  0.00  0.00     0.099 A 
HETATM    5  C   UNK     0      29.231  25.212  23.384  0.00  0.00     0.064 A 
HETATM    6  C   UNK     0      29.939  23.335  22.263  0.00  0.00     0.127 A 
HETATM    7  C   UNK     0      28.120  26.169  23.667  0.00  0.00     0.073 C 
ENDROOT
BRANCH   2   8
HETATM    8  C   UNK     0      32.821  24.609  24.312  0.00  0.00     0.206 C 
BRANCH   8   9
HETATM    9  O   UNK     0      32.709  24.434  25.718  0.00  0.00    -0.396 OA
HETATM   10  H   UNK     0      31.833  24.765  25.978  0.00  0.00     0.209 HD
ENDBRANCH   8   9
ENDBRANCH   2   8
BRANCH   3  11
HETATM   11  C   UNK     0      32.242  22.408  22.460  0.00  0.00     0.205 C 
BRANCH  11  12
HETATM   12  O   UNK     0      32.130  21.290  23.333  0.00  0.00    -0.396 OA
HETATM   13  H   UNK     0      31.951  20.498  22.800  0.00  0.00     0.209 HD
ENDBRANCH  11  12
ENDBRANCH   3  11
BRANCH   4  14
HETATM   14  O   UNK     0      30.693  26.417  24.840  0.00  0.00    -0.358 OA
HETATM   15  H   UNK     0      30.041  27.124  24.720  0.00  0.00     0.218 HD
ENDBRANCH   4  14
TORSDOF 5
ENDMDL
