MODEL 1
REMARK VINA RESULT:      -5.1      0.000      0.000
REMARK  5 active torsions:
REMARK  status: ('A' for Active; 'I' for Inactive)
REMARK    1  A    between atoms: O_1  and  C_7 
REMARK    2  A    between atoms: O_2  and  C_9 
REMARK    3  A    between atoms: O_3  and  C_10 
REMARK    4  A    between atoms: C_5  and  C_9 
REMARK    5  A    between atoms: C_6  and  C_10 
ROOT
HETATM    1  N   UNK     0     -21.828   4.555  17.735  0.00  0.00    -0.262 NA
HETATM    2  C   UNK     0     -23.952   5.919  16.534  0.00  0.00     0.010 A 
HETATM    3  C   UNK     0     -24.108   4.596  16.932  0.00  0.00    -0.006 A 
HETATM    4  C   UNK     0     -22.735   6.561  16.736  0.00  0.00     0.099 A 
HETATM    5  C   UNK     0     -21.713   5.842  17.335  0.00  0.00     0.064 A 
HETATM    6  C   UNK     0     -23.025   3.964  17.522  0.00  0.00     0.127 A 
HETATM    7  C   UNK     0     -20.386   6.484  17.576  0.00  0.00     0.073 C 
ENDROOT
BRANCH   2   8
HETATM    8  C   UNK     0     -25.086   6.652  15.893  0.00  0.00     0.206 C 
BRANCH   8   9
HETATM    9  O   UNK     0     -24.825   6.797  14.504  0.00  0.00    -0.396 OA
HETATM   10  H   UNK     0     -25.544   7.337  14.133  0.00  0.00     0.209 HD
ENDBRANCH   8   9
ENDBRANCH   2   8
BRANCH   3  11
HETATM   11  C   UNK     0     -25.388   3.859  16.740  0.00  0.00     0.205 C 
BRANCH  11  12
HETATM   12  O   UNK     0     -25.136   2.645  16.042  0.00  0.00    -0.396 OA
HETATM   13  H   UNK     0     -25.191   2.821  15.087  0.00  0.00     0.209 HD
ENDBRANCH  11  12
ENDBRANCH   3  11
BRANCH   4  14
HETATM   14  O   UNK     0     -22.554   7.854  16.357  0.00  0.00    -0.358 OA
HETATM   15  H   UNK     0     -23.389   8.347  16.372  0.00  0.00     0.218 HD
ENDBRANCH   4  14
TORSDOF 5
ENDMDL
MODEL 2
REMARK VINA RESULT:      -5.1      2.240      3.158
REMARK  5 active torsions:
REMARK  status: ('A' for Active; 'I' for Inactive)
REMARK    1  A    between atoms: O_1  and  C_7 
REMARK    2  A    between atoms: O_2  and  C_9 
REMARK    3  A    between atoms: O_3  and  C_10 
REMARK    4  A    between atoms: C_5  and  C_9 
REMARK    5  A    between atoms: C_6  and  C_10 
ROOT
HETATM    1  N   UNK     0     -22.576   7.320  16.502  0.00  0.00    -0.262 NA
HETATM    2  C   UNK     0     -22.217   4.744  17.525  0.00  0.00     0.010 A 
HETATM    3  C   UNK     0     -23.424   5.097  16.931  0.00  0.00    -0.006 A 
HETATM    4  C   UNK     0     -21.190   5.677  17.608  0.00  0.00     0.099 A 
HETATM    5  C   UNK     0     -21.417   6.940  17.086  0.00  0.00     0.064 A 
HETATM    6  C   UNK     0     -23.552   6.386  16.441  0.00  0.00     0.127 A 
HETATM    7  C   UNK     0     -20.347   7.980  17.148  0.00  0.00     0.073 C 
ENDROOT
BRANCH   2   8
HETATM    8  C   UNK     0     -22.022   3.366  18.072  0.00  0.00     0.206 C 
BRANCH   8   9
HETATM    9  O   UNK     0     -21.644   3.454  19.440  0.00  0.00    -0.396 OA
HETATM   10  H   UNK     0     -22.386   3.106  19.963  0.00  0.00     0.209 HD
ENDBRANCH   8   9
ENDBRANCH   2   8
BRANCH   3  11
HETATM   11  C   UNK     0     -24.559   4.139  16.817  0.00  0.00     0.205 C 
BRANCH  11  12
HETATM   12  O   UNK     0     -24.532   3.524  15.534  0.00  0.00    -0.396 OA
HETATM   13  H   UNK     0     -24.484   4.220  14.858  0.00  0.00     0.209 HD
ENDBRANCH  11  12
ENDBRANCH   3  11
BRANCH   4  14
HETATM   14  O   UNK     0     -20.000   5.359  18.183  0.00  0.00    -0.358 OA
HETATM   15  H   UNK     0     -19.740   6.019  18.844  0.00  0.00     0.218 HD
ENDBRANCH   4  14
TORSDOF 5
ENDMDL
MODEL 3
REMARK VINA RESULT:      -5.1      1.921      3.112
REMARK  5 active torsions:
REMARK  status: ('A' for Active; 'I' for Inactive)
REMARK    1  A    between atoms: O_1  and  C_7 
REMARK    2  A    between atoms: O_2  and  C_9 
REMARK    3  A    between atoms: O_3  and  C_10 
REMARK    4  A    between atoms: C_5  and  C_9 
REMARK    5  A    between atoms: C_6  and  C_10 
ROOT
HETATM    1  N   UNK     0     -22.686   3.802  18.064  0.00  0.00    -0.262 NA
HETATM    2  C   UNK     0     -21.714   6.287  17.232  0.00  0.00     0.010 A 
HETATM    3  C   UNK     0     -23.010   5.900  16.907  0.00  0.00    -0.006 A 
HETATM    4  C   UNK     0     -20.904   5.433  17.972  0.00  0.00     0.099 A 
HETATM    5  C   UNK     0     -21.432   4.213  18.361  0.00  0.00     0.064 A 
HETATM    6  C   UNK     0     -23.444   4.659  17.343  0.00  0.00     0.127 A 
HETATM    7  C   UNK     0     -20.605   3.258  19.158  0.00  0.00     0.073 C 
ENDROOT
BRANCH   2   8
HETATM    8  C   UNK     0     -21.191   7.616  16.789  0.00  0.00     0.206 C 
BRANCH   8   9
HETATM    9  O   UNK     0     -20.009   7.423  16.024  0.00  0.00    -0.396 OA
HETATM   10  H   UNK     0     -20.187   6.698  15.401  0.00  0.00     0.209 HD
ENDBRANCH   8   9
ENDBRANCH   2   8
BRANCH   3  11
HETATM   11  C   UNK     0     -23.920   6.774  16.116  0.00  0.00     0.205 C 
BRANCH  11  12
HETATM   12  O   UNK     0     -24.610   5.989  15.150  0.00  0.00    -0.396 OA
HETATM   13  H   UNK     0     -25.192   6.573  14.636  0.00  0.00     0.209 HD
ENDBRANCH  11  12
ENDBRANCH   3  11
BRANCH   4  14
HETATM   14  O   UNK     0     -19.633   5.785  18.302  0.00  0.00    -0.358 OA
HETATM   15  H   UNK     0     -19.045   5.750  17.532  0.00  0.00     0.218 HD
ENDBRANCH   4  14
TORSDOF 5
ENDMDL
