MODEL 1
REMARK VINA RESULT:      -5.3      0.000      0.000
REMARK  5 active torsions:
REMARK  status: ('A' for Active; 'I' for Inactive)
REMARK    1  A    between atoms: O_1  and  C_7 
REMARK    2  A    between atoms: O_2  and  C_9 
REMARK    3  A    between atoms: O_3  and  C_10 
REMARK    4  A    between atoms: C_5  and  C_9 
REMARK    5  A    between atoms: C_6  and  C_10 
ROOT
HETATM    1  N   UNK     0      -4.438  28.032  51.611  0.00  0.00    -0.262 NA
HETATM    2  C   UNK     0      -5.952  29.257  49.605  0.00  0.00     0.010 A 
HETATM    3  C   UNK     0      -6.476  29.113  50.886  0.00  0.00    -0.006 A 
HETATM    4  C   UNK     0      -4.672  28.790  49.327  0.00  0.00     0.099 A 
HETATM    5  C   UNK     0      -3.963  28.191  50.355  0.00  0.00     0.064 A 
HETATM    6  C   UNK     0      -5.686  28.498  51.843  0.00  0.00     0.127 A 
HETATM    7  C   UNK     0      -2.583  27.672  50.110  0.00  0.00     0.073 C 
ENDROOT
BRANCH   2   8
HETATM    8  C   UNK     0      -6.758  29.913  48.531  0.00  0.00     0.206 C 
BRANCH   8   9
HETATM    9  O   UNK     0      -5.981  30.934  47.919  0.00  0.00    -0.396 OA
HETATM   10  H   UNK     0      -6.443  31.775  48.073  0.00  0.00     0.209 HD
ENDBRANCH   8   9
ENDBRANCH   2   8
BRANCH   3  11
HETATM   11  C   UNK     0      -7.840  29.593  51.239  0.00  0.00     0.205 C 
BRANCH  11  12
HETATM   12  O   UNK     0      -7.796  30.267  52.492  0.00  0.00    -0.396 OA
HETATM   13  H   UNK     0      -8.496  29.907  53.061  0.00  0.00     0.209 HD
ENDBRANCH  11  12
ENDBRANCH   3  11
BRANCH   4  14
HETATM   14  O   UNK     0      -4.135  28.917  48.085  0.00  0.00    -0.358 OA
HETATM   15  H   UNK     0      -3.531  29.675  48.037  0.00  0.00     0.218 HD
ENDBRANCH   4  14
TORSDOF 5
ENDMDL
MODEL 2
REMARK VINA RESULT:      -5.1      2.477      3.886
REMARK  5 active torsions:
REMARK  status: ('A' for Active; 'I' for Inactive)
REMARK    1  A    between atoms: O_1  and  C_7 
REMARK    2  A    between atoms: O_2  and  C_9 
REMARK    3  A    between atoms: O_3  and  C_10 
REMARK    4  A    between atoms: C_5  and  C_9 
REMARK    5  A    between atoms: C_6  and  C_10 
ROOT
HETATM    1  N   UNK     0      -4.837  29.610  50.385  0.00  0.00    -0.262 NA
HETATM    2  C   UNK     0      -6.818  28.110  51.665  0.00  0.00     0.010 A 
HETATM    3  C   UNK     0      -5.539  28.183  52.207  0.00  0.00    -0.006 A 
HETATM    4  C   UNK     0      -7.108  28.785  50.485  0.00  0.00     0.099 A 
HETATM    5  C   UNK     0      -6.092  29.514  49.889  0.00  0.00     0.064 A 
HETATM    6  C   UNK     0      -4.593  28.939  51.533  0.00  0.00     0.127 A 
HETATM    7  C   UNK     0      -6.349  30.260  48.620  0.00  0.00     0.073 C 
ENDROOT
BRANCH   2   8
HETATM    8  C   UNK     0      -7.880  27.309  52.348  0.00  0.00     0.206 C 
BRANCH   8   9
HETATM    9  O   UNK     0      -8.188  26.168  51.558  0.00  0.00    -0.396 OA
HETATM   10  H   UNK     0      -8.992  26.380  51.053  0.00  0.00     0.209 HD
ENDBRANCH   8   9
ENDBRANCH   2   8
BRANCH   3  11
HETATM   11  C   UNK     0      -5.173  27.480  53.467  0.00  0.00     0.205 C 
BRANCH  11  12
HETATM   12  O   UNK     0      -4.229  26.454  53.181  0.00  0.00    -0.396 OA
HETATM   13  H   UNK     0      -4.124  25.901  53.973  0.00  0.00     0.209 HD
ENDBRANCH  11  12
ENDBRANCH   3  11
BRANCH   4  14
HETATM   14  O   UNK     0      -8.349  28.730  49.933  0.00  0.00    -0.358 OA
HETATM   15  H   UNK     0      -8.311  28.445  49.007  0.00  0.00     0.218 HD
ENDBRANCH   4  14
TORSDOF 5
ENDMDL
MODEL 3
REMARK VINA RESULT:      -5.1      2.085      4.506
REMARK  5 active torsions:
REMARK  status: ('A' for Active; 'I' for Inactive)
REMARK    1  A    between atoms: O_1  and  C_7 
REMARK    2  A    between atoms: O_2  and  C_9 
REMARK    3  A    between atoms: O_3  and  C_10 
REMARK    4  A    between atoms: C_5  and  C_9 
REMARK    5  A    between atoms: C_6  and  C_10 
ROOT
HETATM    1  N   UNK     0      -7.572  29.194  50.048  0.00  0.00    -0.262 NA
HETATM    2  C   UNK     0      -5.088  28.250  50.917  0.00  0.00     0.010 A 
HETATM    3  C   UNK     0      -5.410  28.226  49.564  0.00  0.00    -0.006 A 
HETATM    4  C   UNK     0      -6.007  28.746  51.836  0.00  0.00     0.099 A 
HETATM    5  C   UNK     0      -7.223  29.202  51.356  0.00  0.00     0.064 A 
HETATM    6  C   UNK     0      -6.654  28.704  49.185  0.00  0.00     0.127 A 
HETATM    7  C   UNK     0      -8.246  29.746  52.299  0.00  0.00     0.073 C 
ENDROOT
BRANCH   2   8
HETATM    8  C   UNK     0      -3.760  27.747  51.384  0.00  0.00     0.206 C 
BRANCH   8   9
HETATM    9  O   UNK     0      -3.960  26.735  52.362  0.00  0.00    -0.396 OA
HETATM   10  H   UNK     0      -4.773  26.260  52.119  0.00  0.00     0.209 HD
ENDBRANCH   8   9
ENDBRANCH   2   8
BRANCH   3  11
HETATM   11  C   UNK     0      -4.466  27.705  48.537  0.00  0.00     0.205 C 
BRANCH  11  12
HETATM   12  O   UNK     0      -3.787  28.794  47.921  0.00  0.00    -0.396 OA
HETATM   13  H   UNK     0      -3.859  28.697  46.957  0.00  0.00     0.209 HD
ENDBRANCH  11  12
ENDBRANCH   3  11
BRANCH   4  14
HETATM   14  O   UNK     0      -5.719  28.781  53.163  0.00  0.00    -0.358 OA
HETATM   15  H   UNK     0      -4.969  28.205  53.378  0.00  0.00     0.218 HD
ENDBRANCH   4  14
TORSDOF 5
ENDMDL
