MODEL 1
REMARK VINA RESULT:      -6.3      0.000      0.000
REMARK  5 active torsions:
REMARK  status: ('A' for Active; 'I' for Inactive)
REMARK    1  A    between atoms: O_1  and  C_7 
REMARK    2  A    between atoms: O_2  and  C_9 
REMARK    3  A    between atoms: O_3  and  C_10 
REMARK    4  A    between atoms: C_5  and  C_9 
REMARK    5  A    between atoms: C_6  and  C_10 
ROOT
HETATM    1  N   UNK     0      10.121  11.388   2.268  0.00  0.00    -0.262 NA
HETATM    2  C   UNK     0       8.101   9.492   2.640  0.00  0.00     0.010 A 
HETATM    3  C   UNK     0       8.642  10.159   3.734  0.00  0.00    -0.006 A 
HETATM    4  C   UNK     0       8.568   9.773   1.360  0.00  0.00     0.099 A 
HETATM    5  C   UNK     0       9.570  10.720   1.229  0.00  0.00     0.064 A 
HETATM    6  C   UNK     0       9.641  11.089   3.496  0.00  0.00     0.127 A 
HETATM    7  C   UNK     0      10.108  11.060  -0.122  0.00  0.00     0.073 C 
ENDROOT
BRANCH   2   8
HETATM    8  C   UNK     0       7.019   8.479   2.835  0.00  0.00     0.206 C 
BRANCH   8   9
HETATM    9  O   UNK     0       5.817   8.957   2.247  0.00  0.00    -0.396 OA
HETATM   10  H   UNK     0       5.242   8.186   2.104  0.00  0.00     0.209 HD
ENDBRANCH   8   9
ENDBRANCH   2   8
BRANCH   3  11
HETATM   11  C   UNK     0       8.180   9.898   5.125  0.00  0.00     0.205 C 
BRANCH  11  12
HETATM   12  O   UNK     0       7.873  11.133   5.763  0.00  0.00    -0.396 OA
HETATM   13  H   UNK     0       7.951  11.847   5.108  0.00  0.00     0.209 HD
ENDBRANCH  11  12
ENDBRANCH   3  11
BRANCH   4  14
HETATM   14  O   UNK     0       8.058   9.136   0.274  0.00  0.00    -0.358 OA
HETATM   15  H   UNK     0       7.158   8.817   0.441  0.00  0.00     0.218 HD
ENDBRANCH   4  14
TORSDOF 5
ENDMDL
MODEL 2
REMARK VINA RESULT:      -6.0      1.705      2.820
REMARK  5 active torsions:
REMARK  status: ('A' for Active; 'I' for Inactive)
REMARK    1  A    between atoms: O_1  and  C_7 
REMARK    2  A    between atoms: O_2  and  C_9 
REMARK    3  A    between atoms: O_3  and  C_10 
REMARK    4  A    between atoms: C_5  and  C_9 
REMARK    5  A    between atoms: C_6  and  C_10 
ROOT
HETATM    1  N   UNK     0      10.151  11.522   3.523  0.00  0.00    -0.262 NA
HETATM    2  C   UNK     0       9.229  10.132   1.280  0.00  0.00     0.010 A 
HETATM    3  C   UNK     0       8.641   9.921   2.523  0.00  0.00    -0.006 A 
HETATM    4  C   UNK     0      10.278  11.037   1.158  0.00  0.00     0.099 A 
HETATM    5  C   UNK     0      10.698  11.701   2.299  0.00  0.00     0.064 A 
HETATM    6  C   UNK     0       9.135  10.634   3.603  0.00  0.00     0.127 A 
HETATM    7  C   UNK     0      11.820  12.684   2.224  0.00  0.00     0.073 C 
ENDROOT
BRANCH   2   8
HETATM    8  C   UNK     0       8.738   9.390   0.079  0.00  0.00     0.206 C 
BRANCH   8   9
HETATM    9  O   UNK     0       9.788   8.581  -0.434  0.00  0.00    -0.396 OA
HETATM   10  H   UNK     0      10.157   8.085   0.316  0.00  0.00     0.209 HD
ENDBRANCH   8   9
ENDBRANCH   2   8
BRANCH   3  11
HETATM   11  C   UNK     0       7.517   8.963   2.712  0.00  0.00     0.205 C 
BRANCH  11  12
HETATM   12  O   UNK     0       6.279   9.646   2.546  0.00  0.00    -0.396 OA
HETATM   13  H   UNK     0       5.630   9.264   3.160  0.00  0.00     0.209 HD
ENDBRANCH  11  12
ENDBRANCH   3  11
BRANCH   4  14
HETATM   14  O   UNK     0      10.872  11.262  -0.043  0.00  0.00    -0.358 OA
HETATM   15  H   UNK     0      11.394  12.079  -0.031  0.00  0.00     0.218 HD
ENDBRANCH   4  14
TORSDOF 5
ENDMDL
MODEL 3
REMARK VINA RESULT:      -5.8      1.567      3.716
REMARK  5 active torsions:
REMARK  status: ('A' for Active; 'I' for Inactive)
REMARK    1  A    between atoms: O_1  and  C_7 
REMARK    2  A    between atoms: O_2  and  C_9 
REMARK    3  A    between atoms: O_3  and  C_10 
REMARK    4  A    between atoms: C_5  and  C_9 
REMARK    5  A    between atoms: C_6  and  C_10 
ROOT
HETATM    1  N   UNK     0      11.118   9.642   2.887  0.00  0.00    -0.262 NA
HETATM    2  C   UNK     0       8.349   9.442   2.560  0.00  0.00     0.010 A 
HETATM    3  C   UNK     0       9.177   9.550   1.448  0.00  0.00    -0.006 A 
HETATM    4  C   UNK     0       8.903   9.433   3.835  0.00  0.00     0.099 A 
HETATM    5  C   UNK     0      10.280   9.535   3.945  0.00  0.00     0.064 A 
HETATM    6  C   UNK     0      10.542   9.647   1.664  0.00  0.00     0.127 A 
HETATM    7  C   UNK     0      10.928   9.529   5.291  0.00  0.00     0.073 C 
ENDROOT
BRANCH   2   8
HETATM    8  C   UNK     0       6.867   9.333   2.388  0.00  0.00     0.206 C 
BRANCH   8   9
HETATM    9  O   UNK     0       6.432   8.068   2.867  0.00  0.00    -0.396 OA
HETATM   10  H   UNK     0       5.763   7.741   2.241  0.00  0.00     0.209 HD
ENDBRANCH   8   9
ENDBRANCH   2   8
BRANCH   3  11
HETATM   11  C   UNK     0       8.638   9.565   0.060  0.00  0.00     0.205 C 
BRANCH  11  12
HETATM   12  O   UNK     0       9.403   8.685  -0.756  0.00  0.00    -0.396 OA
HETATM   13  H   UNK     0       9.509   9.090  -1.632  0.00  0.00     0.209 HD
ENDBRANCH  11  12
ENDBRANCH   3  11
BRANCH   4  14
HETATM   14  O   UNK     0       8.118   9.329   4.939  0.00  0.00    -0.358 OA
HETATM   15  H   UNK     0       8.620   9.000   5.701  0.00  0.00     0.218 HD
ENDBRANCH   4  14
TORSDOF 5
ENDMDL
