MODEL 1
REMARK VINA RESULT:      -7.5      0.000      0.000
REMARK  Name = C:\Users\Docking\Desktop\test protocol\1iep_ligandH.pdb
REMARK  8 active torsions:
REMARK  status: ('A' for Active; 'I' for Inactive)
REMARK    1  A    between atoms: _5  and  _11
REMARK    2  A    between atoms: _19  and  _21
REMARK    3  A    between atoms: _22  and  _66
REMARK    4  A    between atoms: _27  and  _30
REMARK    5  A    between atoms: _32  and  _33
REMARK    6  A    between atoms: _38  and  _43
REMARK    7  A    between atoms: _43  and  _46
REMARK    8  A    between atoms: _53  and  _55
REMARK                            x       y       z     vdW  Elec       q    Type
REMARK                         _______ _______ _______ _____ _____    ______ ____
ROOT
ATOM     10  C   UNL     1       9.463  10.476   8.724  0.00  0.00    +0.038 A 
ATOM     11  C   UNL     1       9.256   9.933  10.017  0.00  0.00    +0.047 A 
ATOM     12  C   UNL     1      10.179  10.210  11.107  0.00  0.00    +0.035 A 
ATOM     32  C   UNL     1      11.302  11.047  10.844  0.00  0.00    +0.024 A 
ATOM     33  C   UNL     1      11.529  11.606   9.534  0.00  0.00    +0.007 A 
ATOM     34  C   UNL     1      10.623  11.335   8.455  0.00  0.00    -0.029 A 
ATOM     35  C   UNL     1      10.919  11.956   7.071  0.00  0.00    +0.045 C 
ENDROOT
BRANCH  10   9
ATOM      4  C   UNL     1       5.527  11.456   6.157  0.00  0.00    +0.077 A 
ATOM      5  C   UNL     1       5.263  12.649   6.908  0.00  0.00    +0.048 A 
ATOM      6  C   UNL     1       6.160  12.972   7.951  0.00  0.00    +0.116 A 
ATOM      7  N   UNL     1       7.238  12.155   8.214  0.00  0.00    -0.223 NA
ATOM      8  C   UNL     1       7.463  11.010   7.472  0.00  0.00    +0.220 A 
ATOM      9  N   UNL     1       8.545  10.177   7.715  0.00  0.00    -0.283 N 
ATOM     36  H   UNL     1       8.672   9.338   7.150  0.00  0.00    +0.155 HD
ATOM     37  N   UNL     1       6.620  10.679   6.472  0.00  0.00    -0.214 NA
BRANCH   4   3
ATOM      1  C   UNL     1       2.533  10.038   4.078  0.00  0.00    +0.020 A 
ATOM      2  C   UNL     1       3.316  10.482   5.208  0.00  0.00    +0.013 A 
ATOM      3  C   UNL     1       4.672  10.983   5.023  0.00  0.00    +0.019 A 
ATOM     38  C   UNL     1       5.210  11.022   3.671  0.00  0.00    +0.120 A 
ATOM     39  N   UNL     1       4.433  10.587   2.602  0.00  0.00    -0.263 NA
ATOM     40  C   UNL     1       3.127  10.101   2.769  0.00  0.00    +0.111 A 
ENDBRANCH   4   3
ENDBRANCH  10   9
BRANCH  12  13
ATOM     13  N   UNL     1      10.024   9.680  12.439  0.00  0.00    -0.281 N 
ATOM     14  C   UNL     1       9.911  10.382  13.627  0.00  0.00    +0.248 C 
ATOM     30  O   UNL     1      10.142  11.576  13.748  0.00  0.00    -0.270 OA
ATOM     31  H   UNL     1       9.995   8.663  12.515  0.00  0.00    +0.155 HD
BRANCH  14  15
ATOM     15  C   UNL     1       9.497   9.650  14.862  0.00  0.00    +0.037 A 
ATOM     16  C   UNL     1       8.931  10.360  16.013  0.00  0.00    +0.013 A 
ATOM     17  C   UNL     1       8.555   9.632  17.198  0.00  0.00    +0.005 A 
ATOM     18  C   UNL     1       8.742   8.183  17.239  0.00  0.00    -0.033 A 
ATOM     28  C   UNL     1       9.301   7.504  16.081  0.00  0.00    +0.005 A 
ATOM     29  C   UNL     1       9.671   8.214  14.918  0.00  0.00    +0.013 A 
BRANCH  18  19
ATOM     19  C   UNL     1       8.389   7.328  18.470  0.00  0.00    +0.119 C 
BRANCH  19  20
ATOM     20  N   UNL     1       7.775   5.990  18.220  0.00  0.00    -0.302 NA
ATOM     21  C   UNL     1       6.501   5.779  19.042  0.00  0.00    +0.066 C 
ATOM     22  C   UNL     1       5.860   4.383  18.751  0.00  0.00    -0.064 C 
ATOM     23  N   UNL     1       6.883   3.284  19.046  0.00  0.00    +0.379 N 
ATOM     24  C   UNL     1       6.265   1.968  18.829  0.00  0.00    -0.096 C 
ATOM     25  H   UNL     1       7.155   3.357  20.124  0.00  0.00    -0.082 HD
ATOM     26  C   UNL     1       8.154   3.488  18.234  0.00  0.00    -0.064 C 
ATOM     27  C   UNL     1       8.767   4.889  18.508  0.00  0.00    +0.066 C 
ENDBRANCH  19  20
ENDBRANCH  18  19
ENDBRANCH  14  15
ENDBRANCH  12  13
TORSDOF 6
ENDMDL
MODEL 2
REMARK VINA RESULT:      -7.4      8.863     10.586
REMARK  Name = C:\Users\Docking\Desktop\test protocol\1iep_ligandH.pdb
REMARK  8 active torsions:
REMARK  status: ('A' for Active; 'I' for Inactive)
REMARK    1  A    between atoms: _5  and  _11
REMARK    2  A    between atoms: _19  and  _21
REMARK    3  A    between atoms: _22  and  _66
REMARK    4  A    between atoms: _27  and  _30
REMARK    5  A    between atoms: _32  and  _33
REMARK    6  A    between atoms: _38  and  _43
REMARK    7  A    between atoms: _43  and  _46
REMARK    8  A    between atoms: _53  and  _55
REMARK                            x       y       z     vdW  Elec       q    Type
REMARK                         _______ _______ _______ _____ _____    ______ ____
ROOT
ATOM     10  C   UNL     1       9.843  11.160   2.494  0.00  0.00    +0.038 A 
ATOM     11  C   UNL     1      10.707  10.053   2.694  0.00  0.00    +0.047 A 
ATOM     12  C   UNL     1      12.145  10.235   2.820  0.00  0.00    +0.035 A 
ATOM     32  C   UNL     1      12.668  11.558   2.739  0.00  0.00    +0.024 A 
ATOM     33  C   UNL     1      11.805  12.694   2.535  0.00  0.00    +0.007 A 
ATOM     34  C   UNL     1      10.386  12.521   2.408  0.00  0.00    -0.029 A 
ATOM     35  C   UNL     1       9.508  13.775   2.184  0.00  0.00    +0.045 C 
ENDROOT
BRANCH  10   9
ATOM      4  C   UNL     1       5.436  10.829   4.368  0.00  0.00    +0.077 A 
ATOM      5  C   UNL     1       5.913  11.116   5.691  0.00  0.00    +0.048 A 
ATOM      6  C   UNL     1       7.300  11.336   5.847  0.00  0.00    +0.116 A 
ATOM      7  N   UNL     1       8.138  11.271   4.755  0.00  0.00    -0.223 NA
ATOM      8  C   UNL     1       7.646  10.991   3.494  0.00  0.00    +0.220 A 
ATOM      9  N   UNL     1       8.470  10.928   2.380  0.00  0.00    -0.283 N 
ATOM     36  H   UNL     1       8.069  10.711   1.468  0.00  0.00    +0.155 HD
ATOM     37  N   UNL     1       6.326  10.776   3.318  0.00  0.00    -0.214 NA
BRANCH   4   3
ATOM      1  C   UNL     1       1.585  10.226   4.692  0.00  0.00    +0.020 A 
ATOM      2  C   UNL     1       2.961  10.469   5.061  0.00  0.00    +0.013 A 
ATOM      3  C   UNL     1       3.997  10.578   4.042  0.00  0.00    +0.019 A 
ATOM     38  C   UNL     1       3.605  10.435   2.648  0.00  0.00    +0.120 A 
ATOM     39  N   UNL     1       2.273  10.199   2.322  0.00  0.00    -0.263 NA
ATOM     40  C   UNL     1       1.267  10.091   3.295  0.00  0.00    +0.111 A 
ENDBRANCH   4   3
ENDBRANCH  10   9
BRANCH  12  13
ATOM     13  N   UNL     1      13.072   9.148   3.016  0.00  0.00    -0.281 N 
ATOM     14  C   UNL     1      13.936   8.948   4.080  0.00  0.00    +0.248 C 
ATOM     30  O   UNL     1      14.196   9.789   4.927  0.00  0.00    -0.270 OA
ATOM     31  H   UNL     1      13.095   8.441   2.281  0.00  0.00    +0.155 HD
BRANCH  14  15
ATOM     15  C   UNL     1      14.621   7.626   4.215  0.00  0.00    +0.037 A 
ATOM     16  C   UNL     1      13.873   6.414   4.556  0.00  0.00    +0.013 A 
ATOM     17  C   UNL     1      14.561   5.155   4.697  0.00  0.00    +0.005 A 
ATOM     18  C   UNL     1      16.007   5.102   4.494  0.00  0.00    -0.033 A 
ATOM     28  C   UNL     1      16.724   6.319   4.151  0.00  0.00    +0.005 A 
ATOM     29  C   UNL     1      16.053   7.555   4.014  0.00  0.00    +0.013 A 
BRANCH  18  19
ATOM     19  C   UNL     1      16.826   3.807   4.645  0.00  0.00    +0.119 C 
BRANCH  19  20
ATOM     20  N   UNL     1      17.987   3.837   5.583  0.00  0.00    -0.302 NA
ATOM     21  C   UNL     1      18.888   2.609   5.422  0.00  0.00    +0.066 C 
ATOM     22  C   UNL     1      20.110   2.668   6.395  0.00  0.00    -0.064 C 
ATOM     23  N   UNL     1      19.607   2.785   7.835  0.00  0.00    +0.379 N 
ATOM     24  C   UNL     1      20.752   2.782   8.757  0.00  0.00    -0.096 C 
ATOM     25  H   UNL     1      18.994   1.879   8.053  0.00  0.00    -0.082 HD
ATOM     26  C   UNL     1      18.708   4.002   8.003  0.00  0.00    -0.064 C 
ATOM     27  C   UNL     1      17.513   3.948   7.011  0.00  0.00    +0.066 C 
ENDBRANCH  19  20
ENDBRANCH  18  19
ENDBRANCH  14  15
ENDBRANCH  12  13
TORSDOF 6
ENDMDL
MODEL 3
REMARK VINA RESULT:      -7.3      2.076     12.571
REMARK  Name = C:\Users\Docking\Desktop\test protocol\1iep_ligandH.pdb
REMARK  8 active torsions:
REMARK  status: ('A' for Active; 'I' for Inactive)
REMARK    1  A    between atoms: _5  and  _11
REMARK    2  A    between atoms: _19  and  _21
REMARK    3  A    between atoms: _22  and  _66
REMARK    4  A    between atoms: _27  and  _30
REMARK    5  A    between atoms: _32  and  _33
REMARK    6  A    between atoms: _38  and  _43
REMARK    7  A    between atoms: _43  and  _46
REMARK    8  A    between atoms: _53  and  _55
REMARK                            x       y       z     vdW  Elec       q    Type
REMARK                         _______ _______ _______ _____ _____    ______ ____
ROOT
ATOM     10  C   UNL     1      10.213   8.784  15.792  0.00  0.00    +0.038 A 
ATOM     11  C   UNL     1       9.670   9.023  14.504  0.00  0.00    +0.047 A 
ATOM     12  C   UNL     1       9.709  10.348  13.905  0.00  0.00    +0.035 A 
ATOM     32  C   UNL     1      10.313  11.407  14.645  0.00  0.00    +0.024 A 
ATOM     33  C   UNL     1      10.869  11.181  15.956  0.00  0.00    +0.007 A 
ATOM     34  C   UNL     1      10.830   9.877  16.553  0.00  0.00    -0.029 A 
ATOM     35  C   UNL     1      11.436   9.695  17.964  0.00  0.00    +0.045 C 
ENDROOT
BRANCH  10   9
ATOM      4  C   UNL     1       8.038   5.369  18.369  0.00  0.00    +0.077 A 
ATOM      5  C   UNL     1       6.952   6.240  18.717  0.00  0.00    +0.048 A 
ATOM      6  C   UNL     1       6.995   7.561  18.218  0.00  0.00    +0.116 A 
ATOM      7  N   UNL     1       8.050   7.970  17.431  0.00  0.00    -0.223 NA
ATOM      8  C   UNL     1       9.081   7.105  17.116  0.00  0.00    +0.220 A 
ATOM      9  N   UNL     1      10.148   7.492  16.320  0.00  0.00    -0.283 N 
ATOM     36  H   UNL     1      10.893   6.827  16.116  0.00  0.00    +0.155 HD
ATOM     37  N   UNL     1       9.064   5.839  17.581  0.00  0.00    -0.214 NA
BRANCH   4   3
ATOM      1  C   UNL     1       8.155   1.459  18.380  0.00  0.00    +0.020 A 
ATOM      2  C   UNL     1       8.057   2.817  17.896  0.00  0.00    +0.013 A 
ATOM      3  C   UNL     1       8.133   3.944  18.817  0.00  0.00    +0.019 A 
ATOM     38  C   UNL     1       8.313   3.660  20.233  0.00  0.00    +0.120 A 
ATOM     39  N   UNL     1       8.404   2.342  20.670  0.00  0.00    -0.263 NA
ATOM     40  C   UNL     1       8.329   1.250  19.793  0.00  0.00    +0.111 A 
ENDBRANCH   4   3
ENDBRANCH  10   9
BRANCH  12  13
ATOM     13  N   UNL     1       9.167  10.653  12.604  0.00  0.00    -0.281 N 
ATOM     14  C   UNL     1       9.640  10.246  11.368  0.00  0.00    +0.248 C 
ATOM     30  O   UNL     1      10.732   9.731  11.181  0.00  0.00    -0.270 OA
ATOM     31  H   UNL     1       8.332  11.239  12.594  0.00  0.00    +0.155 HD
BRANCH  14  15
ATOM     15  C   UNL     1       8.781  10.454  10.162  0.00  0.00    +0.037 A 
ATOM     16  C   UNL     1       7.418  10.978  10.281  0.00  0.00    +0.013 A 
ATOM     17  C   UNL     1       6.606  11.153   9.103  0.00  0.00    +0.005 A 
ATOM     18  C   UNL     1       7.155  10.805   7.795  0.00  0.00    -0.033 A 
ATOM     28  C   UNL     1       8.513  10.293   7.705  0.00  0.00    +0.005 A 
ATOM     29  C   UNL     1       9.312  10.119   8.858  0.00  0.00    +0.013 A 
BRANCH  18  19
ATOM     19  C   UNL     1       6.353  10.940   6.488  0.00  0.00    +0.119 C 
BRANCH  19  20
ATOM     20  N   UNL     1       7.115  11.280   5.249  0.00  0.00    -0.302 NA
ATOM     21  C   UNL     1       7.554  12.747   5.231  0.00  0.00    +0.066 C 
ATOM     22  C   UNL     1       8.370  13.080   3.939  0.00  0.00    -0.064 C 
ATOM     23  N   UNL     1       7.524  12.753   2.707  0.00  0.00    +0.379 N 
ATOM     24  C   UNL     1       8.266  13.119   1.491  0.00  0.00    -0.096 C 
ATOM     25  H   UNL     1       6.608  13.386   2.748  0.00  0.00    -0.082 HD
ATOM     26  C   UNL     1       7.080  11.297   2.719  0.00  0.00    -0.064 C 
ATOM     27  C   UNL     1       6.297  10.969   4.020  0.00  0.00    +0.066 C 
ENDBRANCH  19  20
ENDBRANCH  18  19
ENDBRANCH  14  15
ENDBRANCH  12  13
TORSDOF 6
ENDMDL
MODEL 4
REMARK VINA RESULT:      -7.2      8.943     10.724
REMARK  Name = C:\Users\Docking\Desktop\test protocol\1iep_ligandH.pdb
REMARK  8 active torsions:
REMARK  status: ('A' for Active; 'I' for Inactive)
REMARK    1  A    between atoms: _5  and  _11
REMARK    2  A    between atoms: _19  and  _21
REMARK    3  A    between atoms: _22  and  _66
REMARK    4  A    between atoms: _27  and  _30
REMARK    5  A    between atoms: _32  and  _33
REMARK    6  A    between atoms: _38  and  _43
REMARK    7  A    between atoms: _43  and  _46
REMARK    8  A    between atoms: _53  and  _55
REMARK                            x       y       z     vdW  Elec       q    Type
REMARK                         _______ _______ _______ _____ _____    ______ ____
ROOT
ATOM     10  C   UNL     1       9.966  10.822   2.364  0.00  0.00    +0.038 A 
ATOM     11  C   UNL     1      10.758   9.750   2.849  0.00  0.00    +0.047 A 
ATOM     12  C   UNL     1      12.209   9.846   2.894  0.00  0.00    +0.035 A 
ATOM     32  C   UNL     1      12.820  11.050   2.439  0.00  0.00    +0.024 A 
ATOM     33  C   UNL     1      12.031  12.149   1.942  0.00  0.00    +0.007 A 
ATOM     34  C   UNL     1      10.600  12.059   1.893  0.00  0.00    -0.029 A 
ATOM     35  C   UNL     1       9.804  13.266   1.343  0.00  0.00    +0.045 C 
ENDROOT
BRANCH  10   9
ATOM      4  C   UNL     1       5.652  11.082   4.451  0.00  0.00    +0.077 A 
ATOM      5  C   UNL     1       6.214  11.520   5.695  0.00  0.00    +0.048 A 
ATOM      6  C   UNL     1       7.619  11.659   5.759  0.00  0.00    +0.116 A 
ATOM      7  N   UNL     1       8.393  11.378   4.654  0.00  0.00    -0.223 NA
ATOM      8  C   UNL     1       7.819  10.956   3.469  0.00  0.00    +0.220 A 
ATOM      9  N   UNL     1       8.577  10.676   2.344  0.00  0.00    -0.283 N 
ATOM     36  H   UNL     1       8.116  10.360   1.491  0.00  0.00    +0.155 HD
ATOM     37  N   UNL     1       6.480  10.814   3.383  0.00  0.00    -0.214 NA
BRANCH   4   3
ATOM      1  C   UNL     1       2.222   9.911   2.978  0.00  0.00    +0.020 A 
ATOM      2  C   UNL     1       3.648  10.063   3.152  0.00  0.00    +0.013 A 
ATOM      3  C   UNL     1       4.184  10.890   4.225  0.00  0.00    +0.019 A 
ATOM     38  C   UNL     1       3.242  11.555   5.114  0.00  0.00    +0.120 A 
ATOM     39  N   UNL     1       1.874  11.391   4.921  0.00  0.00    -0.263 NA
ATOM     40  C   UNL     1       1.347  10.598   3.890  0.00  0.00    +0.111 A 
ENDBRANCH   4   3
ENDBRANCH  10   9
BRANCH  12  13
ATOM     13  N   UNL     1      13.064   8.787   3.369  0.00  0.00    -0.281 N 
ATOM     14  C   UNL     1      14.227   8.901   4.113  0.00  0.00    +0.248 C 
ATOM     30  O   UNL     1      14.826   9.949   4.303  0.00  0.00    -0.270 OA
ATOM     31  H   UNL     1      12.778   7.838   3.127  0.00  0.00    +0.155 HD
BRANCH  14  15
ATOM     15  C   UNL     1      14.818   7.670   4.723  0.00  0.00    +0.037 A 
ATOM     16  C   UNL     1      14.150   6.371   4.610  0.00  0.00    +0.013 A 
ATOM     17  C   UNL     1      14.733   5.203   5.222  0.00  0.00    +0.005 A 
ATOM     18  C   UNL     1      15.992   5.330   5.952  0.00  0.00    -0.033 A 
ATOM     28  C   UNL     1      16.636   6.630   6.043  0.00  0.00    +0.005 A 
ATOM     29  C   UNL     1      16.067   7.777   5.446  0.00  0.00    +0.013 A 
BRANCH  18  19
ATOM     19  C   UNL     1      16.675   4.141   6.654  0.00  0.00    +0.119 C 
BRANCH  19  20
ATOM     20  N   UNL     1      18.123   3.917   6.365  0.00  0.00    -0.302 NA
ATOM     21  C   UNL     1      18.333   2.967   5.182  0.00  0.00    +0.066 C 
ATOM     22  C   UNL     1      19.853   2.761   4.880  0.00  0.00    -0.064 C 
ATOM     23  N   UNL     1      20.551   2.229   6.132  0.00  0.00    +0.379 N 
ATOM     24  C   UNL     1      21.969   1.979   5.834  0.00  0.00    -0.096 C 
ATOM     25  H   UNL     1      20.083   1.251   6.390  0.00  0.00    -0.082 HD
ATOM     26  C   UNL     1      20.346   3.165   7.314  0.00  0.00    -0.064 C 
ATOM     27  C   UNL     1      18.832   3.387   7.587  0.00  0.00    +0.066 C 
ENDBRANCH  19  20
ENDBRANCH  18  19
ENDBRANCH  14  15
ENDBRANCH  12  13
TORSDOF 6
ENDMDL
MODEL 5
REMARK VINA RESULT:      -7.2      1.870     12.196
REMARK  Name = C:\Users\Docking\Desktop\test protocol\1iep_ligandH.pdb
REMARK  8 active torsions:
REMARK  status: ('A' for Active; 'I' for Inactive)
REMARK    1  A    between atoms: _5  and  _11
REMARK    2  A    between atoms: _19  and  _21
REMARK    3  A    between atoms: _22  and  _66
REMARK    4  A    between atoms: _27  and  _30
REMARK    5  A    between atoms: _32  and  _33
REMARK    6  A    between atoms: _38  and  _43
REMARK    7  A    between atoms: _43  and  _46
REMARK    8  A    between atoms: _53  and  _55
REMARK                            x       y       z     vdW  Elec       q    Type
REMARK                         _______ _______ _______ _____ _____    ______ ____
ROOT
ATOM     10  C   UNL     1      10.176   8.758  15.805  0.00  0.00    +0.038 A 
ATOM     11  C   UNL     1       9.644   8.987  14.510  0.00  0.00    +0.047 A 
ATOM     12  C   UNL     1       9.701  10.304  13.895  0.00  0.00    +0.035 A 
ATOM     32  C   UNL     1      10.309  11.365  14.627  0.00  0.00    +0.024 A 
ATOM     33  C   UNL     1      10.853  11.151  15.944  0.00  0.00    +0.007 A 
ATOM     34  C   UNL     1      10.798   9.855  16.557  0.00  0.00    -0.029 A 
ATOM     35  C   UNL     1      11.392   9.684  17.975  0.00  0.00    +0.045 C 
ENDROOT
BRANCH  10   9
ATOM      4  C   UNL     1       7.970   5.408  18.440  0.00  0.00    +0.077 A 
ATOM      5  C   UNL     1       6.902   6.300  18.788  0.00  0.00    +0.048 A 
ATOM      6  C   UNL     1       6.961   7.615  18.274  0.00  0.00    +0.116 A 
ATOM      7  N   UNL     1       8.015   7.998  17.472  0.00  0.00    -0.223 NA
ATOM      8  C   UNL     1       9.030   7.113  17.158  0.00  0.00    +0.220 A 
ATOM      9  N   UNL     1      10.095   7.474  16.347  0.00  0.00    -0.283 N 
ATOM     36  H   UNL     1      10.827   6.794  16.144  0.00  0.00    +0.155 HD
ATOM     37  N   UNL     1       8.997   5.852  17.637  0.00  0.00    -0.214 NA
BRANCH   4   3
ATOM      1  C   UNL     1       7.790   2.187  20.653  0.00  0.00    +0.020 A 
ATOM      2  C   UNL     1       7.698   3.573  20.257  0.00  0.00    +0.013 A 
ATOM      3  C   UNL     1       8.047   3.986  18.903  0.00  0.00    +0.019 A 
ATOM     38  C   UNL     1       8.487   2.963  17.966  0.00  0.00    +0.120 A 
ATOM     39  N   UNL     1       8.566   1.636  18.376  0.00  0.00    -0.263 NA
ATOM     40  C   UNL     1       8.235   1.227  19.677  0.00  0.00    +0.111 A 
ENDBRANCH   4   3
ENDBRANCH  10   9
BRANCH  12  13
ATOM     13  N   UNL     1       9.171  10.598  12.587  0.00  0.00    -0.281 N 
ATOM     14  C   UNL     1       9.734  10.309  11.355  0.00  0.00    +0.248 C 
ATOM     30  O   UNL     1      10.889   9.942  11.192  0.00  0.00    -0.270 OA
ATOM     31  H   UNL     1       8.270  11.077  12.567  0.00  0.00    +0.155 HD
BRANCH  14  15
ATOM     15  C   UNL     1       8.900  10.464  10.125  0.00  0.00    +0.037 A 
ATOM     16  C   UNL     1       7.479  10.810  10.209  0.00  0.00    +0.013 A 
ATOM     17  C   UNL     1       6.693  10.937   9.008  0.00  0.00    +0.005 A 
ATOM     18  C   UNL     1       7.327  10.718   7.710  0.00  0.00    -0.033 A 
ATOM     28  C   UNL     1       8.740  10.381   7.655  0.00  0.00    +0.005 A 
ATOM     29  C   UNL     1       9.514  10.255   8.831  0.00  0.00    +0.013 A 
BRANCH  18  19
ATOM     19  C   UNL     1       6.561  10.812   6.378  0.00  0.00    +0.119 C 
BRANCH  19  20
ATOM     20  N   UNL     1       5.177  11.371   6.423  0.00  0.00    -0.302 NA
ATOM     21  C   UNL     1       4.318  10.874   5.256  0.00  0.00    +0.066 C 
ATOM     22  C   UNL     1       2.867  11.452   5.332  0.00  0.00    -0.064 C 
ATOM     23  N   UNL     1       2.929  12.980   5.346  0.00  0.00    +0.379 N 
ATOM     24  C   UNL     1       1.564  13.526   5.358  0.00  0.00    -0.096 C 
ATOM     25  H   UNL     1       3.416  13.307   4.398  0.00  0.00    -0.082 HD
ATOM     26  C   UNL     1       3.784  13.482   6.501  0.00  0.00    -0.064 C 
ATOM     27  C   UNL     1       5.215  12.880   6.433  0.00  0.00    +0.066 C 
ENDBRANCH  19  20
ENDBRANCH  18  19
ENDBRANCH  14  15
ENDBRANCH  12  13
TORSDOF 6
ENDMDL
