MODEL 1
REMARK VINA RESULT:     -12.1      0.000      0.000
REMARK  Name = C:\Users\Docking\Desktop\test protocol\1iep_ligandH.pdb
REMARK  8 active torsions:
REMARK  status: ('A' for Active; 'I' for Inactive)
REMARK    1  A    between atoms: _5  and  _11
REMARK    2  A    between atoms: _19  and  _21
REMARK    3  A    between atoms: _22  and  _66
REMARK    4  A    between atoms: _27  and  _30
REMARK    5  A    between atoms: _32  and  _33
REMARK    6  A    between atoms: _38  and  _43
REMARK    7  A    between atoms: _43  and  _46
REMARK    8  A    between atoms: _53  and  _55
REMARK                            x       y       z     vdW  Elec       q    Type
REMARK                         _______ _______ _______ _____ _____    ______ ____
ROOT
ATOM     10  C   UNL     1      15.537  54.041  12.681  0.00  0.00    +0.038 A 
ATOM     11  C   UNL     1      15.541  53.250  13.858  0.00  0.00    +0.047 A 
ATOM     12  C   UNL     1      16.546  52.219  14.069  0.00  0.00    +0.035 A 
ATOM     32  C   UNL     1      17.534  52.022  13.060  0.00  0.00    +0.024 A 
ATOM     33  C   UNL     1      17.544  52.816  11.857  0.00  0.00    +0.007 A 
ATOM     34  C   UNL     1      16.554  53.833  11.642  0.00  0.00    -0.029 A 
ATOM     35  C   UNL     1      16.609  54.650  10.331  0.00  0.00    +0.045 C 
ENDROOT
BRANCH  10   9
ATOM      4  C   UNL     1      14.022  58.592  12.852  0.00  0.00    +0.077 A 
ATOM      5  C   UNL     1      15.300  59.062  13.305  0.00  0.00    +0.048 A 
ATOM      6  C   UNL     1      16.318  58.100  13.488  0.00  0.00    +0.116 A 
ATOM      7  N   UNL     1      16.066  56.769  13.234  0.00  0.00    -0.223 NA
ATOM      8  C   UNL     1      14.822  56.349  12.800  0.00  0.00    +0.220 A 
ATOM      9  N   UNL     1      14.549  55.016  12.530  0.00  0.00    -0.283 N 
ATOM     36  H   UNL     1      13.617  54.746  12.219  0.00  0.00    +0.155 HD
ATOM     37  N   UNL     1      13.833  57.248  12.618  0.00  0.00    -0.214 NA
BRANCH   4   3
ATOM      1  C   UNL     1      11.660  61.708  12.756  0.00  0.00    +0.020 A 
ATOM      2  C   UNL     1      12.819  60.886  13.016  0.00  0.00    +0.013 A 
ATOM      3  C   UNL     1      12.847  59.487  12.608  0.00  0.00    +0.019 A 
ATOM     38  C   UNL     1      11.677  58.946  11.934  0.00  0.00    +0.120 A 
ATOM     39  N   UNL     1      10.574  59.761  11.699  0.00  0.00    -0.263 NA
ATOM     40  C   UNL     1      10.535  61.108  12.088  0.00  0.00    +0.111 A 
ENDBRANCH   4   3
ENDBRANCH  10   9
BRANCH  12  13
ATOM     13  N   UNL     1      16.595  51.380  15.240  0.00  0.00    -0.281 N 
ATOM     14  C   UNL     1      15.624  50.509  15.706  0.00  0.00    +0.248 C 
ATOM     30  O   UNL     1      14.471  50.479  15.300  0.00  0.00    -0.270 OA
ATOM     31  H   UNL     1      17.451  51.434  15.794  0.00  0.00    +0.155 HD
BRANCH  14  15
ATOM     15  C   UNL     1      15.979  49.542  16.789  0.00  0.00    +0.037 A 
ATOM     16  C   UNL     1      17.375  49.301  17.163  0.00  0.00    +0.013 A 
ATOM     17  C   UNL     1      17.691  48.350  18.200  0.00  0.00    +0.005 A 
ATOM     18  C   UNL     1      16.608  47.635  18.870  0.00  0.00    -0.033 A 
ATOM     28  C   UNL     1      15.232  47.897  18.482  0.00  0.00    +0.005 A 
ATOM     29  C   UNL     1      14.919  48.828  17.466  0.00  0.00    +0.013 A 
BRANCH  18  19
ATOM     19  C   UNL     1      16.854  46.587  19.972  0.00  0.00    +0.119 C 
BRANCH  19  20
ATOM     20  N   UNL     1      18.188  46.602  20.644  0.00  0.00    -0.302 NA
ATOM     21  C   UNL     1      19.076  45.442  20.183  0.00  0.00    +0.066 C 
ATOM     22  C   UNL     1      20.475  45.485  20.878  0.00  0.00    -0.064 C 
ATOM     23  N   UNL     1      20.289  45.454  22.396  0.00  0.00    +0.379 N 
ATOM     24  C   UNL     1      21.605  45.436  23.052  0.00  0.00    -0.096 C 
ATOM     25  H   UNL     1      19.769  44.502  22.653  0.00  0.00    -0.082 HD
ATOM     26  C   UNL     1      19.405  46.602  22.863  0.00  0.00    -0.064 C 
ATOM     27  C   UNL     1      18.028  46.567  22.144  0.00  0.00    +0.066 C 
ENDBRANCH  19  20
ENDBRANCH  18  19
ENDBRANCH  14  15
ENDBRANCH  12  13
TORSDOF 6
ENDMDL
MODEL 2
REMARK VINA RESULT:     -11.7      6.328     12.537
REMARK  Name = C:\Users\Docking\Desktop\test protocol\1iep_ligandH.pdb
REMARK  8 active torsions:
REMARK  status: ('A' for Active; 'I' for Inactive)
REMARK    1  A    between atoms: _5  and  _11
REMARK    2  A    between atoms: _19  and  _21
REMARK    3  A    between atoms: _22  and  _66
REMARK    4  A    between atoms: _27  and  _30
REMARK    5  A    between atoms: _32  and  _33
REMARK    6  A    between atoms: _38  and  _43
REMARK    7  A    between atoms: _43  and  _46
REMARK    8  A    between atoms: _53  and  _55
REMARK                            x       y       z     vdW  Elec       q    Type
REMARK                         _______ _______ _______ _____ _____    ______ ____
ROOT
ATOM     10  C   UNL     1      10.257  66.032  11.896  0.00  0.00    +0.038 A 
ATOM     11  C   UNL     1      10.585  64.659  12.025  0.00  0.00    +0.047 A 
ATOM     12  C   UNL     1      11.871  64.148  11.576  0.00  0.00    +0.035 A 
ATOM     32  C   UNL     1      12.800  65.065  11.003  0.00  0.00    +0.024 A 
ATOM     33  C   UNL     1      12.482  66.464  10.864  0.00  0.00    +0.007 A 
ATOM     34  C   UNL     1      11.214  66.973  11.302  0.00  0.00    -0.029 A 
ATOM     35  C   UNL     1      10.924  68.482  11.122  0.00  0.00    +0.045 C 
ENDROOT
BRANCH  10   9
ATOM      4  C   UNL     1       7.298  67.573  15.347  0.00  0.00    +0.077 A 
ATOM      5  C   UNL     1       8.320  67.474  16.349  0.00  0.00    +0.048 A 
ATOM      6  C   UNL     1       9.592  67.016  15.937  0.00  0.00    +0.116 A 
ATOM      7  N   UNL     1       9.813  66.684  14.618  0.00  0.00    -0.223 NA
ATOM      8  C   UNL     1       8.805  66.789  13.677  0.00  0.00    +0.220 A 
ATOM      9  N   UNL     1       9.007  66.469  12.343  0.00  0.00    -0.283 N 
ATOM     36  H   UNL     1       8.236  66.553  11.682  0.00  0.00    +0.155 HD
ATOM     37  N   UNL     1       7.582  67.223  14.046  0.00  0.00    -0.214 NA
BRANCH   4   3
ATOM      1  C   UNL     1       4.049  68.732  17.191  0.00  0.00    +0.020 A 
ATOM      2  C   UNL     1       5.403  68.277  16.976  0.00  0.00    +0.013 A 
ATOM      3  C   UNL     1       5.905  68.044  15.627  0.00  0.00    +0.019 A 
ATOM     38  C   UNL     1       5.004  68.283  14.510  0.00  0.00    +0.120 A 
ATOM     39  N   UNL     1       3.705  68.720  14.748  0.00  0.00    -0.263 NA
ATOM     40  C   UNL     1       3.210  68.946  16.041  0.00  0.00    +0.111 A 
ENDBRANCH   4   3
ENDBRANCH  10   9
BRANCH  12  13
ATOM     13  N   UNL     1      12.258  62.762  11.674  0.00  0.00    -0.281 N 
ATOM     14  C   UNL     1      12.138  61.919  12.767  0.00  0.00    +0.248 C 
ATOM     30  O   UNL     1      11.875  62.292  13.901  0.00  0.00    -0.270 OA
ATOM     31  H   UNL     1      12.669  62.352  10.835  0.00  0.00    +0.155 HD
BRANCH  14  15
ATOM     15  C   UNL     1      12.357  60.453  12.576  0.00  0.00    +0.037 A 
ATOM     16  C   UNL     1      11.590  59.693  11.585  0.00  0.00    +0.013 A 
ATOM     17  C   UNL     1      11.809  58.277  11.433  0.00  0.00    +0.005 A 
ATOM     18  C   UNL     1      12.801  57.611  12.274  0.00  0.00    -0.033 A 
ATOM     28  C   UNL     1      13.551  58.390  13.245  0.00  0.00    +0.005 A 
ATOM     29  C   UNL     1      13.339  59.778  13.398  0.00  0.00    +0.013 A 
BRANCH  18  19
ATOM     19  C   UNL     1      13.085  56.099  12.195  0.00  0.00    +0.119 C 
BRANCH  19  20
ATOM     20  N   UNL     1      14.354  55.609  12.810  0.00  0.00    -0.302 NA
ATOM     21  C   UNL     1      15.523  55.642  11.821  0.00  0.00    +0.066 C 
ATOM     22  C   UNL     1      16.847  55.147  12.488  0.00  0.00    -0.064 C 
ATOM     23  N   UNL     1      16.642  53.734  13.037  0.00  0.00    +0.379 N 
ATOM     24  C   UNL     1      17.902  53.243  13.613  0.00  0.00    -0.096 C 
ATOM     25  H   UNL     1      16.382  53.072  12.178  0.00  0.00    -0.082 HD
ATOM     26  C   UNL     1      15.480  53.691  14.019  0.00  0.00    -0.064 C 
ATOM     27  C   UNL     1      14.175  54.213  13.355  0.00  0.00    +0.066 C 
ENDBRANCH  19  20
ENDBRANCH  18  19
ENDBRANCH  14  15
ENDBRANCH  12  13
TORSDOF 6
ENDMDL
MODEL 3
REMARK VINA RESULT:     -10.0      8.653     18.839
REMARK  Name = C:\Users\Docking\Desktop\test protocol\1iep_ligandH.pdb
REMARK  8 active torsions:
REMARK  status: ('A' for Active; 'I' for Inactive)
REMARK    1  A    between atoms: _5  and  _11
REMARK    2  A    between atoms: _19  and  _21
REMARK    3  A    between atoms: _22  and  _66
REMARK    4  A    between atoms: _27  and  _30
REMARK    5  A    between atoms: _32  and  _33
REMARK    6  A    between atoms: _38  and  _43
REMARK    7  A    between atoms: _43  and  _46
REMARK    8  A    between atoms: _53  and  _55
REMARK                            x       y       z     vdW  Elec       q    Type
REMARK                         _______ _______ _______ _____ _____    ______ ____
ROOT
ATOM     10  C   UNL     1      11.759  64.672  12.080  0.00  0.00    +0.038 A 
ATOM     11  C   UNL     1      10.686  64.928  12.972  0.00  0.00    +0.047 A 
ATOM     12  C   UNL     1       9.790  66.055  12.767  0.00  0.00    +0.035 A 
ATOM     32  C   UNL     1      10.015  66.901  11.642  0.00  0.00    +0.024 A 
ATOM     33  C   UNL     1      11.101  66.657  10.727  0.00  0.00    +0.007 A 
ATOM     34  C   UNL     1      11.990  65.548  10.925  0.00  0.00    -0.029 A 
ATOM     35  C   UNL     1      13.142  65.337   9.915  0.00  0.00    +0.045 C 
ENDROOT
BRANCH  10   9
ATOM      4  C   UNL     1      12.536  59.949  12.435  0.00  0.00    +0.077 A 
ATOM      5  C   UNL     1      11.167  59.641  12.135  0.00  0.00    +0.048 A 
ATOM      6  C   UNL     1      10.294  60.728  11.903  0.00  0.00    +0.116 A 
ATOM      7  N   UNL     1      10.765  62.021  11.968  0.00  0.00    -0.223 NA
ATOM      8  C   UNL     1      12.091  62.283  12.261  0.00  0.00    +0.220 A 
ATOM      9  N   UNL     1      12.589  63.575  12.324  0.00  0.00    -0.283 N 
ATOM     36  H   UNL     1      13.571  63.727  12.551  0.00  0.00    +0.155 HD
ATOM     37  N   UNL     1      12.945  61.263  12.489  0.00  0.00    -0.214 NA
BRANCH   4   3
ATOM      1  C   UNL     1      15.859  58.185  13.507  0.00  0.00    +0.020 A 
ATOM      2  C   UNL     1      14.885  59.226  13.269  0.00  0.00    +0.013 A 
ATOM      3  C   UNL     1      13.581  58.910  12.701  0.00  0.00    +0.019 A 
ATOM     38  C   UNL     1      13.290  57.520  12.384  0.00  0.00    +0.120 A 
ATOM     39  N   UNL     1      14.247  56.539  12.622  0.00  0.00    -0.263 NA
ATOM     40  C   UNL     1      15.507  56.831  13.167  0.00  0.00    +0.111 A 
ENDBRANCH   4   3
ENDBRANCH  10   9
BRANCH  12  13
ATOM     13  N   UNL     1       8.688  66.369  13.643  0.00  0.00    -0.281 N 
ATOM     14  C   UNL     1       8.618  67.371  14.597  0.00  0.00    +0.248 C 
ATOM     30  O   UNL     1       9.576  68.018  14.992  0.00  0.00    -0.270 OA
ATOM     31  H   UNL     1       7.860  65.781  13.549  0.00  0.00    +0.155 HD
BRANCH  14  15
ATOM     15  C   UNL     1       7.293  67.690  15.212  0.00  0.00    +0.037 A 
ATOM     16  C   UNL     1       7.076  67.568  16.656  0.00  0.00    +0.013 A 
ATOM     17  C   UNL     1       5.784  67.866  17.221  0.00  0.00    +0.005 A 
ATOM     18  C   UNL     1       4.698  68.291  16.341  0.00  0.00    -0.033 A 
ATOM     28  C   UNL     1       4.943  68.409  14.913  0.00  0.00    +0.005 A 
ATOM     29  C   UNL     1       6.207  68.116  14.355  0.00  0.00    +0.013 A 
BRANCH  18  19
ATOM     19  C   UNL     1       3.282  68.609  16.854  0.00  0.00    +0.119 C 
BRANCH  19  20
ATOM     20  N   UNL     1       2.317  69.199  15.878  0.00  0.00    -0.302 NA
ATOM     21  C   UNL     1       1.619  70.441  16.439  0.00  0.00    +0.066 C 
ATOM     22  C   UNL     1       0.631  71.058  15.397  0.00  0.00    -0.064 C 
ATOM     23  N   UNL     1      -0.395  70.001  14.983  0.00  0.00    +0.379 N 
ATOM     24  C   UNL     1      -1.361  70.595  14.047  0.00  0.00    -0.096 C 
ATOM     25  H   UNL     1      -0.954  69.696  15.898  0.00  0.00    -0.082 HD
ATOM     26  C   UNL     1       0.291  68.762  14.426  0.00  0.00    -0.064 C 
ATOM     27  C   UNL     1       1.293  68.173  15.459  0.00  0.00    +0.066 C 
ENDBRANCH  19  20
ENDBRANCH  18  19
ENDBRANCH  14  15
ENDBRANCH  12  13
TORSDOF 6
ENDMDL
MODEL 4
REMARK VINA RESULT:      -9.7      6.475     12.926
REMARK  Name = C:\Users\Docking\Desktop\test protocol\1iep_ligandH.pdb
REMARK  8 active torsions:
REMARK  status: ('A' for Active; 'I' for Inactive)
REMARK    1  A    between atoms: _5  and  _11
REMARK    2  A    between atoms: _19  and  _21
REMARK    3  A    between atoms: _22  and  _66
REMARK    4  A    between atoms: _27  and  _30
REMARK    5  A    between atoms: _32  and  _33
REMARK    6  A    between atoms: _38  and  _43
REMARK    7  A    between atoms: _43  and  _46
REMARK    8  A    between atoms: _53  and  _55
REMARK                            x       y       z     vdW  Elec       q    Type
REMARK                         _______ _______ _______ _____ _____    ______ ____
ROOT
ATOM     10  C   UNL     1      10.697  66.455  11.723  0.00  0.00    +0.038 A 
ATOM     11  C   UNL     1      10.981  65.087  11.968  0.00  0.00    +0.047 A 
ATOM     12  C   UNL     1      12.182  64.461  11.436  0.00  0.00    +0.035 A 
ATOM     32  C   UNL     1      13.074  65.260  10.662  0.00  0.00    +0.024 A 
ATOM     33  C   UNL     1      12.800  66.651  10.404  0.00  0.00    +0.007 A 
ATOM     34  C   UNL     1      11.616  67.273  10.923  0.00  0.00    -0.029 A 
ATOM     35  C   UNL     1      11.370  68.767  10.608  0.00  0.00    +0.045 C 
ENDROOT
BRANCH  10   9
ATOM      4  C   UNL     1       6.163  67.975  11.316  0.00  0.00    +0.077 A 
ATOM      5  C   UNL     1       6.126  67.675   9.913  0.00  0.00    +0.048 A 
ATOM      6  C   UNL     1       7.297  67.137   9.334  0.00  0.00    +0.116 A 
ATOM      7  N   UNL     1       8.416  66.919  10.109  0.00  0.00    -0.223 NA
ATOM      8  C   UNL     1       8.418  67.222  11.458  0.00  0.00    +0.220 A 
ATOM      9  N   UNL     1       9.529  67.004  12.258  0.00  0.00    -0.283 N 
ATOM     36  H   UNL     1       9.494  67.247  13.247  0.00  0.00    +0.155 HD
ATOM     37  N   UNL     1       7.313  67.738  12.035  0.00  0.00    -0.214 NA
BRANCH   4   3
ATOM      1  C   UNL     1       2.808  69.779  12.203  0.00  0.00    +0.020 A 
ATOM      2  C   UNL     1       3.903  69.248  11.426  0.00  0.00    +0.013 A 
ATOM      3  C   UNL     1       5.004  68.545  12.073  0.00  0.00    +0.019 A 
ATOM     38  C   UNL     1       4.964  68.394  13.520  0.00  0.00    +0.120 A 
ATOM     39  N   UNL     1       3.896  68.917  14.242  0.00  0.00    -0.263 NA
ATOM     40  C   UNL     1       2.833  69.597  13.631  0.00  0.00    +0.111 A 
ENDBRANCH   4   3
ENDBRANCH  10   9
BRANCH  12  13
ATOM     13  N   UNL     1      12.520  63.075  11.645  0.00  0.00    -0.281 N 
ATOM     14  C   UNL     1      12.242  62.288  12.750  0.00  0.00    +0.248 C 
ATOM     30  O   UNL     1      11.847  62.718  13.824  0.00  0.00    -0.270 OA
ATOM     31  H   UNL     1      13.024  62.618  10.884  0.00  0.00    +0.155 HD
BRANCH  14  15
ATOM     15  C   UNL     1      12.448  60.810  12.655  0.00  0.00    +0.037 A 
ATOM     16  C   UNL     1      13.415  60.121  13.512  0.00  0.00    +0.013 A 
ATOM     17  C   UNL     1      13.606  58.697  13.388  0.00  0.00    +0.005 A 
ATOM     18  C   UNL     1      12.825  57.954  12.402  0.00  0.00    -0.033 A 
ATOM     28  C   UNL     1      11.869  58.662  11.568  0.00  0.00    +0.005 A 
ATOM     29  C   UNL     1      11.680  60.058  11.686  0.00  0.00    +0.013 A 
BRANCH  18  19
ATOM     19  C   UNL     1      12.978  56.436  12.185  0.00  0.00    +0.119 C 
BRANCH  19  20
ATOM     20  N   UNL     1      14.234  55.799  12.681  0.00  0.00    -0.302 NA
ATOM     21  C   UNL     1      15.301  55.704  11.586  0.00  0.00    +0.066 C 
ATOM     22  C   UNL     1      16.616  55.054  12.128  0.00  0.00    -0.064 C 
ATOM     23  N   UNL     1      16.301  53.671  12.699  0.00  0.00    +0.379 N 
ATOM     24  C   UNL     1      17.545  53.034  13.156  0.00  0.00    -0.096 C 
ATOM     25  H   UNL     1      15.888  53.050  11.870  0.00  0.00    -0.082 HD
ATOM     26  C   UNL     1      15.239  53.755  13.786  0.00  0.00    -0.064 C 
ATOM     27  C   UNL     1      13.947  54.429  13.245  0.00  0.00    +0.066 C 
ENDBRANCH  19  20
ENDBRANCH  18  19
ENDBRANCH  14  15
ENDBRANCH  12  13
TORSDOF 6
ENDMDL
MODEL 5
REMARK VINA RESULT:      -9.1      1.790      2.607
REMARK  Name = C:\Users\Docking\Desktop\test protocol\1iep_ligandH.pdb
REMARK  8 active torsions:
REMARK  status: ('A' for Active; 'I' for Inactive)
REMARK    1  A    between atoms: _5  and  _11
REMARK    2  A    between atoms: _19  and  _21
REMARK    3  A    between atoms: _22  and  _66
REMARK    4  A    between atoms: _27  and  _30
REMARK    5  A    between atoms: _32  and  _33
REMARK    6  A    between atoms: _38  and  _43
REMARK    7  A    between atoms: _43  and  _46
REMARK    8  A    between atoms: _53  and  _55
REMARK                            x       y       z     vdW  Elec       q    Type
REMARK                         _______ _______ _______ _____ _____    ______ ____
ROOT
ATOM     10  C   UNL     1      15.776  54.245  12.197  0.00  0.00    +0.038 A 
ATOM     11  C   UNL     1      15.826  53.389  13.327  0.00  0.00    +0.047 A 
ATOM     12  C   UNL     1      16.876  52.394  13.472  0.00  0.00    +0.035 A 
ATOM     32  C   UNL     1      17.862  52.298  12.447  0.00  0.00    +0.024 A 
ATOM     33  C   UNL     1      17.827  53.159  11.291  0.00  0.00    +0.007 A 
ATOM     34  C   UNL     1      16.791  54.141  11.141  0.00  0.00    -0.029 A 
ATOM     35  C   UNL     1      16.799  55.033   9.878  0.00  0.00    +0.045 C 
ENDROOT
BRANCH  10   9
ATOM      4  C   UNL     1      14.009  58.662  12.829  0.00  0.00    +0.077 A 
ATOM      5  C   UNL     1      15.234  59.134  13.407  0.00  0.00    +0.048 A 
ATOM      6  C   UNL     1      16.292  58.206  13.531  0.00  0.00    +0.116 A 
ATOM      7  N   UNL     1      16.127  56.906  13.104  0.00  0.00    -0.223 NA
ATOM      8  C   UNL     1      14.931  56.483  12.552  0.00  0.00    +0.220 A 
ATOM      9  N   UNL     1      14.746  55.183  12.109  0.00  0.00    -0.283 N 
ATOM     36  H   UNL     1      13.846  54.908  11.714  0.00  0.00    +0.155 HD
ATOM     37  N   UNL     1      13.905  57.350  12.424  0.00  0.00    -0.214 NA
BRANCH   4   3
ATOM      1  C   UNL     1      11.525  61.683  12.894  0.00  0.00    +0.020 A 
ATOM      2  C   UNL     1      12.715  60.894  13.115  0.00  0.00    +0.013 A 
ATOM      3  C   UNL     1      12.801  59.523  12.628  0.00  0.00    +0.019 A 
ATOM     38  C   UNL     1      11.656  58.977  11.915  0.00  0.00    +0.120 A 
ATOM     39  N   UNL     1      10.523  59.760  11.719  0.00  0.00    -0.263 NA
ATOM     40  C   UNL     1      10.428  61.080  12.184  0.00  0.00    +0.111 A 
ENDBRANCH   4   3
ENDBRANCH  10   9
BRANCH  12  13
ATOM     13  N   UNL     1      16.973  51.492  14.593  0.00  0.00    -0.281 N 
ATOM     14  C   UNL     1      15.977  51.134  15.486  0.00  0.00    +0.248 C 
ATOM     30  O   UNL     1      14.899  51.702  15.584  0.00  0.00    -0.270 OA
ATOM     31  H   UNL     1      17.887  51.067  14.747  0.00  0.00    +0.155 HD
BRANCH  14  15
ATOM     15  C   UNL     1      16.217  49.988  16.414  0.00  0.00    +0.037 A 
ATOM     16  C   UNL     1      15.204  48.949  16.619  0.00  0.00    +0.013 A 
ATOM     17  C   UNL     1      15.455  47.864  17.533  0.00  0.00    +0.005 A 
ATOM     18  C   UNL     1      16.727  47.810  18.249  0.00  0.00    -0.033 A 
ATOM     28  C   UNL     1      17.717  48.850  18.024  0.00  0.00    +0.005 A 
ATOM     29  C   UNL     1      17.474  49.917  17.129  0.00  0.00    +0.013 A 
BRANCH  18  19
ATOM     19  C   UNL     1      17.072  46.700  19.260  0.00  0.00    +0.119 C 
BRANCH  19  20
ATOM     20  N   UNL     1      15.936  45.911  19.823  0.00  0.00    -0.302 NA
ATOM     21  C   UNL     1      14.842  46.812  20.403  0.00  0.00    +0.066 C 
ATOM     22  C   UNL     1      13.651  45.971  20.967  0.00  0.00    -0.064 C 
ATOM     23  N   UNL     1      14.174  45.002  22.029  0.00  0.00    +0.379 N 
ATOM     24  C   UNL     1      13.048  44.250  22.603  0.00  0.00    -0.096 C 
ATOM     25  H   UNL     1      14.628  45.609  22.847  0.00  0.00    -0.082 HD
ATOM     26  C   UNL     1      15.263  44.104  21.462  0.00  0.00    -0.064 C 
ATOM     27  C   UNL     1      16.429  44.950  20.877  0.00  0.00    +0.066 C 
ENDBRANCH  19  20
ENDBRANCH  18  19
ENDBRANCH  14  15
ENDBRANCH  12  13
TORSDOF 6
ENDMDL
