MODEL 1
REMARK VINA RESULT:      -8.2      0.000      0.000
REMARK  Name = C:\Users\Docking\Desktop\test protocol\1iep_ligandH.pdb
REMARK  8 active torsions:
REMARK  status: ('A' for Active; 'I' for Inactive)
REMARK    1  A    between atoms: _5  and  _11
REMARK    2  A    between atoms: _19  and  _21
REMARK    3  A    between atoms: _22  and  _66
REMARK    4  A    between atoms: _27  and  _30
REMARK    5  A    between atoms: _32  and  _33
REMARK    6  A    between atoms: _38  and  _43
REMARK    7  A    between atoms: _43  and  _46
REMARK    8  A    between atoms: _53  and  _55
REMARK                            x       y       z     vdW  Elec       q    Type
REMARK                         _______ _______ _______ _____ _____    ______ ____
ROOT
ATOM     10  C   UNL     1      35.599  15.988   1.739  0.00  0.00    +0.038 A 
ATOM     11  C   UNL     1      35.738  17.294   1.203  0.00  0.00    +0.047 A 
ATOM     12  C   UNL     1      35.162  17.644  -0.086  0.00  0.00    +0.035 A 
ATOM     32  C   UNL     1      34.448  16.639  -0.802  0.00  0.00    +0.024 A 
ATOM     33  C   UNL     1      34.297  15.306  -0.272  0.00  0.00    +0.007 A 
ATOM     34  C   UNL     1      34.866  14.955   0.998  0.00  0.00    -0.029 A 
ATOM     35  C   UNL     1      34.679  13.509   1.514  0.00  0.00    +0.045 C 
ENDROOT
BRANCH  10   9
ATOM      4  C   UNL     1      35.514  15.991   6.538  0.00  0.00    +0.077 A 
ATOM      5  C   UNL     1      34.230  16.630   6.574  0.00  0.00    +0.048 A 
ATOM      6  C   UNL     1      33.629  16.948   5.335  0.00  0.00    +0.116 A 
ATOM      7  N   UNL     1      34.272  16.644   4.155  0.00  0.00    -0.223 NA
ATOM      8  C   UNL     1      35.511  16.029   4.156  0.00  0.00    +0.220 A 
ATOM      9  N   UNL     1      36.172  15.708   2.981  0.00  0.00    -0.283 N 
ATOM     36  H   UNL     1      37.088  15.261   3.024  0.00  0.00    +0.155 HD
ATOM     37  N   UNL     1      36.106  15.717   5.326  0.00  0.00    -0.214 NA
BRANCH   4   3
ATOM      1  C   UNL     1      38.409  15.024   8.984  0.00  0.00    +0.020 A 
ATOM      2  C   UNL     1      37.722  15.412   7.774  0.00  0.00    +0.013 A 
ATOM      3  C   UNL     1      36.275  15.590   7.763  0.00  0.00    +0.019 A 
ATOM     38  C   UNL     1      35.548  15.367   9.004  0.00  0.00    +0.120 A 
ATOM     39  N   UNL     1      36.237  14.992  10.153  0.00  0.00    -0.263 NA
ATOM     40  C   UNL     1      37.628  14.816  10.175  0.00  0.00    +0.111 A 
ENDBRANCH   4   3
ENDBRANCH  10   9
BRANCH  12  13
ATOM     13  N   UNL     1      35.278  18.950  -0.685  0.00  0.00    -0.281 N 
ATOM     14  C   UNL     1      36.364  19.486  -1.357  0.00  0.00    +0.248 C 
ATOM     30  O   UNL     1      37.484  18.997  -1.360  0.00  0.00    -0.270 OA
ATOM     31  H   UNL     1      34.460  19.554  -0.603  0.00  0.00    +0.155 HD
BRANCH  14  15
ATOM     15  C   UNL     1      36.184  20.755  -2.125  0.00  0.00    +0.037 A 
ATOM     16  C   UNL     1      37.329  21.460  -2.708  0.00  0.00    +0.013 A 
ATOM     17  C   UNL     1      37.128  22.692  -3.430  0.00  0.00    +0.005 A 
ATOM     18  C   UNL     1      35.776  23.226  -3.574  0.00  0.00    -0.033 A 
ATOM     28  C   UNL     1      34.658  22.503  -2.990  0.00  0.00    +0.005 A 
ATOM     29  C   UNL     1      34.851  21.296  -2.281  0.00  0.00    +0.013 A 
BRANCH  18  19
ATOM     19  C   UNL     1      35.472  24.544  -4.309  0.00  0.00    +0.119 C 
BRANCH  19  20
ATOM     20  N   UNL     1      34.621  25.544  -3.597  0.00  0.00    -0.302 NA
ATOM     21  C   UNL     1      33.428  25.991  -4.446  0.00  0.00    +0.066 C 
ATOM     22  C   UNL     1      32.536  27.019  -3.677  0.00  0.00    -0.064 C 
ATOM     23  N   UNL     1      33.388  28.221  -3.265  0.00  0.00    +0.379 N 
ATOM     24  C   UNL     1      32.540  29.216  -2.593  0.00  0.00    -0.096 C 
ATOM     25  H   UNL     1      33.785  28.688  -4.196  0.00  0.00    -0.082 HD
ATOM     26  C   UNL     1      34.578  27.785  -2.423  0.00  0.00    -0.064 C 
ATOM     27  C   UNL     1      35.442  26.741  -3.185  0.00  0.00    +0.066 C 
ENDBRANCH  19  20
ENDBRANCH  18  19
ENDBRANCH  14  15
ENDBRANCH  12  13
TORSDOF 6
ENDMDL
MODEL 2
REMARK VINA RESULT:      -8.2      1.426      2.145
REMARK  Name = C:\Users\Docking\Desktop\test protocol\1iep_ligandH.pdb
REMARK  8 active torsions:
REMARK  status: ('A' for Active; 'I' for Inactive)
REMARK    1  A    between atoms: _5  and  _11
REMARK    2  A    between atoms: _19  and  _21
REMARK    3  A    between atoms: _22  and  _66
REMARK    4  A    between atoms: _27  and  _30
REMARK    5  A    between atoms: _32  and  _33
REMARK    6  A    between atoms: _38  and  _43
REMARK    7  A    between atoms: _43  and  _46
REMARK    8  A    between atoms: _53  and  _55
REMARK                            x       y       z     vdW  Elec       q    Type
REMARK                         _______ _______ _______ _____ _____    ______ ____
ROOT
ATOM     10  C   UNL     1      35.868  15.476   2.824  0.00  0.00    +0.038 A 
ATOM     11  C   UNL     1      36.187  16.660   2.111  0.00  0.00    +0.047 A 
ATOM     12  C   UNL     1      35.400  17.081   0.962  0.00  0.00    +0.035 A 
ATOM     32  C   UNL     1      34.294  16.272   0.568  0.00  0.00    +0.024 A 
ATOM     33  C   UNL     1      33.957  15.065   1.281  0.00  0.00    +0.007 A 
ATOM     34  C   UNL     1      34.731  14.644   2.414  0.00  0.00    -0.029 A 
ATOM     35  C   UNL     1      34.328  13.338   3.137  0.00  0.00    +0.045 C 
ENDROOT
BRANCH  10   9
ATOM      4  C   UNL     1      36.853  15.516   7.522  0.00  0.00    +0.077 A 
ATOM      5  C   UNL     1      35.715  16.339   7.814  0.00  0.00    +0.048 A 
ATOM      6  C   UNL     1      34.905  16.736   6.726  0.00  0.00    +0.116 A 
ATOM      7  N   UNL     1      35.220  16.334   5.446  0.00  0.00    -0.223 NA
ATOM      8  C   UNL     1      36.326  15.542   5.199  0.00  0.00    +0.220 A 
ATOM      9  N   UNL     1      36.657  15.120   3.921  0.00  0.00    -0.283 N 
ATOM     36  H   UNL     1      37.486  14.543   3.779  0.00  0.00    +0.155 HD
ATOM     37  N   UNL     1      37.116  15.151   6.220  0.00  0.00    -0.214 NA
BRANCH   4   3
ATOM      1  C   UNL     1      39.684  15.328  10.214  0.00  0.00    +0.020 A 
ATOM      2  C   UNL     1      38.791  15.864   9.213  0.00  0.00    +0.013 A 
ATOM      3  C   UNL     1      37.802  15.013   8.565  0.00  0.00    +0.019 A 
ATOM     38  C   UNL     1      37.741  13.612   8.956  0.00  0.00    +0.120 A 
ATOM     39  N   UNL     1      38.615  13.124   9.923  0.00  0.00    -0.263 NA
ATOM     40  C   UNL     1      39.572  13.934  10.552  0.00  0.00    +0.111 A 
ENDBRANCH   4   3
ENDBRANCH  10   9
BRANCH  12  13
ATOM     13  N   UNL     1      35.681  18.268   0.194  0.00  0.00    -0.281 N 
ATOM     14  C   UNL     1      36.662  18.449  -0.767  0.00  0.00    +0.248 C 
ATOM     30  O   UNL     1      37.590  17.678  -0.961  0.00  0.00    -0.270 OA
ATOM     31  H   UNL     1      35.083  19.074   0.382  0.00  0.00    +0.155 HD
BRANCH  14  15
ATOM     15  C   UNL     1      36.613  19.670  -1.628  0.00  0.00    +0.037 A 
ATOM     16  C   UNL     1      35.337  20.248  -2.056  0.00  0.00    +0.013 A 
ATOM     17  C   UNL     1      35.318  21.416  -2.900  0.00  0.00    +0.005 A 
ATOM     18  C   UNL     1      36.582  22.016  -3.321  0.00  0.00    -0.033 A 
ATOM     28  C   UNL     1      37.834  21.425  -2.877  0.00  0.00    +0.005 A 
ATOM     29  C   UNL     1      37.856  20.280  -2.051  0.00  0.00    +0.013 A 
BRANCH  18  19
ATOM     19  C   UNL     1      36.658  23.250  -4.238  0.00  0.00    +0.119 C 
BRANCH  19  20
ATOM     20  N   UNL     1      36.304  24.571  -3.638  0.00  0.00    -0.302 NA
ATOM     21  C   UNL     1      36.511  24.587  -2.121  0.00  0.00    +0.066 C 
ATOM     22  C   UNL     1      36.158  25.983  -1.512  0.00  0.00    -0.064 C 
ATOM     23  N   UNL     1      34.713  26.339  -1.865  0.00  0.00    +0.379 N 
ATOM     24  C   UNL     1      34.359  27.624  -1.245  0.00  0.00    -0.096 C 
ATOM     25  H   UNL     1      34.054  25.556  -1.422  0.00  0.00    -0.082 HD
ATOM     26  C   UNL     1      34.497  26.323  -3.372  0.00  0.00    -0.064 C 
ATOM     27  C   UNL     1      34.880  24.941  -3.971  0.00  0.00    +0.066 C 
ENDBRANCH  19  20
ENDBRANCH  18  19
ENDBRANCH  14  15
ENDBRANCH  12  13
TORSDOF 6
ENDMDL
MODEL 3
REMARK VINA RESULT:      -7.5      2.094     12.600
REMARK  Name = C:\Users\Docking\Desktop\test protocol\1iep_ligandH.pdb
REMARK  8 active torsions:
REMARK  status: ('A' for Active; 'I' for Inactive)
REMARK    1  A    between atoms: _5  and  _11
REMARK    2  A    between atoms: _19  and  _21
REMARK    3  A    between atoms: _22  and  _66
REMARK    4  A    between atoms: _27  and  _30
REMARK    5  A    between atoms: _32  and  _33
REMARK    6  A    between atoms: _38  and  _43
REMARK    7  A    between atoms: _43  and  _46
REMARK    8  A    between atoms: _53  and  _55
REMARK                            x       y       z     vdW  Elec       q    Type
REMARK                         _______ _______ _______ _____ _____    ______ ____
ROOT
ATOM     10  C   UNL     1      35.927  24.055  -3.773  0.00  0.00    +0.038 A 
ATOM     11  C   UNL     1      35.675  23.036  -2.819  0.00  0.00    +0.047 A 
ATOM     12  C   UNL     1      36.177  21.684  -3.011  0.00  0.00    +0.035 A 
ATOM     32  C   UNL     1      36.936  21.406  -4.185  0.00  0.00    +0.024 A 
ATOM     33  C   UNL     1      37.201  22.429  -5.166  0.00  0.00    +0.007 A 
ATOM     34  C   UNL     1      36.706  23.764  -4.983  0.00  0.00    -0.029 A 
ATOM     35  C   UNL     1      37.015  24.819  -6.070  0.00  0.00    +0.045 C 
ENDROOT
BRANCH  10   9
ATOM      4  C   UNL     1      36.161  28.389  -1.724  0.00  0.00    +0.077 A 
ATOM      5  C   UNL     1      37.381  28.066  -1.043  0.00  0.00    +0.048 A 
ATOM      6  C   UNL     1      37.912  26.772  -1.240  0.00  0.00    +0.116 A 
ATOM      7  N   UNL     1      37.263  25.875  -2.061  0.00  0.00    -0.223 NA
ATOM      8  C   UNL     1      36.087  26.218  -2.702  0.00  0.00    +0.220 A 
ATOM      9  N   UNL     1      35.421  25.335  -3.538  0.00  0.00    -0.283 N 
ATOM     36  H   UNL     1      34.552  25.624  -3.987  0.00  0.00    +0.155 HD
ATOM     37  N   UNL     1      35.559  27.448  -2.529  0.00  0.00    -0.214 NA
BRANCH   4   3
ATOM      1  C   UNL     1      35.476  32.240  -1.657  0.00  0.00    +0.020 A 
ATOM      2  C   UNL     1      36.183  30.984  -1.768  0.00  0.00    +0.013 A 
ATOM      3  C   UNL     1      35.478  29.717  -1.619  0.00  0.00    +0.019 A 
ATOM     38  C   UNL     1      34.047  29.755  -1.357  0.00  0.00    +0.120 A 
ATOM     39  N   UNL     1      33.393  30.979  -1.254  0.00  0.00    -0.263 NA
ATOM     40  C   UNL     1      34.061  32.205  -1.394  0.00  0.00    +0.111 A 
ENDBRANCH   4   3
ENDBRANCH  10   9
BRANCH  12  13
ATOM     13  N   UNL     1      35.946  20.607  -2.081  0.00  0.00    -0.281 N 
ATOM     14  C   UNL     1      35.065  19.546  -2.209  0.00  0.00    +0.248 C 
ATOM     30  O   UNL     1      34.183  19.478  -3.052  0.00  0.00    -0.270 OA
ATOM     31  H   UNL     1      36.499  20.630  -1.224  0.00  0.00    +0.155 HD
BRANCH  14  15
ATOM     15  C   UNL     1      35.169  18.401  -1.253  0.00  0.00    +0.037 A 
ATOM     16  C   UNL     1      34.431  17.155  -1.477  0.00  0.00    +0.013 A 
ATOM     17  C   UNL     1      34.537  16.073  -0.530  0.00  0.00    +0.005 A 
ATOM     18  C   UNL     1      35.386  16.232   0.648  0.00  0.00    -0.033 A 
ATOM     28  C   UNL     1      36.111  17.477   0.842  0.00  0.00    +0.005 A 
ATOM     29  C   UNL     1      36.009  18.540  -0.083  0.00  0.00    +0.013 A 
BRANCH  18  19
ATOM     19  C   UNL     1      35.541  15.138   1.721  0.00  0.00    +0.119 C 
BRANCH  19  20
ATOM     20  N   UNL     1      35.902  15.580   3.101  0.00  0.00    -0.302 NA
ATOM     21  C   UNL     1      36.673  14.501   3.866  0.00  0.00    +0.066 C 
ATOM     22  C   UNL     1      37.063  14.988   5.300  0.00  0.00    -0.064 C 
ATOM     23  N   UNL     1      35.797  15.391   6.059  0.00  0.00    +0.379 N 
ATOM     24  C   UNL     1      36.154  15.795   7.427  0.00  0.00    -0.096 C 
ATOM     25  H   UNL     1      35.145  14.490   6.132  0.00  0.00    -0.082 HD
ATOM     26  C   UNL     1      35.023  16.461   5.304  0.00  0.00    -0.064 C 
ATOM     27  C   UNL     1      34.667  15.978   3.871  0.00  0.00    +0.066 C 
ENDBRANCH  19  20
ENDBRANCH  18  19
ENDBRANCH  14  15
ENDBRANCH  12  13
TORSDOF 6
ENDMDL
MODEL 4
REMARK VINA RESULT:      -7.5      3.426     11.638
REMARK  Name = C:\Users\Docking\Desktop\test protocol\1iep_ligandH.pdb
REMARK  8 active torsions:
REMARK  status: ('A' for Active; 'I' for Inactive)
REMARK    1  A    between atoms: _5  and  _11
REMARK    2  A    between atoms: _19  and  _21
REMARK    3  A    between atoms: _22  and  _66
REMARK    4  A    between atoms: _27  and  _30
REMARK    5  A    between atoms: _32  and  _33
REMARK    6  A    between atoms: _38  and  _43
REMARK    7  A    between atoms: _43  and  _46
REMARK    8  A    between atoms: _53  and  _55
REMARK                            x       y       z     vdW  Elec       q    Type
REMARK                         _______ _______ _______ _____ _____    ______ ____
ROOT
ATOM     10  C   UNL     1      36.233  17.075   0.109  0.00  0.00    +0.038 A 
ATOM     11  C   UNL     1      35.780  17.272   1.439  0.00  0.00    +0.047 A 
ATOM     12  C   UNL     1      35.098  16.213   2.166  0.00  0.00    +0.035 A 
ATOM     32  C   UNL     1      34.896  14.964   1.510  0.00  0.00    +0.024 A 
ATOM     33  C   UNL     1      35.349  14.747   0.158  0.00  0.00    +0.007 A 
ATOM     34  C   UNL     1      36.020  15.788  -0.565  0.00  0.00    -0.029 A 
ATOM     35  C   UNL     1      36.479  15.501  -2.014  0.00  0.00    +0.045 C 
ENDROOT
BRANCH  10   9
ATOM      4  C   UNL     1      36.219  20.966  -2.701  0.00  0.00    +0.077 A 
ATOM      5  C   UNL     1      34.802  20.882  -2.911  0.00  0.00    +0.048 A 
ATOM      6  C   UNL     1      34.115  19.818  -2.283  0.00  0.00    +0.116 A 
ATOM      7  N   UNL     1      34.804  18.912  -1.506  0.00  0.00    -0.223 NA
ATOM      8  C   UNL     1      36.170  19.021  -1.326  0.00  0.00    +0.220 A 
ATOM      9  N   UNL     1      36.882  18.126  -0.542  0.00  0.00    -0.283 N 
ATOM     36  H   UNL     1      37.891  18.236  -0.440  0.00  0.00    +0.155 HD
ATOM     37  N   UNL     1      36.849  20.027  -1.916  0.00  0.00    -0.214 NA
BRANCH   4   3
ATOM      1  C   UNL     1      37.486  23.975  -4.855  0.00  0.00    +0.020 A 
ATOM      2  C   UNL     1      36.610  22.960  -4.316  0.00  0.00    +0.013 A 
ATOM      3  C   UNL     1      37.083  22.035  -3.294  0.00  0.00    +0.019 A 
ATOM     38  C   UNL     1      38.458  22.164  -2.836  0.00  0.00    +0.120 A 
ATOM     39  N   UNL     1      39.279  23.150  -3.374  0.00  0.00    -0.263 NA
ATOM     40  C   UNL     1      38.835  24.046  -4.359  0.00  0.00    +0.111 A 
ENDBRANCH   4   3
ENDBRANCH  10   9
BRANCH  12  13
ATOM     13  N   UNL     1      34.609  16.358   3.515  0.00  0.00    -0.281 N 
ATOM     14  C   UNL     1      35.321  16.237   4.697  0.00  0.00    +0.248 C 
ATOM     30  O   UNL     1      36.448  15.773   4.780  0.00  0.00    -0.270 OA
ATOM     31  H   UNL     1      33.617  16.577   3.609  0.00  0.00    +0.155 HD
BRANCH  14  15
ATOM     15  C   UNL     1      34.683  16.683   5.973  0.00  0.00    +0.037 A 
ATOM     16  C   UNL     1      35.382  16.561   7.255  0.00  0.00    +0.013 A 
ATOM     17  C   UNL     1      34.737  16.983   8.473  0.00  0.00    +0.005 A 
ATOM     18  C   UNL     1      33.385  17.534   8.414  0.00  0.00    -0.033 A 
ATOM     28  C   UNL     1      32.717  17.649   7.128  0.00  0.00    +0.005 A 
ATOM     29  C   UNL     1      33.346  17.235   5.932  0.00  0.00    +0.013 A 
BRANCH  18  19
ATOM     19  C   UNL     1      32.613  17.990   9.666  0.00  0.00    +0.119 C 
BRANCH  19  20
ATOM     20  N   UNL     1      33.158  19.160  10.417  0.00  0.00    -0.302 NA
ATOM     21  C   UNL     1      33.717  18.756  11.784  0.00  0.00    +0.066 C 
ATOM     22  C   UNL     1      34.303  19.989  12.546  0.00  0.00    -0.064 C 
ATOM     23  N   UNL     1      33.216  21.054  12.699  0.00  0.00    +0.379 N 
ATOM     24  C   UNL     1      33.747  22.191  13.466  0.00  0.00    -0.096 C 
ATOM     25  H   UNL     1      32.384  20.606  13.291  0.00  0.00    -0.082 HD
ATOM     26  C   UNL     1      32.652  21.460  11.345  0.00  0.00    -0.064 C 
ATOM     27  C   UNL     1      32.099  20.223  10.583  0.00  0.00    +0.066 C 
ENDBRANCH  19  20
ENDBRANCH  18  19
ENDBRANCH  14  15
ENDBRANCH  12  13
TORSDOF 6
ENDMDL
MODEL 5
REMARK VINA RESULT:      -7.5      6.681     12.322
REMARK  Name = C:\Users\Docking\Desktop\test protocol\1iep_ligandH.pdb
REMARK  8 active torsions:
REMARK  status: ('A' for Active; 'I' for Inactive)
REMARK    1  A    between atoms: _5  and  _11
REMARK    2  A    between atoms: _19  and  _21
REMARK    3  A    between atoms: _22  and  _66
REMARK    4  A    between atoms: _27  and  _30
REMARK    5  A    between atoms: _32  and  _33
REMARK    6  A    between atoms: _38  and  _43
REMARK    7  A    between atoms: _43  and  _46
REMARK    8  A    between atoms: _53  and  _55
REMARK                            x       y       z     vdW  Elec       q    Type
REMARK                         _______ _______ _______ _____ _____    ______ ____
ROOT
ATOM     10  C   UNL     1      34.460  26.249  -2.020  0.00  0.00    +0.038 A 
ATOM     11  C   UNL     1      35.320  25.139  -1.823  0.00  0.00    +0.047 A 
ATOM     12  C   UNL     1      35.568  24.180  -2.889  0.00  0.00    +0.035 A 
ATOM     32  C   UNL     1      34.925  24.385  -4.144  0.00  0.00    +0.024 A 
ATOM     33  C   UNL     1      34.047  25.507  -4.362  0.00  0.00    +0.007 A 
ATOM     34  C   UNL     1      33.797  26.455  -3.314  0.00  0.00    -0.029 A 
ATOM     35  C   UNL     1      32.841  27.636  -3.601  0.00  0.00    +0.045 C 
ENDROOT
BRANCH  10   9
ATOM      4  C   UNL     1      35.743  30.046   0.621  0.00  0.00    +0.077 A 
ATOM      5  C   UNL     1      36.930  30.260  -0.155  0.00  0.00    +0.048 A 
ATOM      6  C   UNL     1      37.178  29.366  -1.221  0.00  0.00    +0.116 A 
ATOM      7  N   UNL     1      36.297  28.339  -1.482  0.00  0.00    -0.223 NA
ATOM      8  C   UNL     1      35.162  28.160  -0.713  0.00  0.00    +0.220 A 
ATOM      9  N   UNL     1      34.258  27.139  -0.963  0.00  0.00    -0.283 N 
ATOM     36  H   UNL     1      33.437  27.036  -0.367  0.00  0.00    +0.155 HD
ATOM     37  N   UNL     1      34.904  28.999   0.311  0.00  0.00    -0.214 NA
BRANCH   4   3
ATOM      1  C   UNL     1      35.269  31.455   4.239  0.00  0.00    +0.020 A 
ATOM      2  C   UNL     1      35.681  30.588   3.159  0.00  0.00    +0.013 A 
ATOM      3  C   UNL     1      35.342  30.908   1.778  0.00  0.00    +0.019 A 
ATOM     38  C   UNL     1      34.581  32.121   1.522  0.00  0.00    +0.120 A 
ATOM     39  N   UNL     1      34.197  32.936   2.583  0.00  0.00    -0.263 NA
ATOM     40  C   UNL     1      34.516  32.638   3.916  0.00  0.00    +0.111 A 
ENDBRANCH   4   3
ENDBRANCH  10   9
BRANCH  12  13
ATOM     13  N   UNL     1      36.425  23.029  -2.744  0.00  0.00    -0.281 N 
ATOM     14  C   UNL     1      37.725  22.874  -3.195  0.00  0.00    +0.248 C 
ATOM     30  O   UNL     1      38.279  23.627  -3.982  0.00  0.00    -0.270 OA
ATOM     31  H   UNL     1      36.023  22.233  -2.249  0.00  0.00    +0.155 HD
BRANCH  14  15
ATOM     15  C   UNL     1      38.522  21.705  -2.713  0.00  0.00    +0.037 A 
ATOM     16  C   UNL     1      39.986  21.717  -2.745  0.00  0.00    +0.013 A 
ATOM     17  C   UNL     1      40.730  20.569  -2.290  0.00  0.00    +0.005 A 
ATOM     18  C   UNL     1      40.009  19.399  -1.797  0.00  0.00    -0.033 A 
ATOM     28  C   UNL     1      38.555  19.415  -1.771  0.00  0.00    +0.005 A 
ATOM     29  C   UNL     1      37.823  20.538  -2.217  0.00  0.00    +0.013 A 
BRANCH  18  19
ATOM     19  C   UNL     1      40.720  18.122  -1.311  0.00  0.00    +0.119 C 
BRANCH  19  20
ATOM     20  N   UNL     1      40.845  16.996  -2.285  0.00  0.00    -0.302 NA
ATOM     21  C   UNL     1      41.021  17.497  -3.721  0.00  0.00    +0.066 C 
ATOM     22  C   UNL     1      41.173  16.307  -4.724  0.00  0.00    -0.064 C 
ATOM     23  N   UNL     1      39.952  15.392  -4.615  0.00  0.00    +0.379 N 
ATOM     24  C   UNL     1      40.064  14.304  -5.597  0.00  0.00    -0.096 C 
ATOM     25  H   UNL     1      39.053  15.996  -4.880  0.00  0.00    -0.082 HD
ATOM     26  C   UNL     1      39.768  14.893  -3.189  0.00  0.00    -0.064 C 
ATOM     27  C   UNL     1      39.647  16.083  -2.197  0.00  0.00    +0.066 C 
ENDBRANCH  19  20
ENDBRANCH  18  19
ENDBRANCH  14  15
ENDBRANCH  12  13
TORSDOF 6
ENDMDL
