MODEL 1
REMARK VINA RESULT:      -8.8      0.000      0.000
REMARK  Name = C:\Users\Docking\Desktop\test protocol\1iep_ligandH.pdb
REMARK  8 active torsions:
REMARK  status: ('A' for Active; 'I' for Inactive)
REMARK    1  A    between atoms: _5  and  _11
REMARK    2  A    between atoms: _19  and  _21
REMARK    3  A    between atoms: _22  and  _66
REMARK    4  A    between atoms: _27  and  _30
REMARK    5  A    between atoms: _32  and  _33
REMARK    6  A    between atoms: _38  and  _43
REMARK    7  A    between atoms: _43  and  _46
REMARK    8  A    between atoms: _53  and  _55
REMARK                            x       y       z     vdW  Elec       q    Type
REMARK                         _______ _______ _______ _____ _____    ______ ____
ROOT
ATOM     10  C   UNL     1      21.841  32.571  38.384  0.00  0.00    +0.038 A 
ATOM     11  C   UNL     1      23.048  32.116  38.972  0.00  0.00    +0.047 A 
ATOM     12  C   UNL     1      23.576  30.792  38.677  0.00  0.00    +0.035 A 
ATOM     32  C   UNL     1      22.849  29.960  37.777  0.00  0.00    +0.024 A 
ATOM     33  C   UNL     1      21.619  30.407  37.172  0.00  0.00    +0.007 A 
ATOM     34  C   UNL     1      21.092  31.710  37.461  0.00  0.00    -0.029 A 
ATOM     35  C   UNL     1      19.766  32.134  36.788  0.00  0.00    +0.045 C 
ENDROOT
BRANCH  10   9
ATOM      4  C   UNL     1      21.660  37.310  37.645  0.00  0.00    +0.077 A 
ATOM      5  C   UNL     1      22.583  37.234  36.549  0.00  0.00    +0.048 A 
ATOM      6  C   UNL     1      23.087  35.957  36.212  0.00  0.00    +0.116 A 
ATOM      7  N   UNL     1      22.689  34.847  36.925  0.00  0.00    -0.223 NA
ATOM      8  C   UNL     1      21.799  34.955  37.977  0.00  0.00    +0.220 A 
ATOM      9  N   UNL     1      21.380  33.851  38.702  0.00  0.00    -0.283 N 
ATOM     36  H   UNL     1      20.727  33.974  39.476  0.00  0.00    +0.155 HD
ATOM     37  N   UNL     1      21.305  36.163  38.319  0.00  0.00    -0.214 NA
BRANCH   4   3
ATOM      1  C   UNL     1      20.826  40.500  39.750  0.00  0.00    +0.020 A 
ATOM      2  C   UNL     1      21.459  39.268  39.337  0.00  0.00    +0.013 A 
ATOM      3  C   UNL     1      21.039  38.587  38.118  0.00  0.00    +0.019 A 
ATOM     38  C   UNL     1      19.968  39.183  37.334  0.00  0.00    +0.120 A 
ATOM     39  N   UNL     1      19.376  40.369  37.758  0.00  0.00    -0.263 NA
ATOM     40  C   UNL     1      19.771  41.033  38.929  0.00  0.00    +0.111 A 
ENDBRANCH   4   3
ENDBRANCH  10   9
BRANCH  12  13
ATOM     13  N   UNL     1      24.793  30.273  39.250  0.00  0.00    -0.281 N 
ATOM     14  C   UNL     1      26.075  30.338  38.730  0.00  0.00    +0.248 C 
ATOM     30  O   UNL     1      26.339  30.668  37.583  0.00  0.00    -0.270 OA
ATOM     31  H   UNL     1      24.698  29.799  40.149  0.00  0.00    +0.155 HD
BRANCH  14  15
ATOM     15  C   UNL     1      27.229  29.969  39.605  0.00  0.00    +0.037 A 
ATOM     16  C   UNL     1      27.919  30.974  40.417  0.00  0.00    +0.013 A 
ATOM     17  C   UNL     1      29.040  30.595  41.239  0.00  0.00    +0.005 A 
ATOM     18  C   UNL     1      29.478  29.201  41.254  0.00  0.00    -0.033 A 
ATOM     28  C   UNL     1      28.773  28.223  40.442  0.00  0.00    +0.005 A 
ATOM     29  C   UNL     1      27.674  28.592  39.634  0.00  0.00    +0.013 A 
BRANCH  18  19
ATOM     19  C   UNL     1      30.679  28.710  42.085  0.00  0.00    +0.119 C 
BRANCH  19  20
ATOM     20  N   UNL     1      30.722  27.258  42.433  0.00  0.00    -0.302 NA
ATOM     21  C   UNL     1      30.186  26.989  43.842  0.00  0.00    +0.066 C 
ATOM     22  C   UNL     1      30.217  25.463  44.180  0.00  0.00    -0.064 C 
ATOM     23  N   UNL     1      31.648  24.941  44.035  0.00  0.00    +0.379 N 
ATOM     24  C   UNL     1      31.691  23.519  44.409  0.00  0.00    -0.096 C 
ATOM     25  H   UNL     1      32.287  25.500  44.758  0.00  0.00    -0.082 HD
ATOM     26  C   UNL     1      32.189  25.207  42.638  0.00  0.00    -0.064 C 
ATOM     27  C   UNL     1      32.126  26.723  42.300  0.00  0.00    +0.066 C 
ENDBRANCH  19  20
ENDBRANCH  18  19
ENDBRANCH  14  15
ENDBRANCH  12  13
TORSDOF 6
ENDMDL
MODEL 2
REMARK VINA RESULT:      -8.5      2.575     13.292
REMARK  Name = C:\Users\Docking\Desktop\test protocol\1iep_ligandH.pdb
REMARK  8 active torsions:
REMARK  status: ('A' for Active; 'I' for Inactive)
REMARK    1  A    between atoms: _5  and  _11
REMARK    2  A    between atoms: _19  and  _21
REMARK    3  A    between atoms: _22  and  _66
REMARK    4  A    between atoms: _27  and  _30
REMARK    5  A    between atoms: _32  and  _33
REMARK    6  A    between atoms: _38  and  _43
REMARK    7  A    between atoms: _43  and  _46
REMARK    8  A    between atoms: _53  and  _55
REMARK                            x       y       z     vdW  Elec       q    Type
REMARK                         _______ _______ _______ _____ _____    ______ ____
ROOT
ATOM     10  C   UNL     1      22.280  31.863  38.381  0.00  0.00    +0.038 A 
ATOM     11  C   UNL     1      22.152  33.245  38.675  0.00  0.00    +0.047 A 
ATOM     12  C   UNL     1      21.124  34.056  38.042  0.00  0.00    +0.035 A 
ATOM     32  C   UNL     1      20.241  33.427  37.117  0.00  0.00    +0.024 A 
ATOM     33  C   UNL     1      20.358  32.024  36.806  0.00  0.00    +0.007 A 
ATOM     34  C   UNL     1      21.371  31.219  37.425  0.00  0.00    -0.029 A 
ATOM     35  C   UNL     1      21.454  29.721  37.050  0.00  0.00    +0.045 C 
ENDROOT
BRANCH  10   9
ATOM      4  C   UNL     1      26.864  30.545  38.916  0.00  0.00    +0.077 A 
ATOM      5  C   UNL     1      27.289  31.363  37.817  0.00  0.00    +0.048 A 
ATOM      6  C   UNL     1      26.296  32.102  37.136  0.00  0.00    +0.116 A 
ATOM      7  N   UNL     1      24.979  32.021  37.533  0.00  0.00    -0.223 NA
ATOM      8  C   UNL     1      24.603  31.221  38.596  0.00  0.00    +0.220 A 
ATOM      9  N   UNL     1      23.285  31.131  39.018  0.00  0.00    -0.283 N 
ATOM     36  H   UNL     1      23.047  30.524  39.802  0.00  0.00    +0.155 HD
ATOM     37  N   UNL     1      25.532  30.505  39.262  0.00  0.00    -0.214 NA
BRANCH   4   3
ATOM      1  C   UNL     1      29.594  29.423  41.484  0.00  0.00    +0.020 A 
ATOM      2  C   UNL     1      28.715  30.275  40.717  0.00  0.00    +0.013 A 
ATOM      3  C   UNL     1      27.796  29.709  39.737  0.00  0.00    +0.019 A 
ATOM     38  C   UNL     1      27.791  28.265  39.557  0.00  0.00    +0.120 A 
ATOM     39  N   UNL     1      28.650  27.469  40.309  0.00  0.00    -0.263 NA
ATOM     40  C   UNL     1      29.539  28.003  41.253  0.00  0.00    +0.111 A 
ENDBRANCH   4   3
ENDBRANCH  10   9
BRANCH  12  13
ATOM     13  N   UNL     1      20.952  35.466  38.294  0.00  0.00    -0.281 N 
ATOM     14  C   UNL     1      21.696  36.519  37.789  0.00  0.00    +0.248 C 
ATOM     30  O   UNL     1      22.764  36.394  37.207  0.00  0.00    -0.270 OA
ATOM     31  H   UNL     1      20.188  35.717  38.922  0.00  0.00    +0.155 HD
BRANCH  14  15
ATOM     15  C   UNL     1      21.188  37.913  37.967  0.00  0.00    +0.037 A 
ATOM     16  C   UNL     1      21.471  38.674  39.187  0.00  0.00    +0.013 A 
ATOM     17  C   UNL     1      20.955  40.011  39.341  0.00  0.00    +0.005 A 
ATOM     18  C   UNL     1      20.151  40.596  38.270  0.00  0.00    -0.033 A 
ATOM     28  C   UNL     1      19.890  39.821  37.069  0.00  0.00    +0.005 A 
ATOM     29  C   UNL     1      20.394  38.510  36.915  0.00  0.00    +0.013 A 
BRANCH  18  19
ATOM     19  C   UNL     1      19.542  42.008  38.358  0.00  0.00    +0.119 C 
BRANCH  19  20
ATOM     20  N   UNL     1      20.219  43.094  37.587  0.00  0.00    -0.302 NA
ATOM     21  C   UNL     1      21.574  43.470  38.193  0.00  0.00    +0.066 C 
ATOM     22  C   UNL     1      22.278  44.591  37.361  0.00  0.00    -0.064 C 
ATOM     23  N   UNL     1      21.362  45.814  37.281  0.00  0.00    +0.379 N 
ATOM     24  C   UNL     1      22.045  46.891  36.549  0.00  0.00    -0.096 C 
ATOM     25  H   UNL     1      21.184  46.172  38.322  0.00  0.00    -0.082 HD
ATOM     26  C   UNL     1      20.011  45.448  36.682  0.00  0.00    -0.064 C 
ATOM     27  C   UNL     1      19.334  44.313  37.499  0.00  0.00    +0.066 C 
ENDBRANCH  19  20
ENDBRANCH  18  19
ENDBRANCH  14  15
ENDBRANCH  12  13
TORSDOF 6
ENDMDL
MODEL 3
REMARK VINA RESULT:      -8.3     32.794     36.394
REMARK  Name = C:\Users\Docking\Desktop\test protocol\1iep_ligandH.pdb
REMARK  8 active torsions:
REMARK  status: ('A' for Active; 'I' for Inactive)
REMARK    1  A    between atoms: _5  and  _11
REMARK    2  A    between atoms: _19  and  _21
REMARK    3  A    between atoms: _22  and  _66
REMARK    4  A    between atoms: _27  and  _30
REMARK    5  A    between atoms: _32  and  _33
REMARK    6  A    between atoms: _38  and  _43
REMARK    7  A    between atoms: _43  and  _46
REMARK    8  A    between atoms: _53  and  _55
REMARK                            x       y       z     vdW  Elec       q    Type
REMARK                         _______ _______ _______ _____ _____    ______ ____
ROOT
ATOM     10  C   UNL     1      24.438   7.144  60.503  0.00  0.00    +0.038 A 
ATOM     11  C   UNL     1      23.222   6.436  60.325  0.00  0.00    +0.047 A 
ATOM     12  C   UNL     1      22.051   6.738  61.133  0.00  0.00    +0.035 A 
ATOM     32  C   UNL     1      22.152   7.770  62.111  0.00  0.00    +0.024 A 
ATOM     33  C   UNL     1      23.380   8.499  62.305  0.00  0.00    +0.007 A 
ATOM     34  C   UNL     1      24.540   8.204  61.514  0.00  0.00    -0.029 A 
ATOM     35  C   UNL     1      25.833   9.013  61.770  0.00  0.00    +0.045 C 
ENDROOT
BRANCH  10   9
ATOM      4  C   UNL     1      28.343   4.523  59.541  0.00  0.00    +0.077 A 
ATOM      5  C   UNL     1      28.207   3.768  60.754  0.00  0.00    +0.048 A 
ATOM      6  C   UNL     1      27.123   4.090  61.601  0.00  0.00    +0.116 A 
ATOM      7  N   UNL     1      26.246   5.094  61.251  0.00  0.00    -0.223 NA
ATOM      8  C   UNL     1      26.407   5.804  60.076  0.00  0.00    +0.220 A 
ATOM      9  N   UNL     1      25.532   6.812  59.700  0.00  0.00    -0.283 N 
ATOM     36  H   UNL     1      25.689   7.318  58.829  0.00  0.00    +0.155 HD
ATOM     37  N   UNL     1      27.435   5.516  59.250  0.00  0.00    -0.214 NA
BRANCH   4   3
ATOM      1  C   UNL     1      31.791   4.609  57.697  0.00  0.00    +0.020 A 
ATOM      2  C   UNL     1      30.772   4.857  58.691  0.00  0.00    +0.013 A 
ATOM      3  C   UNL     1      29.434   4.298  58.542  0.00  0.00    +0.019 A 
ATOM     38  C   UNL     1      29.158   3.487  57.366  0.00  0.00    +0.120 A 
ATOM     39  N   UNL     1      30.158   3.266  56.424  0.00  0.00    -0.263 NA
ATOM     40  C   UNL     1      31.449   3.800  56.557  0.00  0.00    +0.111 A 
ENDBRANCH   4   3
ENDBRANCH  10   9
BRANCH  12  13
ATOM     13  N   UNL     1      20.792   6.047  61.003  0.00  0.00    -0.281 N 
ATOM     14  C   UNL     1      20.043   5.850  59.854  0.00  0.00    +0.248 C 
ATOM     30  O   UNL     1      20.240   6.425  58.794  0.00  0.00    -0.270 OA
ATOM     31  H   UNL     1      20.405   5.657  61.862  0.00  0.00    +0.155 HD
BRANCH  14  15
ATOM     15  C   UNL     1      18.903   4.884  59.892  0.00  0.00    +0.037 A 
ATOM     16  C   UNL     1      18.607   4.105  61.097  0.00  0.00    +0.013 A 
ATOM     17  C   UNL     1      17.512   3.168  61.101  0.00  0.00    +0.005 A 
ATOM     18  C   UNL     1      16.703   3.006  59.895  0.00  0.00    -0.033 A 
ATOM     28  C   UNL     1      17.015   3.796  58.716  0.00  0.00    +0.005 A 
ATOM     29  C   UNL     1      18.089   4.714  58.707  0.00  0.00    +0.013 A 
BRANCH  18  19
ATOM     19  C   UNL     1      15.528   2.014  59.803  0.00  0.00    +0.119 C 
BRANCH  19  20
ATOM     20  N   UNL     1      14.601   1.942  60.972  0.00  0.00    -0.302 NA
ATOM     21  C   UNL     1      13.842   0.613  61.021  0.00  0.00    +0.066 C 
ATOM     22  C   UNL     1      12.893   0.546  62.262  0.00  0.00    -0.064 C 
ATOM     23  N   UNL     1      11.919   1.725  62.221  0.00  0.00    +0.379 N 
ATOM     24  C   UNL     1      10.988   1.632  63.355  0.00  0.00    -0.096 C 
ATOM     25  H   UNL     1      11.321   1.637  61.284  0.00  0.00    -0.082 HD
ATOM     26  C   UNL     1      12.666   3.050  62.169  0.00  0.00    -0.064 C 
ATOM     27  C   UNL     1      13.628   3.095  60.948  0.00  0.00    +0.066 C 
ENDBRANCH  19  20
ENDBRANCH  18  19
ENDBRANCH  14  15
ENDBRANCH  12  13
TORSDOF 6
ENDMDL
MODEL 4
REMARK VINA RESULT:      -8.2     23.952     27.698
REMARK  Name = C:\Users\Docking\Desktop\test protocol\1iep_ligandH.pdb
REMARK  8 active torsions:
REMARK  status: ('A' for Active; 'I' for Inactive)
REMARK    1  A    between atoms: _5  and  _11
REMARK    2  A    between atoms: _19  and  _21
REMARK    3  A    between atoms: _22  and  _66
REMARK    4  A    between atoms: _27  and  _30
REMARK    5  A    between atoms: _32  and  _33
REMARK    6  A    between atoms: _38  and  _43
REMARK    7  A    between atoms: _43  and  _46
REMARK    8  A    between atoms: _53  and  _55
REMARK                            x       y       z     vdW  Elec       q    Type
REMARK                         _______ _______ _______ _____ _____    ______ ____
ROOT
ATOM     10  C   UNL     1       8.352  18.042  50.559  0.00  0.00    +0.038 A 
ATOM     11  C   UNL     1       7.206  18.878  50.531  0.00  0.00    +0.047 A 
ATOM     12  C   UNL     1       5.871  18.332  50.719  0.00  0.00    +0.035 A 
ATOM     32  C   UNL     1       5.739  16.930  50.936  0.00  0.00    +0.024 A 
ATOM     33  C   UNL     1       6.893  16.065  50.967  0.00  0.00    +0.007 A 
ATOM     34  C   UNL     1       8.212  16.598  50.780  0.00  0.00    -0.029 A 
ATOM     35  C   UNL     1       9.412  15.623  50.817  0.00  0.00    +0.045 C 
ENDROOT
BRANCH  10   9
ATOM      4  C   UNL     1      11.652  20.210  47.830  0.00  0.00    +0.077 A 
ATOM      5  C   UNL     1      10.809  20.163  46.670  0.00  0.00    +0.048 A 
ATOM      6  C   UNL     1       9.537  19.567  46.817  0.00  0.00    +0.116 A 
ATOM      7  N   UNL     1       9.146  19.058  48.037  0.00  0.00    -0.223 NA
ATOM      8  C   UNL     1       9.984  19.118  49.135  0.00  0.00    +0.220 A 
ATOM      9  N   UNL     1       9.610  18.620  50.373  0.00  0.00    -0.283 N 
ATOM     36  H   UNL     1      10.259  18.676  51.157  0.00  0.00    +0.155 HD
ATOM     37  N   UNL     1      11.205  19.681  49.021  0.00  0.00    -0.214 NA
BRANCH   4   3
ATOM      1  C   UNL     1      14.603  22.775  47.935  0.00  0.00    +0.020 A 
ATOM      2  C   UNL     1      13.259  22.246  47.934  0.00  0.00    +0.013 A 
ATOM      3  C   UNL     1      13.023  20.811  47.836  0.00  0.00    +0.019 A 
ATOM     38  C   UNL     1      14.179  19.931  47.741  0.00  0.00    +0.120 A 
ATOM     39  N   UNL     1      15.462  20.470  47.744  0.00  0.00    -0.263 NA
ATOM     40  C   UNL     1      15.701  21.849  47.836  0.00  0.00    +0.111 A 
ENDBRANCH   4   3
ENDBRANCH  10   9
BRANCH  12  13
ATOM     13  N   UNL     1       4.671  19.131  50.692  0.00  0.00    -0.281 N 
ATOM     14  C   UNL     1       4.001  19.625  49.584  0.00  0.00    +0.248 C 
ATOM     30  O   UNL     1       4.455  19.635  48.450  0.00  0.00    -0.270 OA
ATOM     31  H   UNL     1       4.265  19.359  51.599  0.00  0.00    +0.155 HD
BRANCH  14  15
ATOM     15  C   UNL     1       2.636  20.206  49.765  0.00  0.00    +0.037 A 
ATOM     16  C   UNL     1       2.445  21.638  50.004  0.00  0.00    +0.013 A 
ATOM     17  C   UNL     1       1.119  22.170  50.192  0.00  0.00    +0.005 A 
ATOM     18  C   UNL     1      -0.029  21.267  50.141  0.00  0.00    -0.033 A 
ATOM     28  C   UNL     1       0.189  19.850  49.897  0.00  0.00    +0.005 A 
ATOM     29  C   UNL     1       1.488  19.326  49.713  0.00  0.00    +0.013 A 
BRANCH  18  19
ATOM     19  C   UNL     1      -1.478  21.743  50.352  0.00  0.00    +0.119 C 
BRANCH  19  20
ATOM     20  N   UNL     1      -2.186  21.259  51.575  0.00  0.00    -0.302 NA
ATOM     21  C   UNL     1      -3.681  21.589  51.542  0.00  0.00    +0.066 C 
ATOM     22  C   UNL     1      -4.409  21.056  52.818  0.00  0.00    -0.064 C 
ATOM     23  N   UNL     1      -3.750  21.650  54.064  0.00  0.00    +0.379 N 
ATOM     24  C   UNL     1      -4.470  21.196  55.263  0.00  0.00    -0.096 C 
ATOM     25  H   UNL     1      -3.855  22.758  54.006  0.00  0.00    -0.082 HD
ATOM     26  C   UNL     1      -2.263  21.328  54.103  0.00  0.00    -0.064 C 
ATOM     27  C   UNL     1      -1.554  21.837  52.817  0.00  0.00    +0.066 C 
ENDBRANCH  19  20
ENDBRANCH  18  19
ENDBRANCH  14  15
ENDBRANCH  12  13
TORSDOF 6
ENDMDL
MODEL 5
REMARK VINA RESULT:      -8.2      1.140      1.604
REMARK  Name = C:\Users\Docking\Desktop\test protocol\1iep_ligandH.pdb
REMARK  8 active torsions:
REMARK  status: ('A' for Active; 'I' for Inactive)
REMARK    1  A    between atoms: _5  and  _11
REMARK    2  A    between atoms: _19  and  _21
REMARK    3  A    between atoms: _22  and  _66
REMARK    4  A    between atoms: _27  and  _30
REMARK    5  A    between atoms: _32  and  _33
REMARK    6  A    between atoms: _38  and  _43
REMARK    7  A    between atoms: _43  and  _46
REMARK    8  A    between atoms: _53  and  _55
REMARK                            x       y       z     vdW  Elec       q    Type
REMARK                         _______ _______ _______ _____ _____    ______ ____
ROOT
ATOM     10  C   UNL     1      21.869  32.582  38.356  0.00  0.00    +0.038 A 
ATOM     11  C   UNL     1      23.095  32.126  38.905  0.00  0.00    +0.047 A 
ATOM     12  C   UNL     1      23.613  30.803  38.595  0.00  0.00    +0.035 A 
ATOM     32  C   UNL     1      22.857  29.970  37.718  0.00  0.00    +0.024 A 
ATOM     33  C   UNL     1      21.609  30.417  37.152  0.00  0.00    +0.007 A 
ATOM     34  C   UNL     1      21.092  31.720  37.457  0.00  0.00    -0.029 A 
ATOM     35  C   UNL     1      19.745  32.144  36.826  0.00  0.00    +0.045 C 
ENDROOT
BRANCH  10   9
ATOM      4  C   UNL     1      21.641  37.317  37.602  0.00  0.00    +0.077 A 
ATOM      5  C   UNL     1      22.515  37.238  36.467  0.00  0.00    +0.048 A 
ATOM      6  C   UNL     1      23.007  35.961  36.114  0.00  0.00    +0.116 A 
ATOM      7  N   UNL     1      22.645  34.852  36.849  0.00  0.00    -0.223 NA
ATOM      8  C   UNL     1      21.802  34.964  37.939  0.00  0.00    +0.220 A 
ATOM      9  N   UNL     1      21.419  33.862  38.688  0.00  0.00    -0.283 N 
ATOM     36  H   UNL     1      20.801  33.987  39.490  0.00  0.00    +0.155 HD
ATOM     37  N   UNL     1      21.320  36.172  38.297  0.00  0.00    -0.214 NA
BRANCH   4   3
ATOM      1  C   UNL     1      20.844  40.477  39.765  0.00  0.00    +0.020 A 
ATOM      2  C   UNL     1      21.459  39.244  39.332  0.00  0.00    +0.013 A 
ATOM      3  C   UNL     1      21.037  38.594  38.097  0.00  0.00    +0.019 A 
ATOM     38  C   UNL     1      19.982  39.224  37.317  0.00  0.00    +0.120 A 
ATOM     39  N   UNL     1      19.407  40.411  37.760  0.00  0.00    -0.263 NA
ATOM     40  C   UNL     1      19.804  41.044  38.947  0.00  0.00    +0.111 A 
ENDBRANCH   4   3
ENDBRANCH  10   9
BRANCH  12  13
ATOM     13  N   UNL     1      24.847  30.283  39.129  0.00  0.00    -0.281 N 
ATOM     14  C   UNL     1      26.140  30.669  38.816  0.00  0.00    +0.248 C 
ATOM     30  O   UNL     1      26.439  31.377  37.866  0.00  0.00    -0.270 OA
ATOM     31  H   UNL     1      24.757  29.540  39.822  0.00  0.00    +0.155 HD
BRANCH  14  15
ATOM     15  C   UNL     1      27.265  30.187  39.673  0.00  0.00    +0.037 A 
ATOM     16  C   UNL     1      28.057  31.117  40.482  0.00  0.00    +0.013 A 
ATOM     17  C   UNL     1      29.148  30.628  41.287  0.00  0.00    +0.005 A 
ATOM     18  C   UNL     1      29.452  29.199  41.288  0.00  0.00    -0.033 A 
ATOM     28  C   UNL     1      28.648  28.298  40.481  0.00  0.00    +0.005 A 
ATOM     29  C   UNL     1      27.578  28.774  39.689  0.00  0.00    +0.013 A 
BRANCH  18  19
ATOM     19  C   UNL     1      30.611  28.592  42.101  0.00  0.00    +0.119 C 
BRANCH  19  20
ATOM     20  N   UNL     1      31.464  27.573  41.419  0.00  0.00    -0.302 NA
ATOM     21  C   UNL     1      32.264  26.732  42.418  0.00  0.00    +0.066 C 
ATOM     22  C   UNL     1      33.133  25.656  41.689  0.00  0.00    -0.064 C 
ATOM     23  N   UNL     1      34.066  26.347  40.693  0.00  0.00    +0.379 N 
ATOM     24  C   UNL     1      34.925  25.343  40.048  0.00  0.00    -0.096 C 
ATOM     25  H   UNL     1      34.725  27.036  41.270  0.00  0.00    -0.082 HD
ATOM     26  C   UNL     1      33.278  27.187  39.698  0.00  0.00    -0.064 C 
ATOM     27  C   UNL     1      32.396  28.234  40.434  0.00  0.00    +0.066 C 
ENDBRANCH  19  20
ENDBRANCH  18  19
ENDBRANCH  14  15
ENDBRANCH  12  13
TORSDOF 6
ENDMDL
