MODEL 1
REMARK VINA RESULT:     -10.4      0.000      0.000
REMARK  Name = C:\Users\Docking\Desktop\test protocol\1iep_ligandH.pdb
REMARK  8 active torsions:
REMARK  status: ('A' for Active; 'I' for Inactive)
REMARK    1  A    between atoms: _5  and  _11
REMARK    2  A    between atoms: _19  and  _21
REMARK    3  A    between atoms: _22  and  _66
REMARK    4  A    between atoms: _27  and  _30
REMARK    5  A    between atoms: _32  and  _33
REMARK    6  A    between atoms: _38  and  _43
REMARK    7  A    between atoms: _43  and  _46
REMARK    8  A    between atoms: _53  and  _55
REMARK                            x       y       z     vdW  Elec       q    Type
REMARK                         _______ _______ _______ _____ _____    ______ ____
ROOT
ATOM     10  C   UNL     1      26.307  46.148  44.894  0.00  0.00    +0.038 A 
ATOM     11  C   UNL     1      25.535  47.048  45.673  0.00  0.00    +0.047 A 
ATOM     12  C   UNL     1      24.126  46.801  45.933  0.00  0.00    +0.035 A 
ATOM     32  C   UNL     1      23.533  45.626  45.386  0.00  0.00    +0.024 A 
ATOM     33  C   UNL     1      24.302  44.700  44.591  0.00  0.00    +0.007 A 
ATOM     34  C   UNL     1      25.693  44.940  44.329  0.00  0.00    -0.029 A 
ATOM     35  C   UNL     1      26.466  43.917  43.465  0.00  0.00    +0.045 C 
ENDROOT
BRANCH  10   9
ATOM      4  C   UNL     1      29.848  48.187  42.378  0.00  0.00    +0.077 A 
ATOM      5  C   UNL     1      28.935  48.705  41.400  0.00  0.00    +0.048 A 
ATOM      6  C   UNL     1      27.563  48.417  41.577  0.00  0.00    +0.116 A 
ATOM      7  N   UNL     1      27.147  47.668  42.655  0.00  0.00    -0.223 NA
ATOM      8  C   UNL     1      28.054  47.183  43.580  0.00  0.00    +0.220 A 
ATOM      9  N   UNL     1      27.656  46.434  44.676  0.00  0.00    -0.283 N 
ATOM     36  H   UNL     1      28.357  46.088  45.332  0.00  0.00    +0.155 HD
ATOM     37  N   UNL     1      29.370  47.442  43.432  0.00  0.00    -0.214 NA
BRANCH   4   3
ATOM      1  C   UNL     1      33.431  49.234  41.207  0.00  0.00    +0.020 A 
ATOM      2  C   UNL     1      31.999  49.044  41.203  0.00  0.00    +0.013 A 
ATOM      3  C   UNL     1      31.328  48.409  42.330  0.00  0.00    +0.019 A 
ATOM     38  C   UNL     1      32.142  47.975  43.456  0.00  0.00    +0.120 A 
ATOM     39  N   UNL     1      33.520  48.171  43.432  0.00  0.00    -0.263 NA
ATOM     40  C   UNL     1      34.176  48.779  42.351  0.00  0.00    +0.111 A 
ENDBRANCH   4   3
ENDBRANCH  10   9
BRANCH  12  13
ATOM     13  N   UNL     1      23.290  47.684  46.709  0.00  0.00    -0.281 N 
ATOM     14  C   UNL     1      23.314  47.893  48.078  0.00  0.00    +0.248 C 
ATOM     30  O   UNL     1      23.918  47.190  48.874  0.00  0.00    -0.270 OA
ATOM     31  H   UNL     1      22.598  48.219  46.186  0.00  0.00    +0.155 HD
BRANCH  14  15
ATOM     15  C   UNL     1      22.544  49.041  48.647  0.00  0.00    +0.037 A 
ATOM     16  C   UNL     1      22.397  50.298  47.908  0.00  0.00    +0.013 A 
ATOM     17  C   UNL     1      21.664  51.395  48.487  0.00  0.00    +0.005 A 
ATOM     18  C   UNL     1      21.069  51.240  49.812  0.00  0.00    -0.033 A 
ATOM     28  C   UNL     1      21.226  49.980  50.521  0.00  0.00    +0.005 A 
ATOM     29  C   UNL     1      21.945  48.903  49.957  0.00  0.00    +0.013 A 
BRANCH  18  19
ATOM     19  C   UNL     1      20.288  52.365  50.516  0.00  0.00    +0.119 C 
BRANCH  19  20
ATOM     20  N   UNL     1      19.740  52.071  51.874  0.00  0.00    -0.302 NA
ATOM     21  C   UNL     1      18.211  51.984  51.870  0.00  0.00    +0.066 C 
ATOM     22  C   UNL     1      17.656  51.654  53.294  0.00  0.00    -0.064 C 
ATOM     23  N   UNL     1      18.135  52.717  54.284  0.00  0.00    +0.379 N 
ATOM     24  C   UNL     1      17.567  52.442  55.612  0.00  0.00    -0.096 C 
ATOM     25  H   UNL     1      17.736  53.700  53.942  0.00  0.00    -0.082 HD
ATOM     26  C   UNL     1      19.654  52.813  54.292  0.00  0.00    -0.064 C 
ATOM     27  C   UNL     1      20.197  53.112  52.867  0.00  0.00    +0.066 C 
ENDBRANCH  19  20
ENDBRANCH  18  19
ENDBRANCH  14  15
ENDBRANCH  12  13
TORSDOF 6
ENDMDL
MODEL 2
REMARK VINA RESULT:      -9.4      4.578      6.826
REMARK  Name = C:\Users\Docking\Desktop\test protocol\1iep_ligandH.pdb
REMARK  8 active torsions:
REMARK  status: ('A' for Active; 'I' for Inactive)
REMARK    1  A    between atoms: _5  and  _11
REMARK    2  A    between atoms: _19  and  _21
REMARK    3  A    between atoms: _22  and  _66
REMARK    4  A    between atoms: _27  and  _30
REMARK    5  A    between atoms: _32  and  _33
REMARK    6  A    between atoms: _38  and  _43
REMARK    7  A    between atoms: _43  and  _46
REMARK    8  A    between atoms: _53  and  _55
REMARK                            x       y       z     vdW  Elec       q    Type
REMARK                         _______ _______ _______ _____ _____    ______ ____
ROOT
ATOM     10  C   UNL     1      23.847  44.878  45.608  0.00  0.00    +0.038 A 
ATOM     11  C   UNL     1      23.255  45.987  46.265  0.00  0.00    +0.047 A 
ATOM     12  C   UNL     1      24.026  46.824  47.172  0.00  0.00    +0.035 A 
ATOM     32  C   UNL     1      25.398  46.504  47.384  0.00  0.00    +0.024 A 
ATOM     33  C   UNL     1      26.016  45.380  46.725  0.00  0.00    +0.007 A 
ATOM     34  C   UNL     1      25.260  44.549  45.832  0.00  0.00    -0.029 A 
ATOM     35  C   UNL     1      25.972  43.353  45.159  0.00  0.00    +0.045 C 
ENDROOT
BRANCH  10   9
ATOM      4  C   UNL     1      21.365  44.275  41.544  0.00  0.00    +0.077 A 
ATOM      5  C   UNL     1      21.637  45.615  41.110  0.00  0.00    +0.048 A 
ATOM      6  C   UNL     1      22.413  46.429  41.965  0.00  0.00    +0.116 A 
ATOM      7  N   UNL     1      22.878  45.930  43.162  0.00  0.00    -0.223 NA
ATOM      8  C   UNL     1      22.596  44.634  43.552  0.00  0.00    +0.220 A 
ATOM      9  N   UNL     1      23.060  44.109  44.748  0.00  0.00    -0.283 N 
ATOM     36  H   UNL     1      22.825  43.150  45.003  0.00  0.00    +0.155 HD
ATOM     37  N   UNL     1      21.856  43.836  42.754  0.00  0.00    -0.214 NA
BRANCH   4   3
ATOM      1  C   UNL     1      18.780  42.703  39.065  0.00  0.00    +0.020 A 
ATOM      2  C   UNL     1      19.526  43.693  39.807  0.00  0.00    +0.013 A 
ATOM      3  C   UNL     1      20.563  43.291  40.750  0.00  0.00    +0.019 A 
ATOM     38  C   UNL     1      20.822  41.870  40.919  0.00  0.00    +0.120 A 
ATOM     39  N   UNL     1      20.087  40.939  40.191  0.00  0.00    -0.263 NA
ATOM     40  C   UNL     1      19.086  41.314  39.283  0.00  0.00    +0.111 A 
ENDBRANCH   4   3
ENDBRANCH  10   9
BRANCH  12  13
ATOM     13  N   UNL     1      23.477  47.958  47.873  0.00  0.00    -0.281 N 
ATOM     14  C   UNL     1      22.915  49.103  47.332  0.00  0.00    +0.248 C 
ATOM     30  O   UNL     1      22.993  49.422  46.155  0.00  0.00    -0.270 OA
ATOM     31  H   UNL     1      23.506  47.911  48.891  0.00  0.00    +0.155 HD
BRANCH  14  15
ATOM     15  C   UNL     1      22.170  50.036  48.232  0.00  0.00    +0.037 A 
ATOM     16  C   UNL     1      21.823  49.654  49.603  0.00  0.00    +0.013 A 
ATOM     17  C   UNL     1      21.090  50.567  50.444  0.00  0.00    +0.005 A 
ATOM     18  C   UNL     1      20.700  51.872  49.916  0.00  0.00    -0.033 A 
ATOM     28  C   UNL     1      21.062  52.227  48.554  0.00  0.00    +0.005 A 
ATOM     29  C   UNL     1      21.780  51.335  47.726  0.00  0.00    +0.013 A 
BRANCH  18  19
ATOM     19  C   UNL     1      19.898  52.900  50.736  0.00  0.00    +0.119 C 
BRANCH  19  20
ATOM     20  N   UNL     1      19.406  52.470  52.079  0.00  0.00    -0.302 NA
ATOM     21  C   UNL     1      17.877  52.410  52.139  0.00  0.00    +0.066 C 
ATOM     22  C   UNL     1      17.381  51.938  53.544  0.00  0.00    -0.064 C 
ATOM     23  N   UNL     1      17.929  52.878  54.619  0.00  0.00    +0.379 N 
ATOM     24  C   UNL     1      17.417  52.471  55.935  0.00  0.00    -0.096 C 
ATOM     25  H   UNL     1      17.537  53.900  54.405  0.00  0.00    -0.082 HD
ATOM     26  C   UNL     1      19.449  52.946  54.564  0.00  0.00    -0.064 C 
ATOM     27  C   UNL     1      19.932  53.388  53.155  0.00  0.00    +0.066 C 
ENDBRANCH  19  20
ENDBRANCH  18  19
ENDBRANCH  14  15
ENDBRANCH  12  13
TORSDOF 6
ENDMDL
MODEL 3
REMARK VINA RESULT:      -9.1     23.029     24.888
REMARK  Name = C:\Users\Docking\Desktop\test protocol\1iep_ligandH.pdb
REMARK  8 active torsions:
REMARK  status: ('A' for Active; 'I' for Inactive)
REMARK    1  A    between atoms: _5  and  _11
REMARK    2  A    between atoms: _19  and  _21
REMARK    3  A    between atoms: _22  and  _66
REMARK    4  A    between atoms: _27  and  _30
REMARK    5  A    between atoms: _32  and  _33
REMARK    6  A    between atoms: _38  and  _43
REMARK    7  A    between atoms: _43  and  _46
REMARK    8  A    between atoms: _53  and  _55
REMARK                            x       y       z     vdW  Elec       q    Type
REMARK                         _______ _______ _______ _____ _____    ______ ____
ROOT
ATOM     10  C   UNL     1      31.635  69.749  45.635  0.00  0.00    +0.038 A 
ATOM     11  C   UNL     1      30.724  70.837  45.626  0.00  0.00    +0.047 A 
ATOM     12  C   UNL     1      30.089  71.275  44.393  0.00  0.00    +0.035 A 
ATOM     32  C   UNL     1      30.401  70.581  43.188  0.00  0.00    +0.024 A 
ATOM     33  C   UNL     1      31.326  69.475  43.179  0.00  0.00    +0.007 A 
ATOM     34  C   UNL     1      31.958  69.039  44.391  0.00  0.00    -0.029 A 
ATOM     35  C   UNL     1      32.946  67.852  44.322  0.00  0.00    +0.045 C 
ENDROOT
BRANCH  10   9
ATOM      4  C   UNL     1      31.759  67.071  49.616  0.00  0.00    +0.077 A 
ATOM      5  C   UNL     1      30.549  66.386  49.264  0.00  0.00    +0.048 A 
ATOM      6  C   UNL     1      29.921  66.758  48.054  0.00  0.00    +0.116 A 
ATOM      7  N   UNL     1      30.472  67.742  47.262  0.00  0.00    -0.223 NA
ATOM      8  C   UNL     1      31.640  68.384  47.632  0.00  0.00    +0.220 A 
ATOM      9  N   UNL     1      32.217  69.371  46.847  0.00  0.00    -0.283 N 
ATOM     36  H   UNL     1      33.075  69.825  47.158  0.00  0.00    +0.155 HD
ATOM     37  N   UNL     1      32.258  68.048  48.783  0.00  0.00    -0.214 NA
BRANCH   4   3
ATOM      1  C   UNL     1      34.703  66.540  52.136  0.00  0.00    +0.020 A 
ATOM      2  C   UNL     1      33.997  66.821  50.907  0.00  0.00    +0.013 A 
ATOM      3  C   UNL     1      32.541  66.787  50.861  0.00  0.00    +0.019 A 
ATOM     38  C   UNL     1      31.823  66.465  52.085  0.00  0.00    +0.120 A 
ATOM     39  N   UNL     1      32.530  66.197  53.253  0.00  0.00    -0.263 NA
ATOM     40  C   UNL     1      33.932  66.225  53.309  0.00  0.00    +0.111 A 
ENDBRANCH   4   3
ENDBRANCH  10   9
BRANCH  12  13
ATOM     13  N   UNL     1      29.162  72.377  44.321  0.00  0.00    -0.281 N 
ATOM     14  C   UNL     1      27.986  72.550  45.033  0.00  0.00    +0.248 C 
ATOM     30  O   UNL     1      27.441  71.675  45.689  0.00  0.00    -0.270 OA
ATOM     31  H   UNL     1      29.402  73.121  43.665  0.00  0.00    +0.155 HD
BRANCH  14  15
ATOM     15  C   UNL     1      27.311  73.883  45.000  0.00  0.00    +0.037 A 
ATOM     16  C   UNL     1      27.683  74.899  44.012  0.00  0.00    +0.013 A 
ATOM     17  C   UNL     1      27.028  76.183  44.013  0.00  0.00    +0.005 A 
ATOM     18  C   UNL     1      25.992  76.457  45.006  0.00  0.00    -0.033 A 
ATOM     28  C   UNL     1      25.639  75.429  45.971  0.00  0.00    +0.005 A 
ATOM     29  C   UNL     1      26.280  74.170  45.974  0.00  0.00    +0.013 A 
BRANCH  18  19
ATOM     19  C   UNL     1      25.255  77.807  45.095  0.00  0.00    +0.119 C 
BRANCH  19  20
ATOM     20  N   UNL     1      26.044  78.988  45.556  0.00  0.00    -0.302 NA
ATOM     21  C   UNL     1      26.574  78.804  46.980  0.00  0.00    +0.066 C 
ATOM     22  C   UNL     1      27.416  80.039  47.438  0.00  0.00    -0.064 C 
ATOM     23  N   UNL     1      26.559  81.303  47.338  0.00  0.00    +0.379 N 
ATOM     24  C   UNL     1      27.329  82.457  47.822  0.00  0.00    -0.096 C 
ATOM     25  H   UNL     1      25.683  81.172  48.015  0.00  0.00    -0.082 HD
ATOM     26  C   UNL     1      26.026  81.491  45.925  0.00  0.00    -0.064 C 
ATOM     27  C   UNL     1      25.216  80.246  45.469  0.00  0.00    +0.066 C 
ENDBRANCH  19  20
ENDBRANCH  18  19
ENDBRANCH  14  15
ENDBRANCH  12  13
TORSDOF 6
ENDMDL
MODEL 4
REMARK VINA RESULT:      -8.9      4.568      6.559
REMARK  Name = C:\Users\Docking\Desktop\test protocol\1iep_ligandH.pdb
REMARK  8 active torsions:
REMARK  status: ('A' for Active; 'I' for Inactive)
REMARK    1  A    between atoms: _5  and  _11
REMARK    2  A    between atoms: _19  and  _21
REMARK    3  A    between atoms: _22  and  _66
REMARK    4  A    between atoms: _27  and  _30
REMARK    5  A    between atoms: _32  and  _33
REMARK    6  A    between atoms: _38  and  _43
REMARK    7  A    between atoms: _43  and  _46
REMARK    8  A    between atoms: _53  and  _55
REMARK                            x       y       z     vdW  Elec       q    Type
REMARK                         _______ _______ _______ _____ _____    ______ ____
ROOT
ATOM     10  C   UNL     1      25.013  45.060  46.074  0.00  0.00    +0.038 A 
ATOM     11  C   UNL     1      24.306  46.178  46.585  0.00  0.00    +0.047 A 
ATOM     12  C   UNL     1      24.614  46.729  47.895  0.00  0.00    +0.035 A 
ATOM     32  C   UNL     1      25.652  46.118  48.657  0.00  0.00    +0.024 A 
ATOM     33  C   UNL     1      26.381  44.980  48.154  0.00  0.00    +0.007 A 
ATOM     34  C   UNL     1      26.079  44.431  46.863  0.00  0.00    -0.029 A 
ATOM     35  C   UNL     1      26.888  43.206  46.377  0.00  0.00    +0.045 C 
ENDROOT
BRANCH  10   9
ATOM      4  C   UNL     1      22.488  42.174  43.187  0.00  0.00    +0.077 A 
ATOM      5  C   UNL     1      21.803  41.569  44.292  0.00  0.00    +0.048 A 
ATOM      6  C   UNL     1      22.135  42.024  45.588  0.00  0.00    +0.116 A 
ATOM      7  N   UNL     1      23.082  43.011  45.754  0.00  0.00    -0.223 NA
ATOM      8  C   UNL     1      23.725  43.572  44.667  0.00  0.00    +0.220 A 
ATOM      9  N   UNL     1      24.675  44.571  44.810  0.00  0.00    -0.283 N 
ATOM     36  H   UNL     1      25.133  44.954  43.983  0.00  0.00    +0.155 HD
ATOM     37  N   UNL     1      23.427  43.154  43.419  0.00  0.00    -0.214 NA
BRANCH   4   3
ATOM      1  C   UNL     1      22.828  41.856  39.303  0.00  0.00    +0.020 A 
ATOM      2  C   UNL     1      23.107  42.243  40.667  0.00  0.00    +0.013 A 
ATOM      3  C   UNL     1      22.245  41.803  41.757  0.00  0.00    +0.019 A 
ATOM     38  C   UNL     1      21.101  40.965  41.431  0.00  0.00    +0.120 A 
ATOM     39  N   UNL     1      20.857  40.610  40.108  0.00  0.00    -0.263 NA
ATOM     40  C   UNL     1      21.678  41.029  39.050  0.00  0.00    +0.111 A 
ENDBRANCH   4   3
ENDBRANCH  10   9
BRANCH  12  13
ATOM     13  N   UNL     1      23.924  47.857  48.469  0.00  0.00    -0.281 N 
ATOM     14  C   UNL     1      23.348  48.930  47.808  0.00  0.00    +0.248 C 
ATOM     30  O   UNL     1      23.526  49.190  46.627  0.00  0.00    -0.270 OA
ATOM     31  H   UNL     1      23.852  47.867  49.487  0.00  0.00    +0.155 HD
BRANCH  14  15
ATOM     15  C   UNL     1      22.457  49.855  48.572  0.00  0.00    +0.037 A 
ATOM     16  C   UNL     1      21.786  49.422  49.800  0.00  0.00    +0.013 A 
ATOM     17  C   UNL     1      20.918  50.329  50.509  0.00  0.00    +0.005 A 
ATOM     18  C   UNL     1      20.718  51.680  49.991  0.00  0.00    -0.033 A 
ATOM     28  C   UNL     1      21.400  52.085  48.773  0.00  0.00    +0.005 A 
ATOM     29  C   UNL     1      22.250  51.198  48.075  0.00  0.00    +0.013 A 
BRANCH  18  19
ATOM     19  C   UNL     1      19.793  52.707  50.670  0.00  0.00    +0.119 C 
BRANCH  19  20
ATOM     20  N   UNL     1      19.292  52.377  52.037  0.00  0.00    -0.302 NA
ATOM     21  C   UNL     1      17.762  52.374  52.103  0.00  0.00    +0.066 C 
ATOM     22  C   UNL     1      17.254  52.005  53.535  0.00  0.00    -0.064 C 
ATOM     23  N   UNL     1      17.838  52.990  54.549  0.00  0.00    +0.379 N 
ATOM     24  C   UNL     1      17.316  52.681  55.889  0.00  0.00    -0.096 C 
ATOM     25  H   UNL     1      17.481  54.009  54.274  0.00  0.00    -0.082 HD
ATOM     26  C   UNL     1      19.359  53.001  54.489  0.00  0.00    -0.064 C 
ATOM     27  C   UNL     1      19.852  53.340  53.055  0.00  0.00    +0.066 C 
ENDBRANCH  19  20
ENDBRANCH  18  19
ENDBRANCH  14  15
ENDBRANCH  12  13
TORSDOF 6
ENDMDL
MODEL 5
REMARK VINA RESULT:      -8.3     24.339     26.363
REMARK  Name = C:\Users\Docking\Desktop\test protocol\1iep_ligandH.pdb
REMARK  8 active torsions:
REMARK  status: ('A' for Active; 'I' for Inactive)
REMARK    1  A    between atoms: _5  and  _11
REMARK    2  A    between atoms: _19  and  _21
REMARK    3  A    between atoms: _22  and  _66
REMARK    4  A    between atoms: _27  and  _30
REMARK    5  A    between atoms: _32  and  _33
REMARK    6  A    between atoms: _38  and  _43
REMARK    7  A    between atoms: _43  and  _46
REMARK    8  A    between atoms: _53  and  _55
REMARK                            x       y       z     vdW  Elec       q    Type
REMARK                         _______ _______ _______ _____ _____    ______ ____
ROOT
ATOM     10  C   UNL     1      31.146  72.662  45.508  0.00  0.00    +0.038 A 
ATOM     11  C   UNL     1      30.245  73.737  45.722  0.00  0.00    +0.047 A 
ATOM     12  C   UNL     1      30.082  74.790  44.733  0.00  0.00    +0.035 A 
ATOM     32  C   UNL     1      30.850  74.716  43.535  0.00  0.00    +0.024 A 
ATOM     33  C   UNL     1      31.771  73.632  43.301  0.00  0.00    +0.007 A 
ATOM     34  C   UNL     1      31.938  72.591  44.275  0.00  0.00    -0.029 A 
ATOM     35  C   UNL     1      32.944  71.455  43.974  0.00  0.00    +0.045 C 
ENDROOT
BRANCH  10   9
ATOM      4  C   UNL     1      29.998  68.395  47.384  0.00  0.00    +0.077 A 
ATOM      5  C   UNL     1      29.067  68.116  46.329  0.00  0.00    +0.048 A 
ATOM      6  C   UNL     1      28.908  69.099  45.327  0.00  0.00    +0.116 A 
ATOM      7  N   UNL     1      29.631  70.271  45.385  0.00  0.00    -0.223 NA
ATOM      8  C   UNL     1      30.519  70.510  46.417  0.00  0.00    +0.220 A 
ATOM      9  N   UNL     1      31.262  71.677  46.492  0.00  0.00    -0.283 N 
ATOM     36  H   UNL     1      31.902  71.819  47.274  0.00  0.00    +0.155 HD
ATOM     37  N   UNL     1      30.688  69.587  47.387  0.00  0.00    -0.214 NA
BRANCH   4   3
ATOM      1  C   UNL     1      29.599  65.658  50.150  0.00  0.00    +0.020 A 
ATOM      2  C   UNL     1      29.276  66.548  49.058  0.00  0.00    +0.013 A 
ATOM      3  C   UNL     1      30.279  67.454  48.514  0.00  0.00    +0.019 A 
ATOM     38  C   UNL     1      31.611  67.434  49.100  0.00  0.00    +0.120 A 
ATOM     39  N   UNL     1      31.893  66.567  50.151  0.00  0.00    -0.263 NA
ATOM     40  C   UNL     1      30.935  65.692  50.685  0.00  0.00    +0.111 A 
ENDBRANCH   4   3
ENDBRANCH  10   9
BRANCH  12  13
ATOM     13  N   UNL     1      29.190  75.911  44.899  0.00  0.00    -0.281 N 
ATOM     14  C   UNL     1      27.805  75.912  44.847  0.00  0.00    +0.248 C 
ATOM     30  O   UNL     1      27.129  74.981  44.435  0.00  0.00    -0.270 OA
ATOM     31  H   UNL     1      29.632  76.812  45.077  0.00  0.00    +0.155 HD
BRANCH  14  15
ATOM     15  C   UNL     1      27.066  77.127  45.304  0.00  0.00    +0.037 A 
ATOM     16  C   UNL     1      26.257  77.919  44.375  0.00  0.00    +0.013 A 
ATOM     17  C   UNL     1      25.567  79.097  44.839  0.00  0.00    +0.005 A 
ATOM     18  C   UNL     1      25.684  79.489  46.242  0.00  0.00    -0.033 A 
ATOM     28  C   UNL     1      26.490  78.682  47.143  0.00  0.00    +0.005 A 
ATOM     29  C   UNL     1      27.168  77.528  46.692  0.00  0.00    +0.013 A 
BRANCH  18  19
ATOM     19  C   UNL     1      25.001  80.743  46.820  0.00  0.00    +0.119 C 
BRANCH  19  20
ATOM     20  N   UNL     1      23.690  80.551  47.509  0.00  0.00    -0.302 NA
ATOM     21  C   UNL     1      22.637  79.939  46.581  0.00  0.00    +0.066 C 
ATOM     22  C   UNL     1      21.279  79.723  47.326  0.00  0.00    -0.064 C 
ATOM     23  N   UNL     1      20.793  81.059  47.890  0.00  0.00    +0.379 N 
ATOM     24  C   UNL     1      19.488  80.871  48.540  0.00  0.00    -0.096 C 
ATOM     25  H   UNL     1      20.646  81.756  47.032  0.00  0.00    -0.082 HD
ATOM     26  C   UNL     1      21.835  81.676  48.812  0.00  0.00    -0.064 C 
ATOM     27  C   UNL     1      23.190  81.858  48.071  0.00  0.00    +0.066 C 
ENDBRANCH  19  20
ENDBRANCH  18  19
ENDBRANCH  14  15
ENDBRANCH  12  13
TORSDOF 6
ENDMDL
