MODEL 1
REMARK VINA RESULT:     -10.2      0.000      0.000
REMARK  Name = C:\Users\Docking\Desktop\test protocol\1iep_ligandH.pdb
REMARK  8 active torsions:
REMARK  status: ('A' for Active; 'I' for Inactive)
REMARK    1  A    between atoms: _5  and  _11
REMARK    2  A    between atoms: _19  and  _21
REMARK    3  A    between atoms: _22  and  _66
REMARK    4  A    between atoms: _27  and  _30
REMARK    5  A    between atoms: _32  and  _33
REMARK    6  A    between atoms: _38  and  _43
REMARK    7  A    between atoms: _43  and  _46
REMARK    8  A    between atoms: _53  and  _55
REMARK                            x       y       z     vdW  Elec       q    Type
REMARK                         _______ _______ _______ _____ _____    ______ ____
ROOT
ATOM     10  C   UNL     1      15.605  18.835   8.460  0.00  0.00    +0.038 A 
ATOM     11  C   UNL     1      16.197  18.836   9.749  0.00  0.00    +0.047 A 
ATOM     12  C   UNL     1      16.215  20.038  10.568  0.00  0.00    +0.035 A 
ATOM     32  C   UNL     1      15.617  21.222  10.044  0.00  0.00    +0.024 A 
ATOM     33  C   UNL     1      15.012  21.239   8.736  0.00  0.00    +0.007 A 
ATOM     34  C   UNL     1      14.993  20.057   7.922  0.00  0.00    -0.029 A 
ATOM     35  C   UNL     1      14.336  20.135   6.525  0.00  0.00    +0.045 C 
ENDROOT
BRANCH  10   9
ATOM      4  C   UNL     1      17.686  15.779   5.401  0.00  0.00    +0.077 A 
ATOM      5  C   UNL     1      18.838  16.621   5.250  0.00  0.00    +0.048 A 
ATOM      6  C   UNL     1      18.852  17.836   5.972  0.00  0.00    +0.116 A 
ATOM      7  N   UNL     1      17.789  18.172   6.781  0.00  0.00    -0.223 NA
ATOM      8  C   UNL     1      16.693  17.338   6.903  0.00  0.00    +0.220 A 
ATOM      9  N   UNL     1      15.616  17.653   7.717  0.00  0.00    -0.283 N 
ATOM     36  H   UNL     1      14.823  17.014   7.774  0.00  0.00    +0.155 HD
ATOM     37  N   UNL     1      16.654  16.173   6.223  0.00  0.00    -0.214 NA
BRANCH   4   3
ATOM      1  C   UNL     1      18.336  12.164   4.054  0.00  0.00    +0.020 A 
ATOM      2  C   UNL     1      18.542  13.418   4.741  0.00  0.00    +0.013 A 
ATOM      3  C   UNL     1      17.525  14.462   4.707  0.00  0.00    +0.019 A 
ATOM     38  C   UNL     1      16.302  14.203   3.962  0.00  0.00    +0.120 A 
ATOM     39  N   UNL     1      16.132  12.986   3.309  0.00  0.00    -0.263 NA
ATOM     40  C   UNL     1      17.104  11.975   3.334  0.00  0.00    +0.111 A 
ENDBRANCH   4   3
ENDBRANCH  10   9
BRANCH  12  13
ATOM     13  N   UNL     1      16.809  20.101  11.880  0.00  0.00    -0.281 N 
ATOM     14  C   UNL     1      17.975  20.748  12.257  0.00  0.00    +0.248 C 
ATOM     30  O   UNL     1      18.801  21.195  11.475  0.00  0.00    -0.270 OA
ATOM     31  H   UNL     1      16.310  19.610  12.621  0.00  0.00    +0.155 HD
BRANCH  14  15
ATOM     15  C   UNL     1      18.273  20.910  13.713  0.00  0.00    +0.037 A 
ATOM     16  C   UNL     1      19.639  20.786  14.227  0.00  0.00    +0.013 A 
ATOM     17  C   UNL     1      19.896  20.930  15.638  0.00  0.00    +0.005 A 
ATOM     18  C   UNL     1      18.784  21.199  16.545  0.00  0.00    -0.033 A 
ATOM     28  C   UNL     1      17.439  21.322  16.008  0.00  0.00    +0.005 A 
ATOM     29  C   UNL     1      17.182  21.181  14.625  0.00  0.00    +0.013 A 
BRANCH  18  19
ATOM     19  C   UNL     1      18.962  21.346  18.068  0.00  0.00    +0.119 C 
BRANCH  19  20
ATOM     20  N   UNL     1      20.182  22.063  18.547  0.00  0.00    -0.302 NA
ATOM     21  C   UNL     1      20.328  21.993  20.070  0.00  0.00    +0.066 C 
ATOM     22  C   UNL     1      21.621  22.728  20.552  0.00  0.00    -0.064 C 
ATOM     23  N   UNL     1      21.583  24.182  20.078  0.00  0.00    +0.379 N 
ATOM     24  C   UNL     1      22.769  24.892  20.579  0.00  0.00    -0.096 C 
ATOM     25  H   UNL     1      20.685  24.662  20.532  0.00  0.00    -0.082 HD
ATOM     26  C   UNL     1      21.435  24.262  18.566  0.00  0.00    -0.064 C 
ATOM     27  C   UNL     1      20.163  23.502  18.094  0.00  0.00    +0.066 C 
ENDBRANCH  19  20
ENDBRANCH  18  19
ENDBRANCH  14  15
ENDBRANCH  12  13
TORSDOF 6
ENDMDL
MODEL 2
REMARK VINA RESULT:     -10.1      3.390      6.064
REMARK  Name = C:\Users\Docking\Desktop\test protocol\1iep_ligandH.pdb
REMARK  8 active torsions:
REMARK  status: ('A' for Active; 'I' for Inactive)
REMARK    1  A    between atoms: _5  and  _11
REMARK    2  A    between atoms: _19  and  _21
REMARK    3  A    between atoms: _22  and  _66
REMARK    4  A    between atoms: _27  and  _30
REMARK    5  A    between atoms: _32  and  _33
REMARK    6  A    between atoms: _38  and  _43
REMARK    7  A    between atoms: _43  and  _46
REMARK    8  A    between atoms: _53  and  _55
REMARK                            x       y       z     vdW  Elec       q    Type
REMARK                         _______ _______ _______ _____ _____    ______ ____
ROOT
ATOM     10  C   UNL     1      17.266  14.564   5.175  0.00  0.00    +0.038 A 
ATOM     11  C   UNL     1      17.337  15.688   6.036  0.00  0.00    +0.047 A 
ATOM     12  C   UNL     1      18.565  16.019   6.742  0.00  0.00    +0.035 A 
ATOM     32  C   UNL     1      19.703  15.185   6.545  0.00  0.00    +0.024 A 
ATOM     33  C   UNL     1      19.649  14.037   5.673  0.00  0.00    +0.007 A 
ATOM     34  C   UNL     1      18.439  13.704   4.977  0.00  0.00    -0.029 A 
ATOM     35  C   UNL     1      18.436  12.458   4.060  0.00  0.00    +0.045 C 
ENDROOT
BRANCH  10   9
ATOM      4  C   UNL     1      12.482  14.178   5.107  0.00  0.00    +0.077 A 
ATOM      5  C   UNL     1      12.376  14.520   6.497  0.00  0.00    +0.048 A 
ATOM      6  C   UNL     1      13.576  14.781   7.194  0.00  0.00    +0.116 A 
ATOM      7  N   UNL     1      14.787  14.703   6.541  0.00  0.00    -0.223 NA
ATOM      8  C   UNL     1      14.855  14.369   5.201  0.00  0.00    +0.220 A 
ATOM      9  N   UNL     1      16.061  14.292   4.522  0.00  0.00    -0.283 N 
ATOM     36  H   UNL     1      16.069  14.035   3.536  0.00  0.00    +0.155 HD
ATOM     37  N   UNL     1      13.722  14.114   4.513  0.00  0.00    -0.214 NA
BRANCH   4   3
ATOM      1  C   UNL     1       8.982  14.355   3.370  0.00  0.00    +0.020 A 
ATOM      2  C   UNL     1      10.092  14.688   4.233  0.00  0.00    +0.013 A 
ATOM      3  C   UNL     1      11.303  13.878   4.234  0.00  0.00    +0.019 A 
ATOM     38  C   UNL     1      11.361  12.730   3.342  0.00  0.00    +0.120 A 
ATOM     39  N   UNL     1      10.276  12.433   2.524  0.00  0.00    -0.263 NA
ATOM     40  C   UNL     1       9.104  13.204   2.515  0.00  0.00    +0.111 A 
ENDBRANCH   4   3
ENDBRANCH  10   9
BRANCH  12  13
ATOM     13  N   UNL     1      18.694  17.143   7.636  0.00  0.00    -0.281 N 
ATOM     14  C   UNL     1      17.996  17.384   8.808  0.00  0.00    +0.248 C 
ATOM     30  O   UNL     1      16.998  16.771   9.156  0.00  0.00    -0.270 OA
ATOM     31  H   UNL     1      19.384  17.847   7.372  0.00  0.00    +0.155 HD
BRANCH  14  15
ATOM     15  C   UNL     1      18.466  18.473   9.718  0.00  0.00    +0.037 A 
ATOM     16  C   UNL     1      19.545  18.243  10.683  0.00  0.00    +0.013 A 
ATOM     17  C   UNL     1      19.968  19.306  11.560  0.00  0.00    +0.005 A 
ATOM     18  C   UNL     1      19.312  20.608  11.476  0.00  0.00    -0.033 A 
ATOM     28  C   UNL     1      18.249  20.810  10.506  0.00  0.00    +0.005 A 
ATOM     29  C   UNL     1      17.831  19.771   9.644  0.00  0.00    +0.013 A 
BRANCH  18  19
ATOM     19  C   UNL     1      19.684  21.793  12.387  0.00  0.00    +0.119 C 
BRANCH  19  20
ATOM     20  N   UNL     1      19.411  21.644  13.848  0.00  0.00    -0.302 NA
ATOM     21  C   UNL     1      17.914  21.512  14.142  0.00  0.00    +0.066 C 
ATOM     22  C   UNL     1      17.647  21.334  15.672  0.00  0.00    -0.064 C 
ATOM     23  N   UNL     1      18.246  22.519  16.432  0.00  0.00    +0.379 N 
ATOM     24  C   UNL     1      17.947  22.384  17.865  0.00  0.00    -0.096 C 
ATOM     25  H   UNL     1      17.743  23.444  16.067  0.00  0.00    -0.082 HD
ATOM     26  C   UNL     1      19.734  22.659  16.143  0.00  0.00    -0.064 C 
ATOM     27  C   UNL     1      19.990  22.805  14.617  0.00  0.00    +0.066 C 
ENDBRANCH  19  20
ENDBRANCH  18  19
ENDBRANCH  14  15
ENDBRANCH  12  13
TORSDOF 6
ENDMDL
MODEL 3
REMARK VINA RESULT:      -9.9      4.007     12.926
REMARK  Name = C:\Users\Docking\Desktop\test protocol\1iep_ligandH.pdb
REMARK  8 active torsions:
REMARK  status: ('A' for Active; 'I' for Inactive)
REMARK    1  A    between atoms: _5  and  _11
REMARK    2  A    between atoms: _19  and  _21
REMARK    3  A    between atoms: _22  and  _66
REMARK    4  A    between atoms: _27  and  _30
REMARK    5  A    between atoms: _32  and  _33
REMARK    6  A    between atoms: _38  and  _43
REMARK    7  A    between atoms: _43  and  _46
REMARK    8  A    between atoms: _53  and  _55
REMARK                            x       y       z     vdW  Elec       q    Type
REMARK                         _______ _______ _______ _____ _____    ______ ____
ROOT
ATOM     10  C   UNL     1      17.616  21.442  16.162  0.00  0.00    +0.038 A 
ATOM     11  C   UNL     1      17.652  20.839  14.879  0.00  0.00    +0.047 A 
ATOM     12  C   UNL     1      18.698  21.168  13.922  0.00  0.00    +0.035 A 
ATOM     32  C   UNL     1      19.693  22.113  14.307  0.00  0.00    +0.024 A 
ATOM     33  C   UNL     1      19.671  22.736  15.607  0.00  0.00    +0.007 A 
ATOM     34  C   UNL     1      18.640  22.418  16.554  0.00  0.00    -0.029 A 
ATOM     35  C   UNL     1      18.662  23.122  17.931  0.00  0.00    +0.045 C 
ENDROOT
BRANCH  10   9
ATOM      4  C   UNL     1      13.152  21.912  17.862  0.00  0.00    +0.077 A 
ATOM      5  C   UNL     1      12.848  22.967  16.938  0.00  0.00    +0.048 A 
ATOM      6  C   UNL     1      13.870  23.364  16.047  0.00  0.00    +0.116 A 
ATOM      7  N   UNL     1      15.101  22.745  16.086  0.00  0.00    -0.223 NA
ATOM      8  C   UNL     1      15.362  21.732  16.990  0.00  0.00    +0.220 A 
ATOM      9  N   UNL     1      16.589  21.090  17.041  0.00  0.00    -0.283 N 
ATOM     36  H   UNL     1      16.745  20.352  17.727  0.00  0.00    +0.155 HD
ATOM     37  N   UNL     1      14.403  21.335  17.852  0.00  0.00    -0.214 NA
BRANCH   4   3
ATOM      1  C   UNL     1      10.725  19.549  19.817  0.00  0.00    +0.020 A 
ATOM      2  C   UNL     1      11.667  20.014  18.826  0.00  0.00    +0.013 A 
ATOM      3  C   UNL     1      12.175  21.379  18.863  0.00  0.00    +0.019 A 
ATOM     38  C   UNL     1      11.707  22.255  19.927  0.00  0.00    +0.120 A 
ATOM     39  N   UNL     1      10.798  21.780  20.867  0.00  0.00    -0.263 NA
ATOM     40  C   UNL     1      10.301  20.469  20.840  0.00  0.00    +0.111 A 
ENDBRANCH   4   3
ENDBRANCH  10   9
BRANCH  12  13
ATOM     13  N   UNL     1      18.781  20.594  12.602  0.00  0.00    -0.281 N 
ATOM     14  C   UNL     1      19.269  19.347  12.245  0.00  0.00    +0.248 C 
ATOM     30  O   UNL     1      19.909  18.617  12.987  0.00  0.00    -0.270 OA
ATOM     31  H   UNL     1      18.439  21.177  11.838  0.00  0.00    +0.155 HD
BRANCH  14  15
ATOM     15  C   UNL     1      19.024  18.846  10.858  0.00  0.00    +0.037 A 
ATOM     16  C   UNL     1      19.660  17.620  10.369  0.00  0.00    +0.013 A 
ATOM     17  C   UNL     1      19.420  17.169   9.022  0.00  0.00    +0.005 A 
ATOM     18  C   UNL     1      18.537  17.944   8.153  0.00  0.00    -0.033 A 
ATOM     28  C   UNL     1      17.915  19.153   8.665  0.00  0.00    +0.005 A 
ATOM     29  C   UNL     1      18.149  19.600   9.985  0.00  0.00    +0.013 A 
BRANCH  18  19
ATOM     19  C   UNL     1      18.240  17.548   6.695  0.00  0.00    +0.119 C 
BRANCH  19  20
ATOM     20  N   UNL     1      18.354  16.101   6.342  0.00  0.00    -0.302 NA
ATOM     21  C   UNL     1      19.557  15.823   5.438  0.00  0.00    +0.066 C 
ATOM     22  C   UNL     1      19.674  14.302   5.097  0.00  0.00    -0.064 C 
ATOM     23  N   UNL     1      18.378  13.829   4.435  0.00  0.00    +0.379 N 
ATOM     24  C   UNL     1      18.507  12.413   4.061  0.00  0.00    -0.096 C 
ATOM     25  H   UNL     1      18.245  14.416   3.497  0.00  0.00    -0.082 HD
ATOM     26  C   UNL     1      17.176  14.105   5.326  0.00  0.00    -0.064 C 
ATOM     27  C   UNL     1      17.086  15.615   5.683  0.00  0.00    +0.066 C 
ENDBRANCH  19  20
ENDBRANCH  18  19
ENDBRANCH  14  15
ENDBRANCH  12  13
TORSDOF 6
ENDMDL
MODEL 4
REMARK VINA RESULT:      -9.8      9.566     15.097
REMARK  Name = C:\Users\Docking\Desktop\test protocol\1iep_ligandH.pdb
REMARK  8 active torsions:
REMARK  status: ('A' for Active; 'I' for Inactive)
REMARK    1  A    between atoms: _5  and  _11
REMARK    2  A    between atoms: _19  and  _21
REMARK    3  A    between atoms: _22  and  _66
REMARK    4  A    between atoms: _27  and  _30
REMARK    5  A    between atoms: _32  and  _33
REMARK    6  A    between atoms: _38  and  _43
REMARK    7  A    between atoms: _43  and  _46
REMARK    8  A    between atoms: _53  and  _55
REMARK                            x       y       z     vdW  Elec       q    Type
REMARK                         _______ _______ _______ _____ _____    ______ ____
ROOT
ATOM     10  C   UNL     1       7.874   9.703   2.165  0.00  0.00    +0.038 A 
ATOM     11  C   UNL     1       9.229  10.072   2.360  0.00  0.00    +0.047 A 
ATOM     12  C   UNL     1       9.735  11.355   1.897  0.00  0.00    +0.035 A 
ATOM     32  C   UNL     1       8.831  12.240   1.241  0.00  0.00    +0.024 A 
ATOM     33  C   UNL     1       7.450  11.881   1.033  0.00  0.00    +0.007 A 
ATOM     34  C   UNL     1       6.946  10.616   1.485  0.00  0.00    -0.029 A 
ATOM     35  C   UNL     1       5.459  10.281   1.229  0.00  0.00    +0.045 C 
ENDROOT
BRANCH  10   9
ATOM      4  C   UNL     1       6.263   6.809   5.638  0.00  0.00    +0.077 A 
ATOM      5  C   UNL     1       6.311   7.858   6.616  0.00  0.00    +0.048 A 
ATOM      6  C   UNL     1       6.763   9.125   6.186  0.00  0.00    +0.116 A 
ATOM      7  N   UNL     1       7.136   9.319   4.873  0.00  0.00    -0.223 NA
ATOM      8  C   UNL     1       7.079   8.285   3.956  0.00  0.00    +0.220 A 
ATOM      9  N   UNL     1       7.442   8.459   2.629  0.00  0.00    -0.283 N 
ATOM     36  H   UNL     1       7.393   7.670   1.986  0.00  0.00    +0.155 HD
ATOM     37  N   UNL     1       6.653   7.065   4.342  0.00  0.00    -0.214 NA
BRANCH   4   3
ATOM      1  C   UNL     1       4.732   3.687   7.429  0.00  0.00    +0.020 A 
ATOM      2  C   UNL     1       5.155   5.047   7.189  0.00  0.00    +0.013 A 
ATOM      3  C   UNL     1       5.805   5.415   5.938  0.00  0.00    +0.019 A 
ATOM     38  C   UNL     1       6.012   4.375   4.941  0.00  0.00    +0.120 A 
ATOM     39  N   UNL     1       5.595   3.074   5.201  0.00  0.00    -0.263 NA
ATOM     40  C   UNL     1       4.970   2.707   6.402  0.00  0.00    +0.111 A 
ENDBRANCH   4   3
ENDBRANCH  10   9
BRANCH  12  13
ATOM     13  N   UNL     1      11.103  11.780   2.061  0.00  0.00    -0.281 N 
ATOM     14  C   UNL     1      11.659  12.471   3.125  0.00  0.00    +0.248 C 
ATOM     30  O   UNL     1      11.013  13.017   4.007  0.00  0.00    -0.270 OA
ATOM     31  H   UNL     1      11.739  11.543   1.299  0.00  0.00    +0.155 HD
BRANCH  14  15
ATOM     15  C   UNL     1      13.146  12.582   3.216  0.00  0.00    +0.037 A 
ATOM     16  C   UNL     1      14.023  11.726   2.413  0.00  0.00    +0.013 A 
ATOM     17  C   UNL     1      15.455  11.842   2.532  0.00  0.00    +0.005 A 
ATOM     18  C   UNL     1      16.019  12.822   3.458  0.00  0.00    -0.033 A 
ATOM     28  C   UNL     1      15.126  13.663   4.238  0.00  0.00    +0.005 A 
ATOM     29  C   UNL     1      13.722  13.550   4.125  0.00  0.00    +0.013 A 
BRANCH  18  19
ATOM     19  C   UNL     1      17.535  13.000   3.665  0.00  0.00    +0.119 C 
BRANCH  19  20
ATOM     20  N   UNL     1      17.999  14.301   4.234  0.00  0.00    -0.302 NA
ATOM     21  C   UNL     1      18.169  15.373   3.155  0.00  0.00    +0.066 C 
ATOM     22  C   UNL     1      18.632  16.733   3.771  0.00  0.00    -0.064 C 
ATOM     23  N   UNL     1      19.940  16.523   4.536  0.00  0.00    +0.379 N 
ATOM     24  C   UNL     1      20.409  17.811   5.068  0.00  0.00    -0.096 C 
ATOM     25  H   UNL     1      20.703  16.159   3.809  0.00  0.00    -0.082 HD
ATOM     26  C   UNL     1      19.781  15.456   5.610  0.00  0.00    -0.064 C 
ATOM     27  C   UNL     1      19.291  14.117   4.991  0.00  0.00    +0.066 C 
ENDBRANCH  19  20
ENDBRANCH  18  19
ENDBRANCH  14  15
ENDBRANCH  12  13
TORSDOF 6
ENDMDL
MODEL 5
REMARK VINA RESULT:      -9.8      5.684     14.499
REMARK  Name = C:\Users\Docking\Desktop\test protocol\1iep_ligandH.pdb
REMARK  8 active torsions:
REMARK  status: ('A' for Active; 'I' for Inactive)
REMARK    1  A    between atoms: _5  and  _11
REMARK    2  A    between atoms: _19  and  _21
REMARK    3  A    between atoms: _22  and  _66
REMARK    4  A    between atoms: _27  and  _30
REMARK    5  A    between atoms: _32  and  _33
REMARK    6  A    between atoms: _38  and  _43
REMARK    7  A    between atoms: _43  and  _46
REMARK    8  A    between atoms: _53  and  _55
REMARK                            x       y       z     vdW  Elec       q    Type
REMARK                         _______ _______ _______ _____ _____    ______ ____
ROOT
ATOM     10  C   UNL     1      17.837  14.681   6.092  0.00  0.00    +0.038 A 
ATOM     11  C   UNL     1      16.481  14.500   5.718  0.00  0.00    +0.047 A 
ATOM     12  C   UNL     1      16.124  13.999   4.400  0.00  0.00    +0.035 A 
ATOM     32  C   UNL     1      17.175  13.690   3.488  0.00  0.00    +0.024 A 
ATOM     33  C   UNL     1      18.559  13.869   3.850  0.00  0.00    +0.007 A 
ATOM     34  C   UNL     1      18.917  14.365   5.149  0.00  0.00    -0.029 A 
ATOM     35  C   UNL     1      20.416  14.543   5.481  0.00  0.00    +0.045 C 
ENDROOT
BRANCH  10   9
ATOM      4  C   UNL     1      17.508  18.018   9.526  0.00  0.00    +0.077 A 
ATOM      5  C   UNL     1      16.723  18.883   8.693  0.00  0.00    +0.048 A 
ATOM      6  C   UNL     1      16.432  18.434   7.385  0.00  0.00    +0.116 A 
ATOM      7  N   UNL     1      16.896  17.211   6.953  0.00  0.00    -0.223 NA
ATOM      8  C   UNL     1      17.652  16.402   7.781  0.00  0.00    +0.220 A 
ATOM      9  N   UNL     1      18.123  15.165   7.371  0.00  0.00    -0.283 N 
ATOM     36  H   UNL     1      18.684  14.601   8.009  0.00  0.00    +0.155 HD
ATOM     37  N   UNL     1      17.945  16.808   9.034  0.00  0.00    -0.214 NA
BRANCH   4   3
ATOM      1  C   UNL     1      17.580  19.593  13.105  0.00  0.00    +0.020 A 
ATOM      2  C   UNL     1      17.165  19.309  11.751  0.00  0.00    +0.013 A 
ATOM      3  C   UNL     1      17.895  18.350  10.933  0.00  0.00    +0.019 A 
ATOM     38  C   UNL     1      19.051  17.689  11.521  0.00  0.00    +0.120 A 
ATOM     39  N   UNL     1      19.429  17.983  12.827  0.00  0.00    -0.263 NA
ATOM     40  C   UNL     1      18.734  18.906  13.623  0.00  0.00    +0.111 A 
ENDBRANCH   4   3
ENDBRANCH  10   9
BRANCH  12  13
ATOM     13  N   UNL     1      14.765  13.803   3.961  0.00  0.00    -0.281 N 
ATOM     14  C   UNL     1      14.182  12.639   3.487  0.00  0.00    +0.248 C 
ATOM     30  O   UNL     1      14.804  11.637   3.166  0.00  0.00    -0.270 OA
ATOM     31  H   UNL     1      14.158  14.622   4.006  0.00  0.00    +0.155 HD
BRANCH  14  15
ATOM     15  C   UNL     1      12.697  12.585   3.335  0.00  0.00    +0.037 A 
ATOM     16  C   UNL     1      11.821  13.477   4.099  0.00  0.00    +0.013 A 
ATOM     17  C   UNL     1      10.390  13.392   3.946  0.00  0.00    +0.005 A 
ATOM     18  C   UNL     1       9.826  12.412   3.021  0.00  0.00    -0.033 A 
ATOM     28  C   UNL     1      10.718  11.543   2.271  0.00  0.00    +0.005 A 
ATOM     29  C   UNL     1      12.121  11.623   2.420  0.00  0.00    +0.013 A 
BRANCH  18  19
ATOM     19  C   UNL     1       8.310  12.238   2.810  0.00  0.00    +0.119 C 
BRANCH  19  20
ATOM     20  N   UNL     1       7.589  11.329   3.751  0.00  0.00    -0.302 NA
ATOM     21  C   UNL     1       8.026  11.542   5.203  0.00  0.00    +0.066 C 
ATOM     22  C   UNL     1       7.245  10.599   6.176  0.00  0.00    -0.064 C 
ATOM     23  N   UNL     1       7.458   9.145   5.753  0.00  0.00    +0.379 N 
ATOM     24  C   UNL     1       6.773   8.253   6.700  0.00  0.00    -0.096 C 
ATOM     25  H   UNL     1       8.551   8.931   5.817  0.00  0.00    -0.082 HD
ATOM     26  C   UNL     1       7.029   8.925   4.309  0.00  0.00    -0.064 C 
ATOM     27  C   UNL     1       7.790   9.887   3.354  0.00  0.00    +0.066 C 
ENDBRANCH  19  20
ENDBRANCH  18  19
ENDBRANCH  14  15
ENDBRANCH  12  13
TORSDOF 6
ENDMDL
