MODEL 1
REMARK VINA RESULT:     -10.2      0.000      0.000
REMARK  Name = C:\Users\Docking\Desktop\test protocol\1iep_ligandH.pdb
REMARK  8 active torsions:
REMARK  status: ('A' for Active; 'I' for Inactive)
REMARK    1  A    between atoms: _5  and  _11
REMARK    2  A    between atoms: _19  and  _21
REMARK    3  A    between atoms: _22  and  _66
REMARK    4  A    between atoms: _27  and  _30
REMARK    5  A    between atoms: _32  and  _33
REMARK    6  A    between atoms: _38  and  _43
REMARK    7  A    between atoms: _43  and  _46
REMARK    8  A    between atoms: _53  and  _55
REMARK                            x       y       z     vdW  Elec       q    Type
REMARK                         _______ _______ _______ _____ _____    ______ ____
ROOT
ATOM     10  C   UNL     1     -45.225  11.886 -24.461  0.00  0.00    +0.038 A 
ATOM     11  C   UNL     1     -43.835  12.167 -24.418  0.00  0.00    +0.047 A 
ATOM     12  C   UNL     1     -43.275  13.307 -25.126  0.00  0.00    +0.035 A 
ATOM     32  C   UNL     1     -44.161  14.144 -25.866  0.00  0.00    +0.024 A 
ATOM     33  C   UNL     1     -45.576  13.873 -25.922  0.00  0.00    +0.007 A 
ATOM     34  C   UNL     1     -46.133  12.748 -25.228  0.00  0.00    -0.029 A 
ATOM     35  C   UNL     1     -47.657  12.502 -25.328  0.00  0.00    +0.045 C 
ENDROOT
BRANCH  10   9
ATOM      4  C   UNL     1     -46.207   7.201 -24.113  0.00  0.00    +0.077 A 
ATOM      5  C   UNL     1     -45.742   6.944 -25.445  0.00  0.00    +0.048 A 
ATOM      6  C   UNL     1     -45.265   8.046 -26.190  0.00  0.00    +0.116 A 
ATOM      7  N   UNL     1     -45.257   9.307 -25.633  0.00  0.00    -0.223 NA
ATOM      8  C   UNL     1     -45.714   9.520 -24.345  0.00  0.00    +0.220 A 
ATOM      9  N   UNL     1     -45.709  10.778 -23.762  0.00  0.00    -0.283 N 
ATOM     36  H   UNL     1     -46.061  10.895 -22.813  0.00  0.00    +0.155 HD
ATOM     37  N   UNL     1     -46.177   8.485 -23.614  0.00  0.00    -0.214 NA
BRANCH   4   3
ATOM      1  C   UNL     1     -46.993   5.062 -20.933  0.00  0.00    +0.020 A 
ATOM      2  C   UNL     1     -46.455   6.110 -21.771  0.00  0.00    +0.013 A 
ATOM      3  C   UNL     1     -46.738   6.140 -23.200  0.00  0.00    +0.019 A 
ATOM     38  C   UNL     1     -47.576   5.087 -23.755  0.00  0.00    +0.120 A 
ATOM     39  N   UNL     1     -48.079   4.091 -22.925  0.00  0.00    -0.263 NA
ATOM     40  C   UNL     1     -47.812   4.051 -21.548  0.00  0.00    +0.111 A 
ENDBRANCH   4   3
ENDBRANCH  10   9
BRANCH  12  13
ATOM     13  N   UNL     1     -41.872  13.637 -25.125  0.00  0.00    -0.281 N 
ATOM     14  C   UNL     1     -41.087  14.019 -24.049  0.00  0.00    +0.248 C 
ATOM     30  O   UNL     1     -41.525  14.344 -22.956  0.00  0.00    -0.270 OA
ATOM     31  H   UNL     1     -41.399  13.582 -26.028  0.00  0.00    +0.155 HD
BRANCH  14  15
ATOM     15  C   UNL     1     -39.603  14.060 -24.217  0.00  0.00    +0.037 A 
ATOM     16  C   UNL     1     -38.808  15.168 -23.679  0.00  0.00    +0.013 A 
ATOM     17  C   UNL     1     -37.379  15.192 -23.870  0.00  0.00    +0.005 A 
ATOM     18  C   UNL     1     -36.736  14.103 -24.601  0.00  0.00    -0.033 A 
ATOM     28  C   UNL     1     -37.548  13.014 -25.119  0.00  0.00    +0.005 A 
ATOM     29  C   UNL     1     -38.948  12.988 -24.935  0.00  0.00    +0.013 A 
BRANCH  18  19
ATOM     19  C   UNL     1     -35.220  14.057 -24.870  0.00  0.00    +0.119 C 
BRANCH  19  20
ATOM     20  N   UNL     1     -34.370  15.066 -24.170  0.00  0.00    -0.302 NA
ATOM     21  C   UNL     1     -34.019  16.249 -25.077  0.00  0.00    +0.066 C 
ATOM     22  C   UNL     1     -33.149  17.306 -24.323  0.00  0.00    -0.064 C 
ATOM     23  N   UNL     1     -31.881  16.635 -23.793  0.00  0.00    +0.379 N 
ATOM     24  C   UNL     1     -31.033  17.638 -23.133  0.00  0.00    -0.096 C 
ATOM     25  H   UNL     1     -31.317  16.239 -24.670  0.00  0.00    -0.082 HD
ATOM     26  C   UNL     1     -32.221  15.456 -22.893  0.00  0.00    -0.064 C 
ATOM     27  C   UNL     1     -33.110  14.425 -23.643  0.00  0.00    +0.066 C 
ENDBRANCH  19  20
ENDBRANCH  18  19
ENDBRANCH  14  15
ENDBRANCH  12  13
TORSDOF 6
ENDMDL
MODEL 2
REMARK VINA RESULT:     -10.2      4.292     13.779
REMARK  Name = C:\Users\Docking\Desktop\test protocol\1iep_ligandH.pdb
REMARK  8 active torsions:
REMARK  status: ('A' for Active; 'I' for Inactive)
REMARK    1  A    between atoms: _5  and  _11
REMARK    2  A    between atoms: _19  and  _21
REMARK    3  A    between atoms: _22  and  _66
REMARK    4  A    between atoms: _27  and  _30
REMARK    5  A    between atoms: _32  and  _33
REMARK    6  A    between atoms: _38  and  _43
REMARK    7  A    between atoms: _43  and  _46
REMARK    8  A    between atoms: _53  and  _55
REMARK                            x       y       z     vdW  Elec       q    Type
REMARK                         _______ _______ _______ _____ _____    ______ ____
ROOT
ATOM     10  C   UNL     1     -34.645  17.243 -22.885  0.00  0.00    +0.038 A 
ATOM     11  C   UNL     1     -35.818  16.500 -23.172  0.00  0.00    +0.047 A 
ATOM     12  C   UNL     1     -35.789  15.374 -24.092  0.00  0.00    +0.035 A 
ATOM     32  C   UNL     1     -34.547  15.031 -24.702  0.00  0.00    +0.024 A 
ATOM     33  C   UNL     1     -33.345  15.776 -24.423  0.00  0.00    +0.007 A 
ATOM     34  C   UNL     1     -33.368  16.890 -23.517  0.00  0.00    -0.029 A 
ATOM     35  C   UNL     1     -32.050  17.657 -23.260  0.00  0.00    +0.045 C 
ENDROOT
BRANCH  10   9
ATOM      4  C   UNL     1     -34.712  19.057 -18.442  0.00  0.00    +0.077 A 
ATOM      5  C   UNL     1     -34.594  17.757 -17.846  0.00  0.00    +0.048 A 
ATOM      6  C   UNL     1     -34.527  16.647 -18.718  0.00  0.00    +0.116 A 
ATOM      7  N   UNL     1     -34.574  16.835 -20.082  0.00  0.00    -0.223 NA
ATOM      8  C   UNL     1     -34.689  18.102 -20.624  0.00  0.00    +0.220 A 
ATOM      9  N   UNL     1     -34.730  18.315 -21.993  0.00  0.00    -0.283 N 
ATOM     36  H   UNL     1     -34.823  19.264 -22.354  0.00  0.00    +0.155 HD
ATOM     37  N   UNL     1     -34.757  19.178 -19.813  0.00  0.00    -0.214 NA
BRANCH   4   3
ATOM      1  C   UNL     1     -33.887  21.972 -15.967  0.00  0.00    +0.020 A 
ATOM      2  C   UNL     1     -33.763  20.735 -16.703  0.00  0.00    +0.013 A 
ATOM      3  C   UNL     1     -34.791  20.327 -17.653  0.00  0.00    +0.019 A 
ATOM     38  C   UNL     1     -35.940  21.201 -17.837  0.00  0.00    +0.120 A 
ATOM     39  N   UNL     1     -36.033  22.385 -17.113  0.00  0.00    -0.263 NA
ATOM     40  C   UNL     1     -35.051  22.787 -16.195  0.00  0.00    +0.111 A 
ENDBRANCH   4   3
ENDBRANCH  10   9
BRANCH  12  13
ATOM     13  N   UNL     1     -36.950  14.587 -24.428  0.00  0.00    -0.281 N 
ATOM     14  C   UNL     1     -38.071  14.348 -23.650  0.00  0.00    +0.248 C 
ATOM     30  O   UNL     1     -38.152  14.602 -22.458  0.00  0.00    -0.270 OA
ATOM     31  H   UNL     1     -36.945  14.153 -25.351  0.00  0.00    +0.155 HD
BRANCH  14  15
ATOM     15  C   UNL     1     -39.272  13.724 -24.286  0.00  0.00    +0.037 A 
ATOM     16  C   UNL     1     -39.143  12.582 -25.194  0.00  0.00    +0.013 A 
ATOM     17  C   UNL     1     -40.316  12.010 -25.807  0.00  0.00    +0.005 A 
ATOM     18  C   UNL     1     -41.628  12.579 -25.512  0.00  0.00    -0.033 A 
ATOM     28  C   UNL     1     -41.728  13.709 -24.602  0.00  0.00    +0.005 A 
ATOM     29  C   UNL     1     -40.580  14.273 -24.001  0.00  0.00    +0.013 A 
BRANCH  18  19
ATOM     19  C   UNL     1     -42.931  12.046 -26.137  0.00  0.00    +0.119 C 
BRANCH  19  20
ATOM     20  N   UNL     1     -43.617  10.921 -25.433  0.00  0.00    -0.302 NA
ATOM     21  C   UNL     1     -44.406  10.035 -26.401  0.00  0.00    +0.066 C 
ATOM     22  C   UNL     1     -45.099   8.850 -25.651  0.00  0.00    -0.064 C 
ATOM     23  N   UNL     1     -46.013   9.407 -24.558  0.00  0.00    +0.379 N 
ATOM     24  C   UNL     1     -46.709   8.298 -23.890  0.00  0.00    -0.096 C 
ATOM     25  H   UNL     1     -46.784  10.042 -25.053  0.00  0.00    -0.082 HD
ATOM     26  C   UNL     1     -45.236  10.292 -23.593  0.00  0.00    -0.064 C 
ATOM     27  C   UNL     1     -44.528  11.449 -24.352  0.00  0.00    +0.066 C 
ENDBRANCH  19  20
ENDBRANCH  18  19
ENDBRANCH  14  15
ENDBRANCH  12  13
TORSDOF 6
ENDMDL
MODEL 3
REMARK VINA RESULT:      -9.8      7.219     11.636
REMARK  Name = C:\Users\Docking\Desktop\test protocol\1iep_ligandH.pdb
REMARK  8 active torsions:
REMARK  status: ('A' for Active; 'I' for Inactive)
REMARK    1  A    between atoms: _5  and  _11
REMARK    2  A    between atoms: _19  and  _21
REMARK    3  A    between atoms: _22  and  _66
REMARK    4  A    between atoms: _27  and  _30
REMARK    5  A    between atoms: _32  and  _33
REMARK    6  A    between atoms: _38  and  _43
REMARK    7  A    between atoms: _43  and  _46
REMARK    8  A    between atoms: _53  and  _55
REMARK                            x       y       z     vdW  Elec       q    Type
REMARK                         _______ _______ _______ _____ _____    ______ ____
ROOT
ATOM     10  C   UNL     1     -35.058  15.195 -22.252  0.00  0.00    +0.038 A 
ATOM     11  C   UNL     1     -35.344  16.087 -21.188  0.00  0.00    +0.047 A 
ATOM     12  C   UNL     1     -34.313  16.950 -20.632  0.00  0.00    +0.035 A 
ATOM     32  C   UNL     1     -33.002  16.879 -21.186  0.00  0.00    +0.024 A 
ATOM     33  C   UNL     1     -32.693  15.976 -22.267  0.00  0.00    +0.007 A 
ATOM     34  C   UNL     1     -33.705  15.121 -22.818  0.00  0.00    -0.029 A 
ATOM     35  C   UNL     1     -33.316  14.169 -23.972  0.00  0.00    +0.045 C 
ENDROOT
BRANCH  10   9
ATOM      4  C   UNL     1     -39.326  14.603 -24.368  0.00  0.00    +0.077 A 
ATOM      5  C   UNL     1     -39.537  16.018 -24.470  0.00  0.00    +0.048 A 
ATOM      6  C   UNL     1     -38.527  16.864 -23.959  0.00  0.00    +0.116 A 
ATOM      7  N   UNL     1     -37.394  16.324 -23.392  0.00  0.00    -0.223 NA
ATOM      8  C   UNL     1     -37.221  14.954 -23.308  0.00  0.00    +0.220 A 
ATOM      9  N   UNL     1     -36.086  14.389 -22.748  0.00  0.00    -0.283 N 
ATOM     36  H   UNL     1     -36.000  13.374 -22.698  0.00  0.00    +0.155 HD
ATOM     37  N   UNL     1     -38.172  14.125 -23.787  0.00  0.00    -0.214 NA
BRANCH   4   3
ATOM      1  C   UNL     1     -40.894  11.513 -26.182  0.00  0.00    +0.020 A 
ATOM      2  C   UNL     1     -39.914  12.474 -25.731  0.00  0.00    +0.013 A 
ATOM      3  C   UNL     1     -40.300  13.580 -24.865  0.00  0.00    +0.019 A 
ATOM     38  C   UNL     1     -41.696  13.687 -24.469  0.00  0.00    +0.120 A 
ATOM     39  N   UNL     1     -42.618  12.747 -24.921  0.00  0.00    -0.263 NA
ATOM     40  C   UNL     1     -42.258  11.679 -25.756  0.00  0.00    +0.111 A 
ENDBRANCH   4   3
ENDBRANCH  10   9
BRANCH  12  13
ATOM     13  N   UNL     1     -34.543  17.870 -19.546  0.00  0.00    -0.281 N 
ATOM     14  C   UNL     1     -34.117  17.761 -18.232  0.00  0.00    +0.248 C 
ATOM     30  O   UNL     1     -33.654  16.743 -17.738  0.00  0.00    -0.270 OA
ATOM     31  H   UNL     1     -35.084  18.704 -19.773  0.00  0.00    +0.155 HD
BRANCH  14  15
ATOM     15  C   UNL     1     -34.238  18.948 -17.333  0.00  0.00    +0.037 A 
ATOM     16  C   UNL     1     -35.545  19.516 -16.995  0.00  0.00    +0.013 A 
ATOM     17  C   UNL     1     -35.632  20.673 -16.139  0.00  0.00    +0.005 A 
ATOM     18  C   UNL     1     -34.406  21.268 -15.612  0.00  0.00    -0.033 A 
ATOM     28  C   UNL     1     -33.122  20.680 -15.959  0.00  0.00    +0.005 A 
ATOM     29  C   UNL     1     -33.033  19.548 -16.799  0.00  0.00    +0.013 A 
BRANCH  18  19
ATOM     19  C   UNL     1     -34.403  22.515 -14.709  0.00  0.00    +0.119 C 
BRANCH  19  20
ATOM     20  N   UNL     1     -33.528  22.480 -13.499  0.00  0.00    -0.302 NA
ATOM     21  C   UNL     1     -34.123  21.615 -12.384  0.00  0.00    +0.066 C 
ATOM     22  C   UNL     1     -33.184  21.572 -11.135  0.00  0.00    -0.064 C 
ATOM     23  N   UNL     1     -32.933  22.997 -10.639  0.00  0.00    +0.379 N 
ATOM     24  C   UNL     1     -32.098  22.956  -9.430  0.00  0.00    -0.096 C 
ATOM     25  H   UNL     1     -33.919  23.434 -10.355  0.00  0.00    -0.082 HD
ATOM     26  C   UNL     1     -32.344  23.865 -11.742  0.00  0.00    -0.064 C 
ATOM     27  C   UNL     1     -33.271  23.878 -12.990  0.00  0.00    +0.066 C 
ENDBRANCH  19  20
ENDBRANCH  18  19
ENDBRANCH  14  15
ENDBRANCH  12  13
TORSDOF 6
ENDMDL
MODEL 4
REMARK VINA RESULT:      -9.5      7.583     11.788
REMARK  Name = C:\Users\Docking\Desktop\test protocol\1iep_ligandH.pdb
REMARK  8 active torsions:
REMARK  status: ('A' for Active; 'I' for Inactive)
REMARK    1  A    between atoms: _5  and  _11
REMARK    2  A    between atoms: _19  and  _21
REMARK    3  A    between atoms: _22  and  _66
REMARK    4  A    between atoms: _27  and  _30
REMARK    5  A    between atoms: _32  and  _33
REMARK    6  A    between atoms: _38  and  _43
REMARK    7  A    between atoms: _43  and  _46
REMARK    8  A    between atoms: _53  and  _55
REMARK                            x       y       z     vdW  Elec       q    Type
REMARK                         _______ _______ _______ _____ _____    ______ ____
ROOT
ATOM     10  C   UNL     1     -35.125  15.279 -22.080  0.00  0.00    +0.038 A 
ATOM     11  C   UNL     1     -35.331  15.939 -20.842  0.00  0.00    +0.047 A 
ATOM     12  C   UNL     1     -34.308  16.801 -20.271  0.00  0.00    +0.035 A 
ATOM     32  C   UNL     1     -33.088  16.971 -20.989  0.00  0.00    +0.024 A 
ATOM     33  C   UNL     1     -32.862  16.306 -22.248  0.00  0.00    +0.007 A 
ATOM     34  C   UNL     1     -33.866  15.452 -22.815  0.00  0.00    -0.029 A 
ATOM     35  C   UNL     1     -33.567  14.760 -24.165  0.00  0.00    +0.045 C 
ENDROOT
BRANCH  10   9
ATOM      4  C   UNL     1     -39.315  14.637 -24.332  0.00  0.00    +0.077 A 
ATOM      5  C   UNL     1     -39.510  16.049 -24.497  0.00  0.00    +0.048 A 
ATOM      6  C   UNL     1     -38.512  16.906 -23.982  0.00  0.00    +0.116 A 
ATOM      7  N   UNL     1     -37.406  16.380 -23.351  0.00  0.00    -0.223 NA
ATOM      8  C   UNL     1     -37.249  15.014 -23.207  0.00  0.00    +0.220 A 
ATOM      9  N   UNL     1     -36.141  14.462 -22.583  0.00  0.00    -0.283 N 
ATOM     36  H   UNL     1     -36.066  13.450 -22.490  0.00  0.00    +0.155 HD
ATOM     37  N   UNL     1     -38.189  14.174 -23.689  0.00  0.00    -0.214 NA
BRANCH   4   3
ATOM      1  C   UNL     1     -40.851  11.518 -26.124  0.00  0.00    +0.020 A 
ATOM      2  C   UNL     1     -39.881  12.490 -25.676  0.00  0.00    +0.013 A 
ATOM      3  C   UNL     1     -40.280  13.604 -24.824  0.00  0.00    +0.019 A 
ATOM     38  C   UNL     1     -41.680  13.705 -24.441  0.00  0.00    +0.120 A 
ATOM     39  N   UNL     1     -42.592  12.756 -24.889  0.00  0.00    -0.263 NA
ATOM     40  C   UNL     1     -42.220  11.681 -25.710  0.00  0.00    +0.111 A 
ENDBRANCH   4   3
ENDBRANCH  10   9
BRANCH  12  13
ATOM     13  N   UNL     1     -34.457  17.492 -19.013  0.00  0.00    -0.281 N 
ATOM     14  C   UNL     1     -33.584  17.500 -17.938  0.00  0.00    +0.248 C 
ATOM     30  O   UNL     1     -32.637  16.738 -17.811  0.00  0.00    -0.270 OA
ATOM     31  H   UNL     1     -35.310  18.041 -18.903  0.00  0.00    +0.155 HD
BRANCH  14  15
ATOM     15  C   UNL     1     -33.803  18.487 -16.837  0.00  0.00    +0.037 A 
ATOM     16  C   UNL     1     -34.563  19.720 -17.063  0.00  0.00    +0.013 A 
ATOM     17  C   UNL     1     -34.745  20.663 -15.988  0.00  0.00    +0.005 A 
ATOM     18  C   UNL     1     -34.167  20.377 -14.678  0.00  0.00    -0.033 A 
ATOM     28  C   UNL     1     -33.423  19.144 -14.481  0.00  0.00    +0.005 A 
ATOM     29  C   UNL     1     -33.241  18.217 -15.531  0.00  0.00    +0.013 A 
BRANCH  18  19
ATOM     19  C   UNL     1     -34.294  21.337 -13.480  0.00  0.00    +0.119 C 
BRANCH  19  20
ATOM     20  N   UNL     1     -35.646  21.489 -12.866  0.00  0.00    -0.302 NA
ATOM     21  C   UNL     1     -36.398  22.701 -13.423  0.00  0.00    +0.066 C 
ATOM     22  C   UNL     1     -37.819  22.833 -12.786  0.00  0.00    -0.064 C 
ATOM     23  N   UNL     1     -37.687  22.930 -11.266  0.00  0.00    +0.379 N 
ATOM     24  C   UNL     1     -39.017  23.112 -10.668  0.00  0.00    -0.096 C 
ATOM     25  H   UNL     1     -37.086  23.841 -11.037  0.00  0.00    -0.082 HD
ATOM     26  C   UNL     1     -36.939  21.730 -10.703  0.00  0.00    -0.064 C 
ATOM     27  C   UNL     1     -35.539  21.592 -11.364  0.00  0.00    +0.066 C 
ENDBRANCH  19  20
ENDBRANCH  18  19
ENDBRANCH  14  15
ENDBRANCH  12  13
TORSDOF 6
ENDMDL
MODEL 5
REMARK VINA RESULT:      -9.4      2.696     13.049
REMARK  Name = C:\Users\Docking\Desktop\test protocol\1iep_ligandH.pdb
REMARK  8 active torsions:
REMARK  status: ('A' for Active; 'I' for Inactive)
REMARK    1  A    between atoms: _5  and  _11
REMARK    2  A    between atoms: _19  and  _21
REMARK    3  A    between atoms: _22  and  _66
REMARK    4  A    between atoms: _27  and  _30
REMARK    5  A    between atoms: _32  and  _33
REMARK    6  A    between atoms: _38  and  _43
REMARK    7  A    between atoms: _43  and  _46
REMARK    8  A    between atoms: _53  and  _55
REMARK                            x       y       z     vdW  Elec       q    Type
REMARK                         _______ _______ _______ _____ _____    ______ ____
ROOT
ATOM     10  C   UNL     1     -44.502  12.454 -23.914  0.00  0.00    +0.038 A 
ATOM     11  C   UNL     1     -44.820  11.139 -23.487  0.00  0.00    +0.047 A 
ATOM     12  C   UNL     1     -46.109  10.539 -23.793  0.00  0.00    +0.035 A 
ATOM     32  C   UNL     1     -47.050  11.305 -24.540  0.00  0.00    +0.024 A 
ATOM     33  C   UNL     1     -46.745  12.643 -24.981  0.00  0.00    +0.007 A 
ATOM     34  C   UNL     1     -45.476  13.242 -24.679  0.00  0.00    -0.029 A 
ATOM     35  C   UNL     1     -45.205  14.682 -25.172  0.00  0.00    +0.045 C 
ENDROOT
BRANCH  10   9
ATOM      4  C   UNL     1     -39.827  13.095 -24.791  0.00  0.00    +0.077 A 
ATOM      5  C   UNL     1     -39.879  12.290 -25.977  0.00  0.00    +0.048 A 
ATOM      6  C   UNL     1     -41.126  11.723 -26.323  0.00  0.00    +0.116 A 
ATOM      7  N   UNL     1     -42.232  11.951 -25.534  0.00  0.00    -0.223 NA
ATOM      8  C   UNL     1     -42.148  12.731 -24.395  0.00  0.00    +0.220 A 
ATOM      9  N   UNL     1     -43.250  12.981 -23.591  0.00  0.00    -0.283 N 
ATOM     36  H   UNL     1     -43.144  13.555 -22.756  0.00  0.00    +0.155 HD
ATOM     37  N   UNL     1     -40.968  13.283 -24.043  0.00  0.00    -0.214 NA
BRANCH   4   3
ATOM      1  C   UNL     1     -37.317  15.194 -22.647  0.00  0.00    +0.020 A 
ATOM      2  C   UNL     1     -38.545  14.569 -23.081  0.00  0.00    +0.013 A 
ATOM      3  C   UNL     1     -38.583  13.764 -24.296  0.00  0.00    +0.019 A 
ATOM     38  C   UNL     1     -37.350  13.610 -25.054  0.00  0.00    +0.120 A 
ATOM     39  N   UNL     1     -36.183  14.225 -24.612  0.00  0.00    -0.263 NA
ATOM     40  C   UNL     1     -36.135  15.003 -23.446  0.00  0.00    +0.111 A 
ENDBRANCH   4   3
ENDBRANCH  10   9
BRANCH  12  13
ATOM     13  N   UNL     1     -46.490   9.211 -23.379  0.00  0.00    -0.281 N 
ATOM     14  C   UNL     1     -46.323   8.023 -24.070  0.00  0.00    +0.248 C 
ATOM     30  O   UNL     1     -46.010   7.947 -25.250  0.00  0.00    -0.270 OA
ATOM     31  H   UNL     1     -46.938   9.139 -22.465  0.00  0.00    +0.155 HD
BRANCH  14  15
ATOM     15  C   UNL     1     -46.549   6.732 -23.352  0.00  0.00    +0.037 A 
ATOM     16  C   UNL     1     -46.586   6.672 -21.889  0.00  0.00    +0.013 A 
ATOM     17  C   UNL     1     -46.788   5.411 -21.221  0.00  0.00    +0.005 A 
ATOM     18  C   UNL     1     -46.958   4.198 -22.017  0.00  0.00    -0.033 A 
ATOM     28  C   UNL     1     -46.923   4.286 -23.467  0.00  0.00    +0.005 A 
ATOM     29  C   UNL     1     -46.723   5.520 -24.125  0.00  0.00    +0.013 A 
BRANCH  18  19
ATOM     19  C   UNL     1     -47.159   2.807 -21.388  0.00  0.00    +0.119 C 
BRANCH  19  20
ATOM     20  N   UNL     1     -47.501   1.683 -22.310  0.00  0.00    -0.302 NA
ATOM     21  C   UNL     1     -48.581   0.769 -21.725  0.00  0.00    +0.066 C 
ATOM     22  C   UNL     1     -48.943  -0.389 -22.712  0.00  0.00    -0.064 C 
ATOM     23  N   UNL     1     -47.681  -1.186 -23.044  0.00  0.00    +0.379 N 
ATOM     24  C   UNL     1     -48.028  -2.310 -23.926  0.00  0.00    -0.096 C 
ATOM     25  H   UNL     1     -47.290  -1.612 -22.091  0.00  0.00    -0.082 HD
ATOM     26  C   UNL     1     -46.600  -0.284 -23.624  0.00  0.00    -0.064 C 
ATOM     27  C   UNL     1     -46.269   0.879 -22.648  0.00  0.00    +0.066 C 
ENDBRANCH  19  20
ENDBRANCH  18  19
ENDBRANCH  14  15
ENDBRANCH  12  13
TORSDOF 6
ENDMDL
