MODEL 1
REMARK VINA RESULT:      -9.6      0.000      0.000
REMARK  Name = C:\Users\Docking\Desktop\test protocol\1iep_ligandH.pdb
REMARK  8 active torsions:
REMARK  status: ('A' for Active; 'I' for Inactive)
REMARK    1  A    between atoms: _5  and  _11
REMARK    2  A    between atoms: _19  and  _21
REMARK    3  A    between atoms: _22  and  _66
REMARK    4  A    between atoms: _27  and  _30
REMARK    5  A    between atoms: _32  and  _33
REMARK    6  A    between atoms: _38  and  _43
REMARK    7  A    between atoms: _43  and  _46
REMARK    8  A    between atoms: _53  and  _55
REMARK                            x       y       z     vdW  Elec       q    Type
REMARK                         _______ _______ _______ _____ _____    ______ ____
ROOT
ATOM     10  C   UNL     1      -6.086 -22.551 -15.731  0.00  0.00    +0.038 A 
ATOM     11  C   UNL     1      -7.240 -23.124 -15.138  0.00  0.00    +0.047 A 
ATOM     12  C   UNL     1      -8.574 -22.791 -15.612  0.00  0.00    +0.035 A 
ATOM     32  C   UNL     1      -8.696 -21.872 -16.695  0.00  0.00    +0.024 A 
ATOM     33  C   UNL     1      -7.534 -21.279 -17.309  0.00  0.00    +0.007 A 
ATOM     34  C   UNL     1      -6.216 -21.602 -16.844  0.00  0.00    -0.029 A 
ATOM     35  C   UNL     1      -5.006 -20.932 -17.535  0.00  0.00    +0.045 C 
ENDROOT
BRANCH  10   9
ATOM      4  C   UNL     1      -2.468 -22.052 -12.616  0.00  0.00    +0.077 A 
ATOM      5  C   UNL     1      -3.126 -20.974 -11.934  0.00  0.00    +0.048 A 
ATOM      6  C   UNL     1      -4.390 -20.574 -12.421  0.00  0.00    +0.116 A 
ATOM      7  N   UNL     1      -4.947 -21.211 -13.509  0.00  0.00    -0.223 NA
ATOM      8  C   UNL     1      -4.285 -22.246 -14.145  0.00  0.00    +0.220 A 
ATOM      9  N   UNL     1      -4.829 -22.906 -15.236  0.00  0.00    -0.283 N 
ATOM     36  H   UNL     1      -4.306 -23.659 -15.681  0.00  0.00    +0.155 HD
ATOM     37  N   UNL     1      -3.076 -22.645 -13.700  0.00  0.00    -0.214 NA
BRANCH   4   3
ATOM      1  C   UNL     1       0.675 -24.353 -12.266  0.00  0.00    +0.020 A 
ATOM      2  C   UNL     1      -0.625 -23.879 -12.678  0.00  0.00    +0.013 A 
ATOM      3  C   UNL     1      -1.129 -22.590 -12.219  0.00  0.00    +0.019 A 
ATOM     38  C   UNL     1      -0.285 -21.800 -11.336  0.00  0.00    +0.120 A 
ATOM     39  N   UNL     1       0.963 -22.283 -10.954  0.00  0.00    -0.263 NA
ATOM     40  C   UNL     1       1.458 -23.522 -11.389  0.00  0.00    +0.111 A 
ENDBRANCH   4   3
ENDBRANCH  10   9
BRANCH  12  13
ATOM     13  N   UNL     1      -9.782 -23.335 -15.044  0.00  0.00    -0.281 N 
ATOM     14  C   UNL     1     -10.737 -24.123 -15.666  0.00  0.00    +0.248 C 
ATOM     30  O   UNL     1     -10.803 -24.303 -16.873  0.00  0.00    -0.270 OA
ATOM     31  H   UNL     1      -9.955 -23.112 -14.063  0.00  0.00    +0.155 HD
BRANCH  14  15
ATOM     15  C   UNL     1     -11.775 -24.796 -14.828  0.00  0.00    +0.037 A 
ATOM     16  C   UNL     1     -12.015 -24.388 -13.442  0.00  0.00    +0.013 A 
ATOM     17  C   UNL     1     -13.011 -25.065 -12.650  0.00  0.00    +0.005 A 
ATOM     18  C   UNL     1     -13.777 -26.158 -13.245  0.00  0.00    -0.033 A 
ATOM     28  C   UNL     1     -13.523 -26.539 -14.625  0.00  0.00    +0.005 A 
ATOM     29  C   UNL     1     -12.546 -25.878 -15.403  0.00  0.00    +0.013 A 
BRANCH  18  19
ATOM     19  C   UNL     1     -14.845 -26.950 -12.469  0.00  0.00    +0.119 C 
BRANCH  19  20
ATOM     20  N   UNL     1     -15.483 -28.105 -13.168  0.00  0.00    -0.302 NA
ATOM     21  C   UNL     1     -16.809 -27.716 -13.828  0.00  0.00    +0.066 C 
ATOM     22  C   UNL     1     -17.451 -28.930 -14.575  0.00  0.00    -0.064 C 
ATOM     23  N   UNL     1     -17.655 -30.082 -13.589  0.00  0.00    +0.379 N 
ATOM     24  C   UNL     1     -18.312 -31.204 -14.274  0.00  0.00    -0.096 C 
ATOM     25  H   UNL     1     -18.343 -29.724 -12.789  0.00  0.00    -0.082 HD
ATOM     26  C   UNL     1     -16.342 -30.473 -12.926  0.00  0.00    -0.064 C 
ATOM     27  C   UNL     1     -15.697 -29.252 -12.212  0.00  0.00    +0.066 C 
ENDBRANCH  19  20
ENDBRANCH  18  19
ENDBRANCH  14  15
ENDBRANCH  12  13
TORSDOF 6
ENDMDL
MODEL 2
REMARK VINA RESULT:      -9.4      2.694     13.298
REMARK  Name = C:\Users\Docking\Desktop\test protocol\1iep_ligandH.pdb
REMARK  8 active torsions:
REMARK  status: ('A' for Active; 'I' for Inactive)
REMARK    1  A    between atoms: _5  and  _11
REMARK    2  A    between atoms: _19  and  _21
REMARK    3  A    between atoms: _22  and  _66
REMARK    4  A    between atoms: _27  and  _30
REMARK    5  A    between atoms: _32  and  _33
REMARK    6  A    between atoms: _38  and  _43
REMARK    7  A    between atoms: _43  and  _46
REMARK    8  A    between atoms: _53  and  _55
REMARK                            x       y       z     vdW  Elec       q    Type
REMARK                         _______ _______ _______ _____ _____    ______ ____
ROOT
ATOM     10  C   UNL     1      -6.790 -25.314 -16.941  0.00  0.00    +0.038 A 
ATOM     11  C   UNL     1      -5.765 -25.024 -16.005  0.00  0.00    +0.047 A 
ATOM     12  C   UNL     1      -4.491 -24.466 -16.432  0.00  0.00    +0.035 A 
ATOM     32  C   UNL     1      -4.296 -24.214 -17.821  0.00  0.00    +0.024 A 
ATOM     33  C   UNL     1      -5.327 -24.504 -18.787  0.00  0.00    +0.007 A 
ATOM     34  C   UNL     1      -6.584 -25.056 -18.372  0.00  0.00    -0.029 A 
ATOM     35  C   UNL     1      -7.651 -25.353 -19.451  0.00  0.00    +0.045 C 
ENDROOT
BRANCH  10   9
ATOM      4  C   UNL     1     -11.133 -24.861 -14.949  0.00  0.00    +0.077 A 
ATOM      5  C   UNL     1     -10.981 -23.442 -14.798  0.00  0.00    +0.048 A 
ATOM      6  C   UNL     1      -9.767 -22.869 -15.239  0.00  0.00    +0.116 A 
ATOM      7  N   UNL     1      -8.785 -23.665 -15.789  0.00  0.00    -0.223 NA
ATOM      8  C   UNL     1      -8.964 -25.030 -15.918  0.00  0.00    +0.220 A 
ATOM      9  N   UNL     1      -7.993 -25.849 -16.476  0.00  0.00    -0.283 N 
ATOM     36  H   UNL     1      -8.160 -26.852 -16.547  0.00  0.00    +0.155 HD
ATOM     37  N   UNL     1     -10.113 -25.602 -15.503  0.00  0.00    -0.214 NA
BRANCH   4   3
ATOM      1  C   UNL     1     -14.112 -26.272 -12.843  0.00  0.00    +0.020 A 
ATOM      2  C   UNL     1     -12.925 -25.526 -13.193  0.00  0.00    +0.013 A 
ATOM      3  C   UNL     1     -12.359 -25.613 -14.533  0.00  0.00    +0.019 A 
ATOM     38  C   UNL     1     -13.023 -26.470 -15.503  0.00  0.00    +0.120 A 
ATOM     39  N   UNL     1     -14.164 -27.178 -15.137  0.00  0.00    -0.263 NA
ATOM     40  C   UNL     1     -14.717 -27.103 -13.850  0.00  0.00    +0.111 A 
ENDBRANCH   4   3
ENDBRANCH  10   9
BRANCH  12  13
ATOM     13  N   UNL     1      -3.410 -24.159 -15.528  0.00  0.00    -0.281 N 
ATOM     14  C   UNL     1      -3.254 -23.030 -14.741  0.00  0.00    +0.248 C 
ATOM     30  O   UNL     1      -3.917 -22.010 -14.855  0.00  0.00    -0.270 OA
ATOM     31  H   UNL     1      -2.671 -24.859 -15.460  0.00  0.00    +0.155 HD
BRANCH  14  15
ATOM     15  C   UNL     1      -2.198 -23.029 -13.683  0.00  0.00    +0.037 A 
ATOM     16  C   UNL     1      -2.040 -21.895 -12.768  0.00  0.00    +0.013 A 
ATOM     17  C   UNL     1      -1.003 -21.912 -11.767  0.00  0.00    +0.005 A 
ATOM     18  C   UNL     1      -0.116 -23.068 -11.675  0.00  0.00    -0.033 A 
ATOM     28  C   UNL     1      -0.298 -24.182 -12.592  0.00  0.00    +0.005 A 
ATOM     29  C   UNL     1      -1.313 -24.168 -13.574  0.00  0.00    +0.013 A 
BRANCH  18  19
ATOM     19  C   UNL     1       1.032 -23.163 -10.652  0.00  0.00    +0.119 C 
BRANCH  19  20
ATOM     20  N   UNL     1       2.295 -22.434 -10.972  0.00  0.00    -0.302 NA
ATOM     21  C   UNL     1       2.755 -22.686 -12.411  0.00  0.00    +0.066 C 
ATOM     22  C   UNL     1       4.066 -21.898 -12.736  0.00  0.00    -0.064 C 
ATOM     23  N   UNL     1       5.157 -22.296 -11.741  0.00  0.00    +0.379 N 
ATOM     24  C   UNL     1       6.407 -21.601 -12.079  0.00  0.00    -0.096 C 
ATOM     25  H   UNL     1       5.337 -23.391 -11.856  0.00  0.00    -0.082 HD
ATOM     26  C   UNL     1       4.707 -22.051 -10.307  0.00  0.00    -0.064 C 
ATOM     27  C   UNL     1       3.388 -22.815 -10.004  0.00  0.00    +0.066 C 
ENDBRANCH  19  20
ENDBRANCH  18  19
ENDBRANCH  14  15
ENDBRANCH  12  13
TORSDOF 6
ENDMDL
MODEL 3
REMARK VINA RESULT:      -9.4      2.125      2.499
REMARK  Name = C:\Users\Docking\Desktop\test protocol\1iep_ligandH.pdb
REMARK  8 active torsions:
REMARK  status: ('A' for Active; 'I' for Inactive)
REMARK    1  A    between atoms: _5  and  _11
REMARK    2  A    between atoms: _19  and  _21
REMARK    3  A    between atoms: _22  and  _66
REMARK    4  A    between atoms: _27  and  _30
REMARK    5  A    between atoms: _32  and  _33
REMARK    6  A    between atoms: _38  and  _43
REMARK    7  A    between atoms: _43  and  _46
REMARK    8  A    between atoms: _53  and  _55
REMARK                            x       y       z     vdW  Elec       q    Type
REMARK                         _______ _______ _______ _____ _____    ______ ____
ROOT
ATOM     10  C   UNL     1      -4.693 -24.564 -16.778  0.00  0.00    +0.038 A 
ATOM     11  C   UNL     1      -5.897 -25.182 -16.352  0.00  0.00    +0.047 A 
ATOM     12  C   UNL     1      -7.084 -25.177 -17.192  0.00  0.00    +0.035 A 
ATOM     32  C   UNL     1      -7.009 -24.536 -18.463  0.00  0.00    +0.024 A 
ATOM     33  C   UNL     1      -5.795 -23.902 -18.911  0.00  0.00    +0.007 A 
ATOM     34  C   UNL     1      -4.621 -23.901 -18.086  0.00  0.00    -0.029 A 
ATOM     35  C   UNL     1      -3.348 -23.201 -18.615  0.00  0.00    +0.045 C 
ENDROOT
BRANCH  10   9
ATOM      4  C   UNL     1      -2.086 -22.821 -13.145  0.00  0.00    +0.077 A 
ATOM      5  C   UNL     1      -2.998 -21.734 -12.934  0.00  0.00    +0.048 A 
ATOM      6  C   UNL     1      -4.122 -21.655 -13.787  0.00  0.00    +0.116 A 
ATOM      7  N   UNL     1      -4.310 -22.599 -14.773  0.00  0.00    -0.223 NA
ATOM      8  C   UNL     1      -3.410 -23.634 -14.950  0.00  0.00    +0.220 A 
ATOM      9  N   UNL     1      -3.584 -24.599 -15.931  0.00  0.00    -0.283 N 
ATOM     36  H   UNL     1      -2.893 -25.343 -16.034  0.00  0.00    +0.155 HD
ATOM     37  N   UNL     1      -2.328 -23.731 -14.150  0.00  0.00    -0.214 NA
BRANCH   4   3
ATOM      1  C   UNL     1       0.800 -22.358 -10.545  0.00  0.00    +0.020 A 
ATOM      2  C   UNL     1      -0.396 -22.097 -11.312  0.00  0.00    +0.013 A 
ATOM      3  C   UNL     1      -0.854 -23.042 -12.323  0.00  0.00    +0.019 A 
ATOM     38  C   UNL     1      -0.073 -24.251 -12.535  0.00  0.00    +0.120 A 
ATOM     39  N   UNL     1       1.076 -24.475 -11.782  0.00  0.00    -0.263 NA
ATOM     40  C   UNL     1       1.527 -23.572 -10.808  0.00  0.00    +0.111 A 
ENDBRANCH   4   3
ENDBRANCH  10   9
BRANCH  12  13
ATOM     13  N   UNL     1      -8.336 -25.782 -16.809  0.00  0.00    -0.281 N 
ATOM     14  C   UNL     1      -9.390 -25.197 -16.127  0.00  0.00    +0.248 C 
ATOM     30  O   UNL     1      -9.329 -24.120 -15.553  0.00  0.00    -0.270 OA
ATOM     31  H   UNL     1      -8.460 -26.759 -17.073  0.00  0.00    +0.155 HD
BRANCH  14  15
ATOM     15  C   UNL     1     -10.697 -25.919 -16.062  0.00  0.00    +0.037 A 
ATOM     16  C   UNL     1     -10.919 -27.003 -15.102  0.00  0.00    +0.013 A 
ATOM     17  C   UNL     1     -12.184 -27.695 -15.072  0.00  0.00    +0.005 A 
ATOM     18  C   UNL     1     -13.237 -27.302 -16.005  0.00  0.00    -0.033 A 
ATOM     28  C   UNL     1     -12.992 -26.219 -16.943  0.00  0.00    +0.005 A 
ATOM     29  C   UNL     1     -11.754 -25.540 -16.976  0.00  0.00    +0.013 A 
BRANCH  18  19
ATOM     19  C   UNL     1     -14.610 -27.998 -16.057  0.00  0.00    +0.119 C 
BRANCH  19  20
ATOM     20  N   UNL     1     -15.132 -28.579 -14.784  0.00  0.00    -0.302 NA
ATOM     21  C   UNL     1     -15.168 -30.109 -14.823  0.00  0.00    +0.066 C 
ATOM     22  C   UNL     1     -15.694 -30.701 -13.475  0.00  0.00    -0.064 C 
ATOM     23  N   UNL     1     -17.084 -30.133 -13.181  0.00  0.00    +0.379 N 
ATOM     24  C   UNL     1     -17.607 -30.732 -11.944  0.00  0.00    -0.096 C 
ATOM     25  H   UNL     1     -17.757 -30.439 -14.015  0.00  0.00    -0.082 HD
ATOM     26  C   UNL     1     -17.058 -28.612 -13.143  0.00  0.00    -0.064 C 
ATOM     27  C   UNL     1     -16.505 -28.035 -14.477  0.00  0.00    +0.066 C 
ENDBRANCH  19  20
ENDBRANCH  18  19
ENDBRANCH  14  15
ENDBRANCH  12  13
TORSDOF 6
ENDMDL
MODEL 4
REMARK VINA RESULT:      -8.9      1.633      2.312
REMARK  Name = C:\Users\Docking\Desktop\test protocol\1iep_ligandH.pdb
REMARK  8 active torsions:
REMARK  status: ('A' for Active; 'I' for Inactive)
REMARK    1  A    between atoms: _5  and  _11
REMARK    2  A    between atoms: _19  and  _21
REMARK    3  A    between atoms: _22  and  _66
REMARK    4  A    between atoms: _27  and  _30
REMARK    5  A    between atoms: _32  and  _33
REMARK    6  A    between atoms: _38  and  _43
REMARK    7  A    between atoms: _43  and  _46
REMARK    8  A    between atoms: _53  and  _55
REMARK                            x       y       z     vdW  Elec       q    Type
REMARK                         _______ _______ _______ _____ _____    ______ ____
ROOT
ATOM     10  C   UNL     1      -5.978 -20.786 -14.199  0.00  0.00    +0.038 A 
ATOM     11  C   UNL     1      -6.864 -21.891 -14.272  0.00  0.00    +0.047 A 
ATOM     12  C   UNL     1      -8.062 -21.842 -15.095  0.00  0.00    +0.035 A 
ATOM     32  C   UNL     1      -8.326 -20.652 -15.833  0.00  0.00    +0.024 A 
ATOM     33  C   UNL     1      -7.437 -19.518 -15.770  0.00  0.00    +0.007 A 
ATOM     34  C   UNL     1      -6.255 -19.560 -14.958  0.00  0.00    -0.029 A 
ATOM     35  C   UNL     1      -5.340 -18.314 -14.924  0.00  0.00    +0.045 C 
ENDROOT
BRANCH  10   9
ATOM      4  C   UNL     1      -1.808 -22.840 -13.002  0.00  0.00    +0.077 A 
ATOM      5  C   UNL     1      -1.916 -23.810 -14.054  0.00  0.00    +0.048 A 
ATOM      6  C   UNL     1      -3.063 -23.750 -14.876  0.00  0.00    +0.116 A 
ATOM      7  N   UNL     1      -4.025 -22.788 -14.654  0.00  0.00    -0.223 NA
ATOM      8  C   UNL     1      -3.891 -21.869 -13.630  0.00  0.00    +0.220 A 
ATOM      9  N   UNL     1      -4.841 -20.888 -13.394  0.00  0.00    -0.283 N 
ATOM     36  H   UNL     1      -4.709 -20.233 -12.623  0.00  0.00    +0.155 HD
ATOM     37  N   UNL     1      -2.805 -21.906 -12.830  0.00  0.00    -0.214 NA
BRANCH   4   3
ATOM      1  C   UNL     1       1.336 -23.783 -10.874  0.00  0.00    +0.020 A 
ATOM      2  C   UNL     1       0.234 -23.901 -11.802  0.00  0.00    +0.013 A 
ATOM      3  C   UNL     1      -0.654 -22.773 -12.051  0.00  0.00    +0.019 A 
ATOM     38  C   UNL     1      -0.398 -21.529 -11.340  0.00  0.00    +0.120 A 
ATOM     39  N   UNL     1       0.669 -21.445 -10.452  0.00  0.00    -0.263 NA
ATOM     40  C   UNL     1       1.530 -22.524 -10.202  0.00  0.00    +0.111 A 
ENDBRANCH   4   3
ENDBRANCH  10   9
BRANCH  12  13
ATOM     13  N   UNL     1      -9.003 -22.929 -15.201  0.00  0.00    -0.281 N 
ATOM     14  C   UNL     1      -9.901 -23.375 -14.246  0.00  0.00    +0.248 C 
ATOM     30  O   UNL     1      -9.884 -23.040 -13.071  0.00  0.00    -0.270 OA
ATOM     31  H   UNL     1      -9.007 -23.432 -16.089  0.00  0.00    +0.155 HD
BRANCH  14  15
ATOM     15  C   UNL     1     -10.964 -24.345 -14.651  0.00  0.00    +0.037 A 
ATOM     16  C   UNL     1     -11.319 -24.539 -16.059  0.00  0.00    +0.013 A 
ATOM     17  C   UNL     1     -12.360 -25.468 -16.421  0.00  0.00    +0.005 A 
ATOM     18  C   UNL     1     -13.053 -26.211 -15.371  0.00  0.00    -0.033 A 
ATOM     28  C   UNL     1     -12.677 -26.003 -13.983  0.00  0.00    +0.005 A 
ATOM     29  C   UNL     1     -11.658 -25.093 -13.624  0.00  0.00    +0.013 A 
BRANCH  18  19
ATOM     19  C   UNL     1     -14.191 -27.208 -15.664  0.00  0.00    +0.119 C 
BRANCH  19  20
ATOM     20  N   UNL     1     -14.662 -28.059 -14.531  0.00  0.00    -0.302 NA
ATOM     21  C   UNL     1     -14.638 -29.549 -14.885  0.00  0.00    +0.066 C 
ATOM     22  C   UNL     1     -15.113 -30.427 -13.681  0.00  0.00    -0.064 C 
ATOM     23  N   UNL     1     -16.518 -29.993 -13.259  0.00  0.00    +0.379 N 
ATOM     24  C   UNL     1     -16.990 -30.855 -12.166  0.00  0.00    -0.096 C 
ATOM     25  H   UNL     1     -17.196 -30.149 -14.130  0.00  0.00    -0.082 HD
ATOM     26  C   UNL     1     -16.551 -28.512 -12.909  0.00  0.00    -0.064 C 
ATOM     27  C   UNL     1     -16.049 -27.650 -14.101  0.00  0.00    +0.066 C 
ENDBRANCH  19  20
ENDBRANCH  18  19
ENDBRANCH  14  15
ENDBRANCH  12  13
TORSDOF 6
ENDMDL
MODEL 5
REMARK VINA RESULT:      -8.8      3.114     13.626
REMARK  Name = C:\Users\Docking\Desktop\test protocol\1iep_ligandH.pdb
REMARK  8 active torsions:
REMARK  status: ('A' for Active; 'I' for Inactive)
REMARK    1  A    between atoms: _5  and  _11
REMARK    2  A    between atoms: _19  and  _21
REMARK    3  A    between atoms: _22  and  _66
REMARK    4  A    between atoms: _27  and  _30
REMARK    5  A    between atoms: _32  and  _33
REMARK    6  A    between atoms: _38  and  _43
REMARK    7  A    between atoms: _43  and  _46
REMARK    8  A    between atoms: _53  and  _55
REMARK                            x       y       z     vdW  Elec       q    Type
REMARK                         _______ _______ _______ _____ _____    ______ ____
ROOT
ATOM     10  C   UNL     1      -7.309 -22.292 -15.760  0.00  0.00    +0.038 A 
ATOM     11  C   UNL     1      -6.205 -22.787 -15.021  0.00  0.00    +0.047 A 
ATOM     12  C   UNL     1      -5.233 -21.884 -14.424  0.00  0.00    +0.035 A 
ATOM     32  C   UNL     1      -5.418 -20.481 -14.598  0.00  0.00    +0.024 A 
ATOM     33  C   UNL     1      -6.535 -19.961 -15.347  0.00  0.00    +0.007 A 
ATOM     34  C   UNL     1      -7.495 -20.847 -15.940  0.00  0.00    -0.029 A 
ATOM     35  C   UNL     1      -8.669 -20.233 -16.739  0.00  0.00    +0.045 C 
ENDROOT
BRANCH  10   9
ATOM      4  C   UNL     1     -11.324 -24.915 -15.569  0.00  0.00    +0.077 A 
ATOM      5  C   UNL     1     -11.636 -24.449 -14.249  0.00  0.00    +0.048 A 
ATOM      6  C   UNL     1     -10.734 -23.540 -13.651  0.00  0.00    +0.116 A 
ATOM      7  N   UNL     1      -9.607 -23.135 -14.333  0.00  0.00    -0.223 NA
ATOM      8  C   UNL     1      -9.335 -23.604 -15.605  0.00  0.00    +0.220 A 
ATOM      9  N   UNL     1      -8.212 -23.204 -16.312  0.00  0.00    -0.283 N 
ATOM     36  H   UNL     1      -8.043 -23.579 -17.245  0.00  0.00    +0.155 HD
ATOM     37  N   UNL     1     -10.180 -24.474 -16.197  0.00  0.00    -0.214 NA
BRANCH   4   3
ATOM      1  C   UNL     1     -13.759 -27.838 -16.480  0.00  0.00    +0.020 A 
ATOM      2  C   UNL     1     -12.946 -26.938 -15.695  0.00  0.00    +0.013 A 
ATOM      3  C   UNL     1     -12.182 -25.874 -16.335  0.00  0.00    +0.019 A 
ATOM     38  C   UNL     1     -12.263 -25.747 -17.782  0.00  0.00    +0.120 A 
ATOM     39  N   UNL     1     -13.053 -26.629 -18.512  0.00  0.00    -0.263 NA
ATOM     40  C   UNL     1     -13.792 -27.657 -17.908  0.00  0.00    +0.111 A 
ENDBRANCH   4   3
ENDBRANCH  10   9
BRANCH  12  13
ATOM     13  N   UNL     1      -4.088 -22.329 -13.670  0.00  0.00    -0.281 N 
ATOM     14  C   UNL     1      -2.911 -22.877 -14.153  0.00  0.00    +0.248 C 
ATOM     30  O   UNL     1      -2.750 -23.268 -15.299  0.00  0.00    -0.270 OA
ATOM     31  H   UNL     1      -4.152 -22.227 -12.657  0.00  0.00    +0.155 HD
BRANCH  14  15
ATOM     15  C   UNL     1      -1.749 -23.027 -13.224  0.00  0.00    +0.037 A 
ATOM     16  C   UNL     1      -1.522 -22.077 -12.132  0.00  0.00    +0.013 A 
ATOM     17  C   UNL     1      -0.385 -22.235 -11.261  0.00  0.00    +0.005 A 
ATOM     18  C   UNL     1       0.534 -23.350 -11.477  0.00  0.00    -0.033 A 
ATOM     28  C   UNL     1       0.282 -24.281 -12.565  0.00  0.00    +0.005 A 
ATOM     29  C   UNL     1      -0.831 -24.129 -13.421  0.00  0.00    +0.013 A 
BRANCH  18  19
ATOM     19  C   UNL     1       1.785 -23.583 -10.610  0.00  0.00    +0.119 C 
BRANCH  19  20
ATOM     20  N   UNL     1       2.831 -22.517 -10.617  0.00  0.00    -0.302 NA
ATOM     21  C   UNL     1       3.470 -22.349 -11.998  0.00  0.00    +0.066 C 
ATOM     22  C   UNL     1       4.546 -21.214 -11.993  0.00  0.00    -0.064 C 
ATOM     23  N   UNL     1       5.609 -21.528 -10.939  0.00  0.00    +0.379 N 
ATOM     24  C   UNL     1       6.653 -20.493 -10.972  0.00  0.00    -0.096 C 
ATOM     25  H   UNL     1       6.084 -22.497 -11.217  0.00  0.00    -0.082 HD
ATOM     26  C   UNL     1       4.982 -21.700  -9.563  0.00  0.00    -0.064 C 
ATOM     27  C   UNL     1       3.893 -22.809  -9.586  0.00  0.00    +0.066 C 
ENDBRANCH  19  20
ENDBRANCH  18  19
ENDBRANCH  14  15
ENDBRANCH  12  13
TORSDOF 6
ENDMDL
