MODEL 1
REMARK VINA RESULT:     -11.8      0.000      0.000
REMARK  Name = C:\Users\Docking\Desktop\test protocol\1iep_ligandH.pdb
REMARK  8 active torsions:
REMARK  status: ('A' for Active; 'I' for Inactive)
REMARK    1  A    between atoms: _5  and  _11
REMARK    2  A    between atoms: _19  and  _21
REMARK    3  A    between atoms: _22  and  _66
REMARK    4  A    between atoms: _27  and  _30
REMARK    5  A    between atoms: _32  and  _33
REMARK    6  A    between atoms: _38  and  _43
REMARK    7  A    between atoms: _43  and  _46
REMARK    8  A    between atoms: _53  and  _55
REMARK                            x       y       z     vdW  Elec       q    Type
REMARK                         _______ _______ _______ _____ _____    ______ ____
ROOT
ATOM     10  C   UNL     1     -10.396   8.671  41.752  0.00  0.00    +0.038 A 
ATOM     11  C   UNL     1      -9.332   8.209  40.937  0.00  0.00    +0.047 A 
ATOM     12  C   UNL     1      -8.950   8.917  39.724  0.00  0.00    +0.035 A 
ATOM     32  C   UNL     1      -9.674  10.094  39.373  0.00  0.00    +0.024 A 
ATOM     33  C   UNL     1     -10.759  10.577  40.190  0.00  0.00    +0.007 A 
ATOM     34  C   UNL     1     -11.141   9.882  41.386  0.00  0.00    -0.029 A 
ATOM     35  C   UNL     1     -12.317  10.442  42.220  0.00  0.00    +0.045 C 
ENDROOT
BRANCH  10   9
ATOM      4  C   UNL     1      -9.607   7.415  46.317  0.00  0.00    +0.077 A 
ATOM      5  C   UNL     1      -8.436   8.239  46.403  0.00  0.00    +0.048 A 
ATOM      6  C   UNL     1      -8.066   8.964  45.248  0.00  0.00    +0.116 A 
ATOM      7  N   UNL     1      -8.820   8.866  44.098  0.00  0.00    -0.223 NA
ATOM      8  C   UNL     1      -9.943   8.061  44.048  0.00  0.00    +0.220 A 
ATOM      9  N   UNL     1     -10.720   7.953  42.905  0.00  0.00    -0.283 N 
ATOM     36  H   UNL     1     -11.536   7.342  42.906  0.00  0.00    +0.155 HD
ATOM     37  N   UNL     1     -10.316   7.357  45.137  0.00  0.00    -0.214 NA
BRANCH   4   3
ATOM      1  C   UNL     1     -10.000   5.697  49.809  0.00  0.00    +0.020 A 
ATOM      2  C   UNL     1      -9.455   6.508  48.744  0.00  0.00    +0.013 A 
ATOM      3  C   UNL     1     -10.127   6.591  47.453  0.00  0.00    +0.019 A 
ATOM     38  C   UNL     1     -11.358   5.836  47.271  0.00  0.00    +0.120 A 
ATOM     39  N   UNL     1     -11.857   5.063  48.314  0.00  0.00    -0.263 NA
ATOM     40  C   UNL     1     -11.219   4.974  49.560  0.00  0.00    +0.111 A 
ENDBRANCH   4   3
ENDBRANCH  10   9
BRANCH  12  13
ATOM     13  N   UNL     1      -7.884   8.491  38.853  0.00  0.00    -0.281 N 
ATOM     14  C   UNL     1      -6.520   8.534  39.092  0.00  0.00    +0.248 C 
ATOM     30  O   UNL     1      -5.999   9.146  40.012  0.00  0.00    -0.270 OA
ATOM     31  H   UNL     1      -8.168   8.111  37.950  0.00  0.00    +0.155 HD
BRANCH  14  15
ATOM     15  C   UNL     1      -5.601   7.802  38.168  0.00  0.00    +0.037 A 
ATOM     16  C   UNL     1      -4.188   8.171  38.052  0.00  0.00    +0.013 A 
ATOM     17  C   UNL     1      -3.327   7.460  37.140  0.00  0.00    +0.005 A 
ATOM     18  C   UNL     1      -3.878   6.371  36.337  0.00  0.00    -0.033 A 
ATOM     28  C   UNL     1      -5.283   6.022  36.476  0.00  0.00    +0.005 A 
ATOM     29  C   UNL     1      -6.129   6.718  37.368  0.00  0.00    +0.013 A 
BRANCH  18  19
ATOM     19  C   UNL     1      -3.039   5.572  35.323  0.00  0.00    +0.119 C 
BRANCH  19  20
ATOM     20  N   UNL     1      -1.903   6.283  34.664  0.00  0.00    -0.302 NA
ATOM     21  C   UNL     1      -2.350   7.045  33.413  0.00  0.00    +0.066 C 
ATOM     22  C   UNL     1      -1.154   7.801  32.750  0.00  0.00    -0.064 C 
ATOM     23  N   UNL     1      -0.048   6.801  32.408  0.00  0.00    +0.379 N 
ATOM     24  C   UNL     1       1.054   7.501  31.732  0.00  0.00    -0.096 C 
ATOM     25  H   UNL     1      -0.471   6.062  31.690  0.00  0.00    -0.082 HD
ATOM     26  C   UNL     1       0.401   6.038  33.646  0.00  0.00    -0.064 C 
ATOM     27  C   UNL     1      -0.801   5.313  34.315  0.00  0.00    +0.066 C 
ENDBRANCH  19  20
ENDBRANCH  18  19
ENDBRANCH  14  15
ENDBRANCH  12  13
TORSDOF 6
ENDMDL
MODEL 2
REMARK VINA RESULT:     -10.3      4.268      7.673
REMARK  Name = C:\Users\Docking\Desktop\test protocol\1iep_ligandH.pdb
REMARK  8 active torsions:
REMARK  status: ('A' for Active; 'I' for Inactive)
REMARK    1  A    between atoms: _5  and  _11
REMARK    2  A    between atoms: _19  and  _21
REMARK    3  A    between atoms: _22  and  _66
REMARK    4  A    between atoms: _27  and  _30
REMARK    5  A    between atoms: _32  and  _33
REMARK    6  A    between atoms: _38  and  _43
REMARK    7  A    between atoms: _43  and  _46
REMARK    8  A    between atoms: _53  and  _55
REMARK                            x       y       z     vdW  Elec       q    Type
REMARK                         _______ _______ _______ _____ _____    ______ ____
ROOT
ATOM     10  C   UNL     1     -10.205  11.097  40.169  0.00  0.00    +0.038 A 
ATOM     11  C   UNL     1      -9.108  10.681  39.372  0.00  0.00    +0.047 A 
ATOM     12  C   UNL     1      -8.669   9.294  39.363  0.00  0.00    +0.035 A 
ATOM     32  C   UNL     1      -9.371   8.357  40.175  0.00  0.00    +0.024 A 
ATOM     33  C   UNL     1     -10.487   8.763  40.992  0.00  0.00    +0.007 A 
ATOM     34  C   UNL     1     -10.924  10.130  41.008  0.00  0.00    -0.029 A 
ATOM     35  C   UNL     1     -12.123  10.510  41.908  0.00  0.00    +0.045 C 
ENDROOT
BRANCH  10   9
ATOM      4  C   UNL     1     -12.103  14.912  37.960  0.00  0.00    +0.077 A 
ATOM      5  C   UNL     1     -12.333  14.173  36.753  0.00  0.00    +0.048 A 
ATOM      6  C   UNL     1     -11.942  12.815  36.739  0.00  0.00    +0.116 A 
ATOM      7  N   UNL     1     -11.365  12.249  37.855  0.00  0.00    -0.223 NA
ATOM      8  C   UNL     1     -11.156  12.991  39.003  0.00  0.00    +0.220 A 
ATOM      9  N   UNL     1     -10.585  12.441  40.140  0.00  0.00    -0.283 N 
ATOM     36  H   UNL     1     -10.441  13.023  40.965  0.00  0.00    +0.155 HD
ATOM     37  N   UNL     1     -11.519  14.290  39.041  0.00  0.00    -0.214 NA
BRANCH   4   3
ATOM      1  C   UNL     1     -13.701  18.446  37.451  0.00  0.00    +0.020 A 
ATOM      2  C   UNL     1     -13.385  17.052  37.241  0.00  0.00    +0.013 A 
ATOM      3  C   UNL     1     -12.464  16.355  38.131  0.00  0.00    +0.019 A 
ATOM     38  C   UNL     1     -11.877  17.103  39.233  0.00  0.00    +0.120 A 
ATOM     39  N   UNL     1     -12.199  18.445  39.409  0.00  0.00    -0.263 NA
ATOM     40  C   UNL     1     -13.082  19.127  38.558  0.00  0.00    +0.111 A 
ENDBRANCH   4   3
ENDBRANCH  10   9
BRANCH  12  13
ATOM     13  N   UNL     1      -7.557   8.815  38.580  0.00  0.00    -0.281 N 
ATOM     14  C   UNL     1      -6.268   8.542  39.009  0.00  0.00    +0.248 C 
ATOM     30  O   UNL     1      -5.816   8.875  40.094  0.00  0.00    -0.270 OA
ATOM     31  H   UNL     1      -7.742   8.657  37.589  0.00  0.00    +0.155 HD
BRANCH  14  15
ATOM     15  C   UNL     1      -5.343   7.807  38.094  0.00  0.00    +0.037 A 
ATOM     16  C   UNL     1      -3.962   8.252  37.891  0.00  0.00    +0.013 A 
ATOM     17  C   UNL     1      -3.095   7.534  36.990  0.00  0.00    +0.005 A 
ATOM     18  C   UNL     1      -3.608   6.361  36.285  0.00  0.00    -0.033 A 
ATOM     28  C   UNL     1      -4.981   5.939  36.509  0.00  0.00    +0.005 A 
ATOM     29  C   UNL     1      -5.833   6.640  37.391  0.00  0.00    +0.013 A 
BRANCH  18  19
ATOM     19  C   UNL     1      -2.761   5.547  35.289  0.00  0.00    +0.119 C 
BRANCH  19  20
ATOM     20  N   UNL     1      -1.717   6.285  34.518  0.00  0.00    -0.302 NA
ATOM     21  C   UNL     1      -2.291   6.951  33.264  0.00  0.00    +0.066 C 
ATOM     22  C   UNL     1      -1.190   7.736  32.481  0.00  0.00    -0.064 C 
ATOM     23  N   UNL     1      -0.051   6.783  32.114  0.00  0.00    +0.379 N 
ATOM     24  C   UNL     1       0.960   7.506  31.328  0.00  0.00    -0.096 C 
ATOM     25  H   UNL     1      -0.476   5.982  31.465  0.00  0.00    -0.082 HD
ATOM     26  C   UNL     1       0.525   6.115  33.355  0.00  0.00    -0.064 C 
ATOM     27  C   UNL     1      -0.584   5.361  34.142  0.00  0.00    +0.066 C 
ENDBRANCH  19  20
ENDBRANCH  18  19
ENDBRANCH  14  15
ENDBRANCH  12  13
TORSDOF 6
ENDMDL
MODEL 3
REMARK VINA RESULT:      -9.4      1.363      1.934
REMARK  Name = C:\Users\Docking\Desktop\test protocol\1iep_ligandH.pdb
REMARK  8 active torsions:
REMARK  status: ('A' for Active; 'I' for Inactive)
REMARK    1  A    between atoms: _5  and  _11
REMARK    2  A    between atoms: _19  and  _21
REMARK    3  A    between atoms: _22  and  _66
REMARK    4  A    between atoms: _27  and  _30
REMARK    5  A    between atoms: _32  and  _33
REMARK    6  A    between atoms: _38  and  _43
REMARK    7  A    between atoms: _43  and  _46
REMARK    8  A    between atoms: _53  and  _55
REMARK                            x       y       z     vdW  Elec       q    Type
REMARK                         _______ _______ _______ _____ _____    ______ ____
ROOT
ATOM     10  C   UNL     1     -10.034   9.991  42.197  0.00  0.00    +0.038 A 
ATOM     11  C   UNL     1      -9.053   9.363  41.389  0.00  0.00    +0.047 A 
ATOM     12  C   UNL     1      -8.938   9.669  39.971  0.00  0.00    +0.035 A 
ATOM     32  C   UNL     1      -9.837  10.622  39.411  0.00  0.00    +0.024 A 
ATOM     33  C   UNL     1     -10.841  11.269  40.218  0.00  0.00    +0.007 A 
ATOM     34  C   UNL     1     -10.962  10.969  41.616  0.00  0.00    -0.029 A 
ATOM     35  C   UNL     1     -12.061  11.688  42.432  0.00  0.00    +0.045 C 
ENDROOT
BRANCH  10   9
ATOM      4  C   UNL     1     -11.604   7.252  45.814  0.00  0.00    +0.077 A 
ATOM      5  C   UNL     1     -12.379   6.429  44.932  0.00  0.00    +0.048 A 
ATOM      6  C   UNL     1     -12.353   6.747  43.555  0.00  0.00    +0.116 A 
ATOM      7  N   UNL     1     -11.603   7.813  43.106  0.00  0.00    -0.223 NA
ATOM      8  C   UNL     1     -10.868   8.588  43.984  0.00  0.00    +0.220 A 
ATOM      9  N   UNL     1     -10.100   9.659  43.553  0.00  0.00    -0.283 N 
ATOM     36  H   UNL     1      -9.578  10.211  44.232  0.00  0.00    +0.155 HD
ATOM     37  N   UNL     1     -10.878   8.305  45.303  0.00  0.00    -0.214 NA
BRANCH   4   3
ATOM      1  C   UNL     1     -10.966   5.659  49.328  0.00  0.00    +0.020 A 
ATOM      2  C   UNL     1     -11.019   5.813  47.893  0.00  0.00    +0.013 A 
ATOM      3  C   UNL     1     -11.527   7.040  47.294  0.00  0.00    +0.019 A 
ATOM     38  C   UNL     1     -11.976   8.102  48.182  0.00  0.00    +0.120 A 
ATOM     39  N   UNL     1     -11.914   7.924  49.561  0.00  0.00    -0.263 NA
ATOM     40  C   UNL     1     -11.429   6.747  50.149  0.00  0.00    +0.111 A 
ENDBRANCH   4   3
ENDBRANCH  10   9
BRANCH  12  13
ATOM     13  N   UNL     1      -7.966   9.057  39.099  0.00  0.00    -0.281 N 
ATOM     14  C   UNL     1      -6.616   8.858  39.334  0.00  0.00    +0.248 C 
ATOM     30  O   UNL     1      -5.991   9.372  40.250  0.00  0.00    -0.270 OA
ATOM     31  H   UNL     1      -8.317   8.731  38.198  0.00  0.00    +0.155 HD
BRANCH  14  15
ATOM     15  C   UNL     1      -5.844   7.972  38.410  0.00  0.00    +0.037 A 
ATOM     16  C   UNL     1      -4.389   8.084  38.289  0.00  0.00    +0.013 A 
ATOM     17  C   UNL     1      -3.671   7.229  37.377  0.00  0.00    +0.005 A 
ATOM     18  C   UNL     1      -4.409   6.252  36.581  0.00  0.00    -0.033 A 
ATOM     28  C   UNL     1      -5.852   6.158  36.725  0.00  0.00    +0.005 A 
ATOM     29  C   UNL     1      -6.559   6.996  37.616  0.00  0.00    +0.013 A 
BRANCH  18  19
ATOM     19  C   UNL     1      -3.728   5.312  35.568  0.00  0.00    +0.119 C 
BRANCH  19  20
ATOM     20  N   UNL     1      -2.770   5.928  34.601  0.00  0.00    -0.302 NA
ATOM     21  C   UNL     1      -1.359   5.352  34.746  0.00  0.00    +0.066 C 
ATOM     22  C   UNL     1      -0.375   5.991  33.712  0.00  0.00    -0.064 C 
ATOM     23  N   UNL     1      -0.361   7.509  33.897  0.00  0.00    +0.379 N 
ATOM     24  C   UNL     1       0.607   8.108  32.966  0.00  0.00    -0.096 C 
ATOM     25  H   UNL     1      -0.009   7.721  34.933  0.00  0.00    -0.082 HD
ATOM     26  C   UNL     1      -1.761   8.090  33.757  0.00  0.00    -0.064 C 
ATOM     27  C   UNL     1      -2.738   7.427  34.769  0.00  0.00    +0.066 C 
ENDBRANCH  19  20
ENDBRANCH  18  19
ENDBRANCH  14  15
ENDBRANCH  12  13
TORSDOF 6
ENDMDL
