MODEL 1
REMARK VINA RESULT:     -11.0      0.000      0.000
REMARK  Name = C:\Users\Docking\Desktop\test protocol\1iep_ligandH.pdb
REMARK  8 active torsions:
REMARK  status: ('A' for Active; 'I' for Inactive)
REMARK    1  A    between atoms: _5  and  _11
REMARK    2  A    between atoms: _19  and  _21
REMARK    3  A    between atoms: _22  and  _66
REMARK    4  A    between atoms: _27  and  _30
REMARK    5  A    between atoms: _32  and  _33
REMARK    6  A    between atoms: _38  and  _43
REMARK    7  A    between atoms: _43  and  _46
REMARK    8  A    between atoms: _53  and  _55
REMARK                            x       y       z     vdW  Elec       q    Type
REMARK                         _______ _______ _______ _____ _____    ______ ____
ROOT
ATOM     10  C   UNL     1      27.234  10.543  11.830  0.00  0.00    +0.038 A 
ATOM     11  C   UNL     1      25.891  10.749  12.238  0.00  0.00    +0.047 A 
ATOM     12  C   UNL     1      25.466  10.463  13.599  0.00  0.00    +0.035 A 
ATOM     32  C   UNL     1      26.435   9.971  14.521  0.00  0.00    +0.024 A 
ATOM     33  C   UNL     1      27.804   9.754  14.123  0.00  0.00    +0.007 A 
ATOM     34  C   UNL     1      28.229  10.032  12.781  0.00  0.00    -0.029 A 
ATOM     35  C   UNL     1      29.708   9.775  12.408  0.00  0.00    +0.045 C 
ENDROOT
BRANCH  10   9
ATOM      4  C   UNL     1      29.045  13.464   8.480  0.00  0.00    +0.077 A 
ATOM      5  C   UNL     1      29.282  14.508   9.434  0.00  0.00    +0.048 A 
ATOM      6  C   UNL     1      28.917  14.256  10.775  0.00  0.00    +0.116 A 
ATOM      7  N   UNL     1      28.358  13.047  11.125  0.00  0.00    -0.223 NA
ATOM      8  C   UNL     1      28.141  12.061  10.180  0.00  0.00    +0.220 A 
ATOM      9  N   UNL     1      27.588  10.834  10.511  0.00  0.00    -0.283 N 
ATOM     36  H   UNL     1      27.437  10.136   9.783  0.00  0.00    +0.155 HD
ATOM     37  N   UNL     1      28.480  12.277   8.892  0.00  0.00    -0.214 NA
BRANCH   4   3
ATOM      1  C   UNL     1      29.442  14.830   4.836  0.00  0.00    +0.020 A 
ATOM      2  C   UNL     1      29.098  14.771   6.238  0.00  0.00    +0.013 A 
ATOM      3  C   UNL     1      29.380  13.577   7.025  0.00  0.00    +0.019 A 
ATOM     38  C   UNL     1      30.016  12.451   6.358  0.00  0.00    +0.120 A 
ATOM     39  N   UNL     1      30.334  12.536   5.006  0.00  0.00    -0.263 NA
ATOM     40  C   UNL     1      30.066  13.679   4.238  0.00  0.00    +0.111 A 
ENDBRANCH   4   3
ENDBRANCH  10   9
BRANCH  12  13
ATOM     13  N   UNL     1      24.115  10.646  14.068  0.00  0.00    -0.281 N 
ATOM     14  C   UNL     1      23.359  11.807  14.059  0.00  0.00    +0.248 C 
ATOM     30  O   UNL     1      23.808  12.922  13.840  0.00  0.00    -0.270 OA
ATOM     31  H   UNL     1      23.660   9.818  14.454  0.00  0.00    +0.155 HD
BRANCH  14  15
ATOM     15  C   UNL     1      21.896  11.718  14.349  0.00  0.00    +0.037 A 
ATOM     16  C   UNL     1      21.024  10.815  13.593  0.00  0.00    +0.013 A 
ATOM     17  C   UNL     1      19.613  10.761  13.882  0.00  0.00    +0.005 A 
ATOM     18  C   UNL     1      19.064  11.614  14.934  0.00  0.00    -0.033 A 
ATOM     28  C   UNL     1      19.952  12.497  15.671  0.00  0.00    +0.005 A 
ATOM     29  C   UNL     1      21.336  12.553  15.391  0.00  0.00    +0.013 A 
BRANCH  18  19
ATOM     19  C   UNL     1      17.567  11.638  15.295  0.00  0.00    +0.119 C 
BRANCH  19  20
ATOM     20  N   UNL     1      17.164  12.443  16.487  0.00  0.00    -0.302 NA
ATOM     21  C   UNL     1      17.354  11.668  17.794  0.00  0.00    +0.066 C 
ATOM     22  C   UNL     1      16.949  12.532  19.032  0.00  0.00    -0.064 C 
ATOM     23  N   UNL     1      15.497  12.989  18.879  0.00  0.00    +0.379 N 
ATOM     24  C   UNL     1      15.095  13.753  20.069  0.00  0.00    -0.096 C 
ATOM     25  H   UNL     1      14.859  12.076  18.831  0.00  0.00    -0.082 HD
ATOM     26  C   UNL     1      15.299  13.758  17.580  0.00  0.00    -0.064 C 
ATOM     27  C   UNL     1      15.732  12.901  16.358  0.00  0.00    +0.066 C 
ENDBRANCH  19  20
ENDBRANCH  18  19
ENDBRANCH  14  15
ENDBRANCH  12  13
TORSDOF 6
ENDMDL
MODEL 2
REMARK VINA RESULT:      -9.4      3.071     13.271
REMARK  Name = C:\Users\Docking\Desktop\test protocol\1iep_ligandH.pdb
REMARK  8 active torsions:
REMARK  status: ('A' for Active; 'I' for Inactive)
REMARK    1  A    between atoms: _5  and  _11
REMARK    2  A    between atoms: _19  and  _21
REMARK    3  A    between atoms: _22  and  _66
REMARK    4  A    between atoms: _27  and  _30
REMARK    5  A    between atoms: _32  and  _33
REMARK    6  A    between atoms: _38  and  _43
REMARK    7  A    between atoms: _43  and  _46
REMARK    8  A    between atoms: _53  and  _55
REMARK                            x       y       z     vdW  Elec       q    Type
REMARK                         _______ _______ _______ _____ _____    ______ ____
ROOT
ATOM     10  C   UNL     1      27.537  14.488  12.704  0.00  0.00    +0.038 A 
ATOM     11  C   UNL     1      27.821  14.494  11.315  0.00  0.00    +0.047 A 
ATOM     12  C   UNL     1      29.179  14.670  10.825  0.00  0.00    +0.035 A 
ATOM     32  C   UNL     1      30.225  14.835  11.779  0.00  0.00    +0.024 A 
ATOM     33  C   UNL     1      29.954  14.833  13.195  0.00  0.00    +0.007 A 
ATOM     34  C   UNL     1      28.616  14.662  13.684  0.00  0.00    -0.029 A 
ATOM     35  C   UNL     1      28.383  14.674  15.213  0.00  0.00    +0.045 C 
ENDROOT
BRANCH  10   9
ATOM      4  C   UNL     1      23.793  11.717  13.865  0.00  0.00    +0.077 A 
ATOM      5  C   UNL     1      24.526  10.513  13.597  0.00  0.00    +0.048 A 
ATOM      6  C   UNL     1      25.861  10.650  13.156  0.00  0.00    +0.116 A 
ATOM      7  N   UNL     1      26.412  11.903  12.998  0.00  0.00    -0.223 NA
ATOM      8  C   UNL     1      25.678  13.044  13.263  0.00  0.00    +0.220 A 
ATOM      9  N   UNL     1      26.214  14.314  13.118  0.00  0.00    -0.283 N 
ATOM     36  H   UNL     1      25.637  15.131  13.317  0.00  0.00    +0.155 HD
ATOM     37  N   UNL     1      24.400  12.940  13.684  0.00  0.00    -0.214 NA
BRANCH   4   3
ATOM      1  C   UNL     1      20.551  12.503  15.907  0.00  0.00    +0.020 A 
ATOM      2  C   UNL     1      21.934  12.519  15.488  0.00  0.00    +0.013 A 
ATOM      3  C   UNL     1      22.374  11.736  14.341  0.00  0.00    +0.019 A 
ATOM     38  C   UNL     1      21.382  10.942  13.632  0.00  0.00    +0.120 A 
ATOM     39  N   UNL     1      20.058  10.945  14.058  0.00  0.00    -0.263 NA
ATOM     40  C   UNL     1      19.623  11.693  15.162  0.00  0.00    +0.111 A 
ENDBRANCH   4   3
ENDBRANCH  10   9
BRANCH  12  13
ATOM     13  N   UNL     1      29.527  14.693   9.426  0.00  0.00    -0.281 N 
ATOM     14  C   UNL     1      29.558  13.629   8.539  0.00  0.00    +0.248 C 
ATOM     30  O   UNL     1      29.496  12.453   8.867  0.00  0.00    -0.270 OA
ATOM     31  H   UNL     1      29.782  15.603   9.043  0.00  0.00    +0.155 HD
BRANCH  14  15
ATOM     15  C   UNL     1      29.691  13.912   7.077  0.00  0.00    +0.037 A 
ATOM     16  C   UNL     1      30.150  12.881   6.142  0.00  0.00    +0.013 A 
ATOM     17  C   UNL     1      30.285  13.186   4.740  0.00  0.00    +0.005 A 
ATOM     18  C   UNL     1      29.959  14.528   4.263  0.00  0.00    -0.033 A 
ATOM     28  C   UNL     1      29.500  15.529   5.212  0.00  0.00    +0.005 A 
ATOM     29  C   UNL     1      29.368  15.235   6.587  0.00  0.00    +0.013 A 
BRANCH  18  19
ATOM     19  C   UNL     1      30.094  14.947   2.788  0.00  0.00    +0.119 C 
BRANCH  19  20
ATOM     20  N   UNL     1      29.663  13.959   1.754  0.00  0.00    -0.302 NA
ATOM     21  C   UNL     1      30.621  13.923   0.559  0.00  0.00    +0.066 C 
ATOM     22  C   UNL     1      30.168  12.868  -0.502  0.00  0.00    -0.064 C 
ATOM     23  N   UNL     1      28.743  13.188  -0.959  0.00  0.00    +0.379 N 
ATOM     24  C   UNL     1      28.336  12.232  -1.999  0.00  0.00    -0.096 C 
ATOM     25  H   UNL     1      28.756  14.203  -1.418  0.00  0.00    -0.082 HD
ATOM     26  C   UNL     1      27.785  13.228   0.223  0.00  0.00    -0.064 C 
ATOM     27  C   UNL     1      28.261  14.258   1.285  0.00  0.00    +0.066 C 
ENDBRANCH  19  20
ENDBRANCH  18  19
ENDBRANCH  14  15
ENDBRANCH  12  13
TORSDOF 6
ENDMDL
MODEL 3
REMARK VINA RESULT:      -8.5     17.207     19.813
REMARK  Name = C:\Users\Docking\Desktop\test protocol\1iep_ligandH.pdb
REMARK  8 active torsions:
REMARK  status: ('A' for Active; 'I' for Inactive)
REMARK    1  A    between atoms: _5  and  _11
REMARK    2  A    between atoms: _19  and  _21
REMARK    3  A    between atoms: _22  and  _66
REMARK    4  A    between atoms: _27  and  _30
REMARK    5  A    between atoms: _32  and  _33
REMARK    6  A    between atoms: _38  and  _43
REMARK    7  A    between atoms: _43  and  _46
REMARK    8  A    between atoms: _53  and  _55
REMARK                            x       y       z     vdW  Elec       q    Type
REMARK                         _______ _______ _______ _____ _____    ______ ____
ROOT
ATOM     10  C   UNL     1      15.370  19.229  28.437  0.00  0.00    +0.038 A 
ATOM     11  C   UNL     1      14.518  18.836  27.373  0.00  0.00    +0.047 A 
ATOM     12  C   UNL     1      13.875  19.824  26.520  0.00  0.00    +0.035 A 
ATOM     32  C   UNL     1      14.123  21.203  26.778  0.00  0.00    +0.024 A 
ATOM     33  C   UNL     1      14.985  21.620  27.856  0.00  0.00    +0.007 A 
ATOM     34  C   UNL     1      15.621  20.651  28.702  0.00  0.00    -0.029 A 
ATOM     35  C   UNL     1      16.530  21.155  29.847  0.00  0.00    +0.045 C 
ENDROOT
BRANCH  10   9
ATOM      4  C   UNL     1      18.375  15.535  29.040  0.00  0.00    +0.077 A 
ATOM      5  C   UNL     1      18.780  15.563  27.664  0.00  0.00    +0.048 A 
ATOM      6  C   UNL     1      18.186  16.539  26.832  0.00  0.00    +0.116 A 
ATOM      7  N   UNL     1      17.257  17.416  27.349  0.00  0.00    -0.223 NA
ATOM      8  C   UNL     1      16.888  17.361  28.681  0.00  0.00    +0.220 A 
ATOM      9  N   UNL     1      15.962  18.238  29.224  0.00  0.00    -0.283 N 
ATOM     36  H   UNL     1      15.711  18.160  30.209  0.00  0.00    +0.155 HD
ATOM     37  N   UNL     1      17.440  16.437  29.495  0.00  0.00    -0.214 NA
BRANCH   4   3
ATOM      1  C   UNL     1      18.967  12.306  31.166  0.00  0.00    +0.020 A 
ATOM      2  C   UNL     1      18.411  13.204  30.181  0.00  0.00    +0.013 A 
ATOM      3  C   UNL     1      18.915  14.564  30.044  0.00  0.00    +0.019 A 
ATOM     38  C   UNL     1      19.992  14.988  30.926  0.00  0.00    +0.120 A 
ATOM     39  N   UNL     1      20.507  14.102  31.867  0.00  0.00    -0.263 NA
ATOM     40  C   UNL     1      20.029  12.791  32.009  0.00  0.00    +0.111 A 
ENDBRANCH   4   3
ENDBRANCH  10   9
BRANCH  12  13
ATOM     13  N   UNL     1      12.994  19.485  25.430  0.00  0.00    -0.281 N 
ATOM     14  C   UNL     1      11.848  18.708  25.472  0.00  0.00    +0.248 C 
ATOM     30  O   UNL     1      11.522  18.007  26.418  0.00  0.00    -0.270 OA
ATOM     31  H   UNL     1      13.246  19.863  24.517  0.00  0.00    +0.155 HD
BRANCH  14  15
ATOM     15  C   UNL     1      10.939  18.698  24.285  0.00  0.00    +0.037 A 
ATOM     16  C   UNL     1       9.486  18.797  24.439  0.00  0.00    +0.013 A 
ATOM     17  C   UNL     1       8.631  18.768  23.278  0.00  0.00    +0.005 A 
ATOM     18  C   UNL     1       9.230  18.639  21.952  0.00  0.00    -0.033 A 
ATOM     28  C   UNL     1      10.675  18.547  21.827  0.00  0.00    +0.005 A 
ATOM     29  C   UNL     1      11.515  18.575  22.962  0.00  0.00    +0.013 A 
BRANCH  18  19
ATOM     19  C   UNL     1       8.394  18.577  20.660  0.00  0.00    +0.119 C 
BRANCH  19  20
ATOM     20  N   UNL     1       9.068  18.979  19.389  0.00  0.00    -0.302 NA
ATOM     21  C   UNL     1       8.642  20.376  18.929  0.00  0.00    +0.066 C 
ATOM     22  C   UNL     1       9.374  20.789  17.611  0.00  0.00    -0.064 C 
ATOM     23  N   UNL     1       9.088  19.751  16.525  0.00  0.00    +0.379 N 
ATOM     24  C   UNL     1       9.727  20.166  15.268  0.00  0.00    -0.096 C 
ATOM     25  H   UNL     1       7.986  19.734  16.355  0.00  0.00    -0.082 HD
ATOM     26  C   UNL     1       9.506  18.358  16.975  0.00  0.00    -0.064 C 
ATOM     27  C   UNL     1       8.796  17.969  18.302  0.00  0.00    +0.066 C 
ENDBRANCH  19  20
ENDBRANCH  18  19
ENDBRANCH  14  15
ENDBRANCH  12  13
TORSDOF 6
ENDMDL
MODEL 4
REMARK VINA RESULT:      -8.4     17.083     20.614
REMARK  Name = C:\Users\Docking\Desktop\test protocol\1iep_ligandH.pdb
REMARK  8 active torsions:
REMARK  status: ('A' for Active; 'I' for Inactive)
REMARK    1  A    between atoms: _5  and  _11
REMARK    2  A    between atoms: _19  and  _21
REMARK    3  A    between atoms: _22  and  _66
REMARK    4  A    between atoms: _27  and  _30
REMARK    5  A    between atoms: _32  and  _33
REMARK    6  A    between atoms: _38  and  _43
REMARK    7  A    between atoms: _43  and  _46
REMARK    8  A    between atoms: _53  and  _55
REMARK                            x       y       z     vdW  Elec       q    Type
REMARK                         _______ _______ _______ _____ _____    ______ ____
ROOT
ATOM     10  C   UNL     1      14.021  20.085  27.614  0.00  0.00    +0.038 A 
ATOM     11  C   UNL     1      13.252  19.894  26.438  0.00  0.00    +0.047 A 
ATOM     12  C   UNL     1      12.270  20.879  26.013  0.00  0.00    +0.035 A 
ATOM     32  C   UNL     1      12.097  22.049  26.810  0.00  0.00    +0.024 A 
ATOM     33  C   UNL     1      12.869  22.258  28.009  0.00  0.00    +0.007 A 
ATOM     34  C   UNL     1      13.838  21.288  28.434  0.00  0.00    -0.029 A 
ATOM     35  C   UNL     1      14.633  21.562  29.732  0.00  0.00    +0.045 C 
ENDROOT
BRANCH  10   9
ATOM      4  C   UNL     1      15.204  15.555  28.672  0.00  0.00    +0.077 A 
ATOM      5  C   UNL     1      13.851  15.103  28.519  0.00  0.00    +0.048 A 
ATOM      6  C   UNL     1      12.879  16.070  28.175  0.00  0.00    +0.116 A 
ATOM      7  N   UNL     1      13.245  17.387  27.999  0.00  0.00    -0.223 NA
ATOM      8  C   UNL     1      14.559  17.789  28.155  0.00  0.00    +0.220 A 
ATOM      9  N   UNL     1      14.950  19.107  27.975  0.00  0.00    -0.283 N 
ATOM     36  H   UNL     1      15.928  19.365  28.107  0.00  0.00    +0.155 HD
ATOM     37  N   UNL     1      15.505  16.886  28.485  0.00  0.00    -0.214 NA
BRANCH   4   3
ATOM      1  C   UNL     1      17.957  12.781  28.527  0.00  0.00    +0.020 A 
ATOM      2  C   UNL     1      16.854  13.625  28.132  0.00  0.00    +0.013 A 
ATOM      3  C   UNL     1      16.344  14.653  29.031  0.00  0.00    +0.019 A 
ATOM     38  C   UNL     1      16.979  14.803  30.331  0.00  0.00    +0.120 A 
ATOM     39  N   UNL     1      18.039  13.974  30.685  0.00  0.00    -0.263 NA
ATOM     40  C   UNL     1      18.537  12.980  29.829  0.00  0.00    +0.111 A 
ENDBRANCH   4   3
ENDBRANCH  10   9
BRANCH  12  13
ATOM     13  N   UNL     1      11.454  20.736  24.832  0.00  0.00    -0.281 N 
ATOM     14  C   UNL     1      10.343  19.928  24.657  0.00  0.00    +0.248 C 
ATOM     30  O   UNL     1      10.007  19.040  25.426  0.00  0.00    -0.270 OA
ATOM     31  H   UNL     1      11.730  21.299  24.028  0.00  0.00    +0.155 HD
BRANCH  14  15
ATOM     15  C   UNL     1       9.490  20.125  23.446  0.00  0.00    +0.037 A 
ATOM     16  C   UNL     1       8.478  19.138  23.060  0.00  0.00    +0.013 A 
ATOM     17  C   UNL     1       7.681  19.345  21.877  0.00  0.00    +0.005 A 
ATOM     18  C   UNL     1       7.892  20.545  21.071  0.00  0.00    -0.033 A 
ATOM     28  C   UNL     1       8.900  21.510  21.480  0.00  0.00    +0.005 A 
ATOM     29  C   UNL     1       9.684  21.310  22.638  0.00  0.00    +0.013 A 
BRANCH  18  19
ATOM     19  C   UNL     1       7.102  20.836  19.782  0.00  0.00    +0.119 C 
BRANCH  19  20
ATOM     20  N   UNL     1       7.734  20.440  18.488  0.00  0.00    -0.302 NA
ATOM     21  C   UNL     1       8.632  19.209  18.641  0.00  0.00    +0.066 C 
ATOM     22  C   UNL     1       9.267  18.795  17.273  0.00  0.00    -0.064 C 
ATOM     23  N   UNL     1      10.057  19.974  16.704  0.00  0.00    +0.379 N 
ATOM     24  C   UNL     1      10.704  19.570  15.446  0.00  0.00    -0.096 C 
ATOM     25  H   UNL     1      10.862  20.225  17.433  0.00  0.00    -0.082 HD
ATOM     26  C   UNL     1       9.173  21.204  16.551  0.00  0.00    -0.064 C 
ATOM     27  C   UNL     1       8.523  21.589  17.910  0.00  0.00    +0.066 C 
ENDBRANCH  19  20
ENDBRANCH  18  19
ENDBRANCH  14  15
ENDBRANCH  12  13
TORSDOF 6
ENDMDL
