MODEL 1
REMARK VINA RESULT:      -8.3      0.000      0.000
REMARK  Name = C:\Users\Docking\Desktop\test protocol\1iep_ligandH.pdb
REMARK  8 active torsions:
REMARK  status: ('A' for Active; 'I' for Inactive)
REMARK    1  A    between atoms: _5  and  _11
REMARK    2  A    between atoms: _19  and  _21
REMARK    3  A    between atoms: _22  and  _66
REMARK    4  A    between atoms: _27  and  _30
REMARK    5  A    between atoms: _32  and  _33
REMARK    6  A    between atoms: _38  and  _43
REMARK    7  A    between atoms: _43  and  _46
REMARK    8  A    between atoms: _53  and  _55
REMARK                            x       y       z     vdW  Elec       q    Type
REMARK                         _______ _______ _______ _____ _____    ______ ____
ROOT
ATOM     10  C   UNL     1      40.607 -12.797  30.152  0.00  0.00    +0.038 A 
ATOM     11  C   UNL     1      41.278 -13.213  28.973  0.00  0.00    +0.047 A 
ATOM     12  C   UNL     1      41.236 -14.598  28.532  0.00  0.00    +0.035 A 
ATOM     32  C   UNL     1      40.498 -15.534  29.313  0.00  0.00    +0.024 A 
ATOM     33  C   UNL     1      39.811 -15.129  30.515  0.00  0.00    +0.007 A 
ATOM     34  C   UNL     1      39.851 -13.765  30.957  0.00  0.00    -0.029 A 
ATOM     35  C   UNL     1      39.102 -13.388  32.256  0.00  0.00    +0.045 C 
ENDROOT
BRANCH  10   9
ATOM      4  C   UNL     1      42.808  -9.127  32.326  0.00  0.00    +0.077 A 
ATOM      5  C   UNL     1      43.888  -9.961  32.770  0.00  0.00    +0.048 A 
ATOM      6  C   UNL     1      43.835 -11.330  32.424  0.00  0.00    +0.116 A 
ATOM      7  N   UNL     1      42.777 -11.818  31.688  0.00  0.00    -0.223 NA
ATOM      8  C   UNL     1      41.751 -10.987  31.277  0.00  0.00    +0.220 A 
ATOM      9  N   UNL     1      40.682 -11.455  30.529  0.00  0.00    -0.283 N 
ATOM     36  H   UNL     1      39.941 -10.811  30.252  0.00  0.00    +0.155 HD
ATOM     37  N   UNL     1      41.777  -9.676  31.596  0.00  0.00    -0.214 NA
BRANCH   4   3
ATOM      1  C   UNL     1      41.428  -5.529  32.998  0.00  0.00    +0.020 A 
ATOM      2  C   UNL     1      41.455  -6.948  32.723  0.00  0.00    +0.013 A 
ATOM      3  C   UNL     1      42.722  -7.660  32.609  0.00  0.00    +0.019 A 
ATOM     38  C   UNL     1      43.952  -6.902  32.781  0.00  0.00    +0.120 A 
ATOM     39  N   UNL     1      43.894  -5.537  33.044  0.00  0.00    -0.263 NA
ATOM     40  C   UNL     1      42.681  -4.840  33.154  0.00  0.00    +0.111 A 
ENDBRANCH   4   3
ENDBRANCH  10   9
BRANCH  12  13
ATOM     13  N   UNL     1      41.904 -15.080  27.348  0.00  0.00    -0.281 N 
ATOM     14  C   UNL     1      41.515 -14.924  26.028  0.00  0.00    +0.248 C 
ATOM     30  O   UNL     1      40.414 -14.529  25.674  0.00  0.00    -0.270 OA
ATOM     31  H   UNL     1      42.769 -15.598  27.502  0.00  0.00    +0.155 HD
BRANCH  14  15
ATOM     15  C   UNL     1      42.483 -15.273  24.944  0.00  0.00    +0.037 A 
ATOM     16  C   UNL     1      43.921 -15.042  25.106  0.00  0.00    +0.013 A 
ATOM     17  C   UNL     1      44.831 -15.371  24.038  0.00  0.00    +0.005 A 
ATOM     18  C   UNL     1      44.306 -15.936  22.798  0.00  0.00    -0.033 A 
ATOM     28  C   UNL     1      42.876 -16.160  22.665  0.00  0.00    +0.005 A 
ATOM     29  C   UNL     1      41.980 -15.837  23.710  0.00  0.00    +0.013 A 
BRANCH  18  19
ATOM     19  C   UNL     1      45.201 -16.297  21.598  0.00  0.00    +0.119 C 
BRANCH  19  20
ATOM     20  N   UNL     1      44.521 -16.765  20.353  0.00  0.00    -0.302 NA
ATOM     21  C   UNL     1      45.015 -18.145  19.912  0.00  0.00    +0.066 C 
ATOM     22  C   UNL     1      44.277 -18.628  18.621  0.00  0.00    -0.064 C 
ATOM     23  N   UNL     1      44.479 -17.600  17.507  0.00  0.00    +0.379 N 
ATOM     24  C   UNL     1      43.835 -18.079  16.275  0.00  0.00    -0.096 C 
ATOM     25  H   UNL     1      45.573 -17.525  17.310  0.00  0.00    -0.082 HD
ATOM     26  C   UNL     1      43.992 -16.223  17.938  0.00  0.00    -0.064 C 
ATOM     27  C   UNL     1      44.711 -15.766  19.238  0.00  0.00    +0.066 C 
ENDBRANCH  19  20
ENDBRANCH  18  19
ENDBRANCH  14  15
ENDBRANCH  12  13
TORSDOF 6
ENDMDL
MODEL 2
REMARK VINA RESULT:      -7.7     17.762     21.389
REMARK  Name = C:\Users\Docking\Desktop\test protocol\1iep_ligandH.pdb
REMARK  8 active torsions:
REMARK  status: ('A' for Active; 'I' for Inactive)
REMARK    1  A    between atoms: _5  and  _11
REMARK    2  A    between atoms: _19  and  _21
REMARK    3  A    between atoms: _22  and  _66
REMARK    4  A    between atoms: _27  and  _30
REMARK    5  A    between atoms: _32  and  _33
REMARK    6  A    between atoms: _38  and  _43
REMARK    7  A    between atoms: _43  and  _46
REMARK    8  A    between atoms: _53  and  _55
REMARK                            x       y       z     vdW  Elec       q    Type
REMARK                         _______ _______ _______ _____ _____    ______ ____
ROOT
ATOM     10  C   UNL     1      27.030   4.532  29.079  0.00  0.00    +0.038 A 
ATOM     11  C   UNL     1      27.860   3.693  28.293  0.00  0.00    +0.047 A 
ATOM     12  C   UNL     1      27.350   2.459  27.715  0.00  0.00    +0.035 A 
ATOM     32  C   UNL     1      25.989   2.112  27.956  0.00  0.00    +0.024 A 
ATOM     33  C   UNL     1      25.131   2.953  28.753  0.00  0.00    +0.007 A 
ATOM     34  C   UNL     1      25.629   4.170  29.328  0.00  0.00    -0.029 A 
ATOM     35  C   UNL     1      24.667   5.030  30.180  0.00  0.00    +0.045 C 
ENDROOT
BRANCH  10   9
ATOM      4  C   UNL     1      28.379   9.122  28.695  0.00  0.00    +0.077 A 
ATOM      5  C   UNL     1      27.998   9.180  27.313  0.00  0.00    +0.048 A 
ATOM      6  C   UNL     1      27.466   8.005  26.737  0.00  0.00    +0.116 A 
ATOM      7  N   UNL     1      27.329   6.863  27.496  0.00  0.00    -0.223 NA
ATOM      8  C   UNL     1      27.708   6.840  28.826  0.00  0.00    +0.220 A 
ATOM      9  N   UNL     1      27.571   5.705  29.610  0.00  0.00    -0.283 N 
ATOM     36  H   UNL     1      27.869   5.727  30.584  0.00  0.00    +0.155 HD
ATOM     37  N   UNL     1      28.220   7.949  29.399  0.00  0.00    -0.214 NA
BRANCH   4   3
ATOM      1  C   UNL     1      29.261  11.662  31.536  0.00  0.00    +0.020 A 
ATOM      2  C   UNL     1      28.680  10.527  30.857  0.00  0.00    +0.013 A 
ATOM      3  C   UNL     1      28.954  10.282  29.447  0.00  0.00    +0.019 A 
ATOM     38  C   UNL     1      29.828  11.212  28.747  0.00  0.00    +0.120 A 
ATOM     39  N   UNL     1      30.372  12.298  29.427  0.00  0.00    -0.263 NA
ATOM     40  C   UNL     1      30.114  12.544  30.784  0.00  0.00    +0.111 A 
ENDBRANCH   4   3
ENDBRANCH  10   9
BRANCH  12  13
ATOM     13  N   UNL     1      28.148   1.563  26.915  0.00  0.00    -0.281 N 
ATOM     14  C   UNL     1      28.367   1.608  25.548  0.00  0.00    +0.248 C 
ATOM     30  O   UNL     1      27.734   2.305  24.769  0.00  0.00    -0.270 OA
ATOM     31  H   UNL     1      28.606   0.803  27.418  0.00  0.00    +0.155 HD
BRANCH  14  15
ATOM     15  C   UNL     1      29.434   0.742  24.959  0.00  0.00    +0.037 A 
ATOM     16  C   UNL     1      30.854   1.029  25.181  0.00  0.00    +0.013 A 
ATOM     17  C   UNL     1      31.863   0.188  24.587  0.00  0.00    +0.005 A 
ATOM     18  C   UNL     1      31.455  -0.949  23.766  0.00  0.00    -0.033 A 
ATOM     28  C   UNL     1      30.040  -1.214  23.567  0.00  0.00    +0.005 A 
ATOM     29  C   UNL     1      29.048  -0.391  24.146  0.00  0.00    +0.013 A 
BRANCH  18  19
ATOM     19  C   UNL     1      32.463  -1.887  23.076  0.00  0.00    +0.119 C 
BRANCH  19  20
ATOM     20  N   UNL     1      32.208  -3.355  23.172  0.00  0.00    -0.302 NA
ATOM     21  C   UNL     1      32.169  -3.838  24.625  0.00  0.00    +0.066 C 
ATOM     22  C   UNL     1      31.879  -5.372  24.708  0.00  0.00    -0.064 C 
ATOM     23  N   UNL     1      32.940  -6.133  23.912  0.00  0.00    +0.379 N 
ATOM     24  C   UNL     1      32.704  -7.579  24.036  0.00  0.00    -0.096 C 
ATOM     25  H   UNL     1      33.931  -5.912  24.373  0.00  0.00    -0.082 HD
ATOM     26  C   UNL     1      32.987  -5.657  22.467  0.00  0.00    -0.064 C 
ATOM     27  C   UNL     1      33.247  -4.127  22.397  0.00  0.00    +0.066 C 
ENDBRANCH  19  20
ENDBRANCH  18  19
ENDBRANCH  14  15
ENDBRANCH  12  13
TORSDOF 6
ENDMDL
MODEL 3
REMARK VINA RESULT:      -7.6      2.687      6.079
REMARK  Name = C:\Users\Docking\Desktop\test protocol\1iep_ligandH.pdb
REMARK  8 active torsions:
REMARK  status: ('A' for Active; 'I' for Inactive)
REMARK    1  A    between atoms: _5  and  _11
REMARK    2  A    between atoms: _19  and  _21
REMARK    3  A    between atoms: _22  and  _66
REMARK    4  A    between atoms: _27  and  _30
REMARK    5  A    between atoms: _32  and  _33
REMARK    6  A    between atoms: _38  and  _43
REMARK    7  A    between atoms: _43  and  _46
REMARK    8  A    between atoms: _53  and  _55
REMARK                            x       y       z     vdW  Elec       q    Type
REMARK                         _______ _______ _______ _____ _____    ______ ____
ROOT
ATOM     10  C   UNL     1      42.779  -8.816  34.247  0.00  0.00    +0.038 A 
ATOM     11  C   UNL     1      42.393  -9.655  33.171  0.00  0.00    +0.047 A 
ATOM     12  C   UNL     1      43.165 -10.839  32.825  0.00  0.00    +0.035 A 
ATOM     32  C   UNL     1      44.323 -11.139  33.599  0.00  0.00    +0.024 A 
ATOM     33  C   UNL     1      44.731 -10.296  34.696  0.00  0.00    +0.007 A 
ATOM     34  C   UNL     1      43.974  -9.126  35.040  0.00  0.00    -0.029 A 
ATOM     35  C   UNL     1      44.461  -8.255  36.221  0.00  0.00    +0.045 C 
ENDROOT
BRANCH  10   9
ATOM      4  C   UNL     1      41.789  -4.137  33.843  0.00  0.00    +0.077 A 
ATOM      5  C   UNL     1      42.934  -3.906  33.010  0.00  0.00    +0.048 A 
ATOM      6  C   UNL     1      43.756  -5.017  32.715  0.00  0.00    +0.116 A 
ATOM      7  N   UNL     1      43.446  -6.261  33.221  0.00  0.00    -0.223 NA
ATOM      8  C   UNL     1      42.335  -6.448  34.022  0.00  0.00    +0.220 A 
ATOM      9  N   UNL     1      42.001  -7.692  34.535  0.00  0.00    -0.283 N 
ATOM     36  H   UNL     1      41.177  -7.788  35.128  0.00  0.00    +0.155 HD
ATOM     37  N   UNL     1      41.535  -5.404  34.320  0.00  0.00    -0.214 NA
BRANCH   4   3
ATOM      1  C   UNL     1      38.492  -2.209  34.690  0.00  0.00    +0.020 A 
ATOM      2  C   UNL     1      39.382  -3.278  34.299  0.00  0.00    +0.013 A 
ATOM      3  C   UNL     1      40.822  -3.065  34.241  0.00  0.00    +0.019 A 
ATOM     38  C   UNL     1      41.335  -1.748  34.589  0.00  0.00    +0.120 A 
ATOM     39  N   UNL     1      40.454  -0.737  34.961  0.00  0.00    -0.263 NA
ATOM     40  C   UNL     1      39.065  -0.930  35.018  0.00  0.00    +0.111 A 
ENDBRANCH   4   3
ENDBRANCH  10   9
BRANCH  12  13
ATOM     13  N   UNL     1      42.826 -11.724  31.738  0.00  0.00    -0.281 N 
ATOM     14  C   UNL     1      41.573 -11.976  31.204  0.00  0.00    +0.248 C 
ATOM     30  O   UNL     1      40.520 -11.638  31.723  0.00  0.00    -0.270 OA
ATOM     31  H   UNL     1      43.605 -12.225  31.311  0.00  0.00    +0.155 HD
BRANCH  14  15
ATOM     15  C   UNL     1      41.476 -12.724  29.914  0.00  0.00    +0.037 A 
ATOM     16  C   UNL     1      42.671 -13.240  29.242  0.00  0.00    +0.013 A 
ATOM     17  C   UNL     1      42.551 -13.943  27.990  0.00  0.00    +0.005 A 
ATOM     18  C   UNL     1      41.227 -14.137  27.402  0.00  0.00    -0.033 A 
ATOM     28  C   UNL     1      40.057 -13.620  28.093  0.00  0.00    +0.005 A 
ATOM     29  C   UNL     1      40.172 -12.929  29.320  0.00  0.00    +0.013 A 
BRANCH  18  19
ATOM     19  C   UNL     1      41.006 -14.858  26.059  0.00  0.00    +0.119 C 
BRANCH  19  20
ATOM     20  N   UNL     1      42.186 -15.535  25.444  0.00  0.00    -0.302 NA
ATOM     21  C   UNL     1      42.717 -14.773  24.227  0.00  0.00    +0.066 C 
ATOM     22  C   UNL     1      43.965 -15.484  23.609  0.00  0.00    -0.064 C 
ATOM     23  N   UNL     1      43.596 -16.919  23.231  0.00  0.00    +0.379 N 
ATOM     24  C   UNL     1      44.751 -17.572  22.597  0.00  0.00    -0.096 C 
ATOM     25  H   UNL     1      42.778 -16.869  22.475  0.00  0.00    -0.082 HD
ATOM     26  C   UNL     1      43.065 -17.683  24.435  0.00  0.00    -0.064 C 
ATOM     27  C   UNL     1      41.843 -16.953  25.059  0.00  0.00    +0.066 C 
ENDBRANCH  19  20
ENDBRANCH  18  19
ENDBRANCH  14  15
ENDBRANCH  12  13
TORSDOF 6
ENDMDL
MODEL 4
REMARK VINA RESULT:      -7.5      2.133      3.031
REMARK  Name = C:\Users\Docking\Desktop\test protocol\1iep_ligandH.pdb
REMARK  8 active torsions:
REMARK  status: ('A' for Active; 'I' for Inactive)
REMARK    1  A    between atoms: _5  and  _11
REMARK    2  A    between atoms: _19  and  _21
REMARK    3  A    between atoms: _22  and  _66
REMARK    4  A    between atoms: _27  and  _30
REMARK    5  A    between atoms: _32  and  _33
REMARK    6  A    between atoms: _38  and  _43
REMARK    7  A    between atoms: _43  and  _46
REMARK    8  A    between atoms: _53  and  _55
REMARK                            x       y       z     vdW  Elec       q    Type
REMARK                         _______ _______ _______ _____ _____    ______ ____
ROOT
ATOM     10  C   UNL     1      42.987 -14.414  29.508  0.00  0.00    +0.038 A 
ATOM     11  C   UNL     1      43.033 -14.471  28.092  0.00  0.00    +0.047 A 
ATOM     12  C   UNL     1      42.664 -15.682  27.375  0.00  0.00    +0.035 A 
ATOM     32  C   UNL     1      42.251 -16.817  28.133  0.00  0.00    +0.024 A 
ATOM     33  C   UNL     1      42.199 -16.776  29.573  0.00  0.00    +0.007 A 
ATOM     34  C   UNL     1      42.564 -15.585  30.286  0.00  0.00    -0.029 A 
ATOM     35  C   UNL     1      42.496 -15.601  31.831  0.00  0.00    +0.045 C 
ENDROOT
BRANCH  10   9
ATOM      4  C   UNL     1      41.946 -10.099  31.334  0.00  0.00    +0.077 A 
ATOM      5  C   UNL     1      40.564 -10.211  30.965  0.00  0.00    +0.048 A 
ATOM      6  C   UNL     1      40.163 -11.391  30.300  0.00  0.00    +0.116 A 
ATOM      7  N   UNL     1      41.084 -12.381  30.031  0.00  0.00    -0.223 NA
ATOM      8  C   UNL     1      42.409 -12.241  30.399  0.00  0.00    +0.220 A 
ATOM      9  N   UNL     1      43.351 -13.226  30.145  0.00  0.00    -0.283 N 
ATOM     36  H   UNL     1      44.321 -13.081  30.426  0.00  0.00    +0.155 HD
ATOM     37  N   UNL     1      42.818 -11.122  31.034  0.00  0.00    -0.214 NA
BRANCH   4   3
ATOM      1  C   UNL     1      42.320  -6.659  33.157  0.00  0.00    +0.020 A 
ATOM      2  C   UNL     1      41.715  -7.779  32.474  0.00  0.00    +0.013 A 
ATOM      3  C   UNL     1      42.522  -8.914  32.045  0.00  0.00    +0.019 A 
ATOM     38  C   UNL     1      43.949  -8.886  32.326  0.00  0.00    +0.120 A 
ATOM     39  N   UNL     1      44.505  -7.793  32.984  0.00  0.00    -0.263 NA
ATOM     40  C   UNL     1      43.738  -6.694  33.400  0.00  0.00    +0.111 A 
ENDBRANCH   4   3
ENDBRANCH  10   9
BRANCH  12  13
ATOM     13  N   UNL     1      42.699 -15.802  25.939  0.00  0.00    -0.281 N 
ATOM     14  C   UNL     1      43.696 -15.382  25.073  0.00  0.00    +0.248 C 
ATOM     30  O   UNL     1      44.618 -14.644  25.387  0.00  0.00    -0.270 OA
ATOM     31  H   UNL     1      41.891 -16.251  25.508  0.00  0.00    +0.155 HD
BRANCH  14  15
ATOM     15  C   UNL     1      43.655 -15.836  23.650  0.00  0.00    +0.037 A 
ATOM     16  C   UNL     1      42.420 -16.349  23.051  0.00  0.00    +0.013 A 
ATOM     17  C   UNL     1      42.412 -16.796  21.681  0.00  0.00    +0.005 A 
ATOM     18  C   UNL     1      43.644 -16.732  20.899  0.00  0.00    -0.033 A 
ATOM     28  C   UNL     1      44.854 -16.214  21.516  0.00  0.00    +0.005 A 
ATOM     29  C   UNL     1      44.866 -15.776  22.860  0.00  0.00    +0.013 A 
BRANCH  18  19
ATOM     19  C   UNL     1      43.733 -17.207  19.437  0.00  0.00    +0.119 C 
BRANCH  19  20
ATOM     20  N   UNL     1      43.030 -16.386  18.407  0.00  0.00    -0.302 NA
ATOM     21  C   UNL     1      42.625 -15.011  18.947  0.00  0.00    +0.066 C 
ATOM     22  C   UNL     1      41.910 -14.157  17.849  0.00  0.00    -0.064 C 
ATOM     23  N   UNL     1      40.688 -14.916  17.330  0.00  0.00    +0.379 N 
ATOM     24  C   UNL     1      39.982 -14.091  16.340  0.00  0.00    -0.096 C 
ATOM     25  H   UNL     1      39.999 -15.076  18.192  0.00  0.00    -0.082 HD
ATOM     26  C   UNL     1      41.082 -16.286  16.794  0.00  0.00    -0.064 C 
ATOM     27  C   UNL     1      41.817 -17.115  17.884  0.00  0.00    +0.066 C 
ENDBRANCH  19  20
ENDBRANCH  18  19
ENDBRANCH  14  15
ENDBRANCH  12  13
TORSDOF 6
ENDMDL
MODEL 5
REMARK VINA RESULT:      -7.4     32.827     35.774
REMARK  Name = C:\Users\Docking\Desktop\test protocol\1iep_ligandH.pdb
REMARK  8 active torsions:
REMARK  status: ('A' for Active; 'I' for Inactive)
REMARK    1  A    between atoms: _5  and  _11
REMARK    2  A    between atoms: _19  and  _21
REMARK    3  A    between atoms: _22  and  _66
REMARK    4  A    between atoms: _27  and  _30
REMARK    5  A    between atoms: _32  and  _33
REMARK    6  A    between atoms: _38  and  _43
REMARK    7  A    between atoms: _43  and  _46
REMARK    8  A    between atoms: _53  and  _55
REMARK                            x       y       z     vdW  Elec       q    Type
REMARK                         _______ _______ _______ _____ _____    ______ ____
ROOT
ATOM     10  C   UNL     1      56.185  16.111  23.115  0.00  0.00    +0.038 A 
ATOM     11  C   UNL     1      57.186  15.651  24.008  0.00  0.00    +0.047 A 
ATOM     12  C   UNL     1      57.135  15.972  25.426  0.00  0.00    +0.035 A 
ATOM     32  C   UNL     1      56.046  16.760  25.901  0.00  0.00    +0.024 A 
ATOM     33  C   UNL     1      55.021  17.237  25.007  0.00  0.00    +0.007 A 
ATOM     34  C   UNL     1      55.068  16.926  23.607  0.00  0.00    -0.029 A 
ATOM     35  C   UNL     1      53.944  17.469  22.693  0.00  0.00    +0.045 C 
ENDROOT
BRANCH  10   9
ATOM      4  C   UNL     1      57.971  16.768  18.708  0.00  0.00    +0.077 A 
ATOM      5  C   UNL     1      58.751  17.896  19.129  0.00  0.00    +0.048 A 
ATOM      6  C   UNL     1      58.660  18.279  20.486  0.00  0.00    +0.116 A 
ATOM      7  N   UNL     1      57.845  17.579  21.349  0.00  0.00    -0.223 NA
ATOM      8  C   UNL     1      57.104  16.497  20.911  0.00  0.00    +0.220 A 
ATOM      9  N   UNL     1      56.285  15.773  21.763  0.00  0.00    -0.283 N 
ATOM     36  H   UNL     1      55.748  14.986  21.399  0.00  0.00    +0.155 HD
ATOM     37  N   UNL     1      57.173  16.112  19.619  0.00  0.00    -0.214 NA
BRANCH   4   3
ATOM      1  C   UNL     1      58.921  16.061  14.980  0.00  0.00    +0.020 A 
ATOM      2  C   UNL     1      58.973  16.600  16.320  0.00  0.00    +0.013 A 
ATOM      3  C   UNL     1      57.964  16.240  17.307  0.00  0.00    +0.019 A 
ATOM     38  C   UNL     1      56.907  15.325  16.905  0.00  0.00    +0.120 A 
ATOM     39  N   UNL     1      56.881  14.823  15.607  0.00  0.00    -0.263 NA
ATOM     40  C   UNL     1      57.846  15.164  14.648  0.00  0.00    +0.111 A 
ENDBRANCH   4   3
ENDBRANCH  10   9
BRANCH  12  13
ATOM     13  N   UNL     1      58.127  15.540  26.379  0.00  0.00    -0.281 N 
ATOM     14  C   UNL     1      59.102  16.304  26.998  0.00  0.00    +0.248 C 
ATOM     30  O   UNL     1      59.407  17.439  26.663  0.00  0.00    -0.270 OA
ATOM     31  H   UNL     1      58.108  14.551  26.627  0.00  0.00    +0.155 HD
BRANCH  14  15
ATOM     15  C   UNL     1      59.858  15.718  28.147  0.00  0.00    +0.037 A 
ATOM     16  C   UNL     1      59.176  14.955  29.196  0.00  0.00    +0.013 A 
ATOM     17  C   UNL     1      59.926  14.415  30.301  0.00  0.00    +0.005 A 
ATOM     18  C   UNL     1      61.369  14.634  30.363  0.00  0.00    -0.033 A 
ATOM     28  C   UNL     1      62.021  15.390  29.306  0.00  0.00    +0.005 A 
ATOM     29  C   UNL     1      61.289  15.922  28.221  0.00  0.00    +0.013 A 
BRANCH  18  19
ATOM     19  C   UNL     1      62.246  14.113  31.516  0.00  0.00    +0.119 C 
BRANCH  19  20
ATOM     20  N   UNL     1      62.906  15.130  32.388  0.00  0.00    -0.302 NA
ATOM     21  C   UNL     1      63.644  14.486  33.565  0.00  0.00    +0.066 C 
ATOM     22  C   UNL     1      64.347  15.563  34.454  0.00  0.00    -0.064 C 
ATOM     23  N   UNL     1      63.306  16.568  34.951  0.00  0.00    +0.379 N 
ATOM     24  C   UNL     1      63.955  17.549  35.834  0.00  0.00    -0.096 C 
ATOM     25  H   UNL     1      62.559  16.008  35.559  0.00  0.00    -0.082 HD
ATOM     26  C   UNL     1      62.566  17.211  33.787  0.00  0.00    -0.064 C 
ATOM     27  C   UNL     1      61.895  16.130  32.894  0.00  0.00    +0.066 C 
ENDBRANCH  19  20
ENDBRANCH  18  19
ENDBRANCH  14  15
ENDBRANCH  12  13
TORSDOF 6
ENDMDL
