MODEL 1
REMARK VINA RESULT:     -10.3      0.000      0.000
REMARK  Name = C:\Users\Docking\Desktop\test protocol\1iep_ligandH.pdb
REMARK  8 active torsions:
REMARK  status: ('A' for Active; 'I' for Inactive)
REMARK    1  A    between atoms: _5  and  _11
REMARK    2  A    between atoms: _19  and  _21
REMARK    3  A    between atoms: _22  and  _66
REMARK    4  A    between atoms: _27  and  _30
REMARK    5  A    between atoms: _32  and  _33
REMARK    6  A    between atoms: _38  and  _43
REMARK    7  A    between atoms: _43  and  _46
REMARK    8  A    between atoms: _53  and  _55
REMARK                            x       y       z     vdW  Elec       q    Type
REMARK                         _______ _______ _______ _____ _____    ______ ____
ROOT
ATOM     10  C   UNL     1       8.585  11.414   2.231  0.00  0.00    +0.038 A 
ATOM     11  C   UNL     1       9.962  11.752   2.236  0.00  0.00    +0.047 A 
ATOM     12  C   UNL     1      10.450  12.911   2.968  0.00  0.00    +0.035 A 
ATOM     32  C   UNL     1       9.507  13.702   3.687  0.00  0.00    +0.024 A 
ATOM     33  C   UNL     1       8.103  13.373   3.692  0.00  0.00    +0.007 A 
ATOM     34  C   UNL     1       7.616  12.233   2.969  0.00  0.00    -0.029 A 
ATOM     35  C   UNL     1       6.099  11.932   3.005  0.00  0.00    +0.045 C 
ENDROOT
BRANCH  10   9
ATOM      4  C   UNL     1       7.247   9.253  -1.840  0.00  0.00    +0.077 A 
ATOM      5  C   UNL     1       7.355  10.470  -2.591  0.00  0.00    +0.048 A 
ATOM      6  C   UNL     1       7.750  11.632  -1.891  0.00  0.00    +0.116 A 
ATOM      7  N   UNL     1       8.016  11.569  -0.541  0.00  0.00    -0.223 NA
ATOM      8  C   UNL     1       7.901  10.379   0.154  0.00  0.00    +0.220 A 
ATOM      9  N   UNL     1       8.171  10.291   1.511  0.00  0.00    -0.283 N 
ATOM     36  H   UNL     1       8.068   9.396   1.989  0.00  0.00    +0.155 HD
ATOM     37  N   UNL     1       7.524   9.256  -0.491  0.00  0.00    -0.214 NA
BRANCH   4   3
ATOM      1  C   UNL     1       6.738   6.291  -4.344  0.00  0.00    +0.020 A 
ATOM      2  C   UNL     1       7.151   7.570  -3.815  0.00  0.00    +0.013 A 
ATOM      3  C   UNL     1       6.843   7.941  -2.439  0.00  0.00    +0.019 A 
ATOM     38  C   UNL     1       6.112   6.987  -1.619  0.00  0.00    +0.120 A 
ATOM     39  N   UNL     1       5.727   5.763  -2.157  0.00  0.00    -0.263 NA
ATOM     40  C   UNL     1       6.015   5.396  -3.479  0.00  0.00    +0.111 A 
ENDBRANCH   4   3
ENDBRANCH  10   9
BRANCH  12  13
ATOM     13  N   UNL     1      11.836  13.308   3.003  0.00  0.00    -0.281 N 
ATOM     14  C   UNL     1      12.639  13.499   4.116  0.00  0.00    +0.248 C 
ATOM     30  O   UNL     1      12.225  13.565   5.264  0.00  0.00    -0.270 OA
ATOM     31  H   UNL     1      12.278  13.467   2.098  0.00  0.00    +0.155 HD
BRANCH  14  15
ATOM     15  C   UNL     1      14.113  13.654   3.924  0.00  0.00    +0.037 A 
ATOM     16  C   UNL     1      14.899  12.637   3.221  0.00  0.00    +0.013 A 
ATOM     17  C   UNL     1      16.322  12.802   3.064  0.00  0.00    +0.005 A 
ATOM     18  C   UNL     1      16.969  13.993   3.611  0.00  0.00    -0.033 A 
ATOM     28  C   UNL     1      16.165  14.989   4.300  0.00  0.00    +0.005 A 
ATOM     29  C   UNL     1      14.769  14.829   4.456  0.00  0.00    +0.013 A 
BRANCH  18  19
ATOM     19  C   UNL     1      18.485  14.242   3.510  0.00  0.00    +0.119 C 
BRANCH  19  20
ATOM     20  N   UNL     1      19.024  15.462   4.182  0.00  0.00    -0.302 NA
ATOM     21  C   UNL     1      19.513  16.505   3.174  0.00  0.00    +0.066 C 
ATOM     22  C   UNL     1      20.053  17.784   3.894  0.00  0.00    -0.064 C 
ATOM     23  N   UNL     1      21.177  17.389   4.853  0.00  0.00    +0.379 N 
ATOM     24  C   UNL     1      21.726  18.596   5.489  0.00  0.00    -0.096 C 
ATOM     25  H   UNL     1      21.991  16.926   4.248  0.00  0.00    -0.082 HD
ATOM     26  C   UNL     1      20.700  16.350   5.858  0.00  0.00    -0.064 C 
ATOM     27  C   UNL     1      20.139  15.096   5.131  0.00  0.00    +0.066 C 
ENDBRANCH  19  20
ENDBRANCH  18  19
ENDBRANCH  14  15
ENDBRANCH  12  13
TORSDOF 6
ENDMDL
MODEL 2
REMARK VINA RESULT:     -10.2      3.807      7.147
REMARK  Name = C:\Users\Docking\Desktop\test protocol\1iep_ligandH.pdb
REMARK  8 active torsions:
REMARK  status: ('A' for Active; 'I' for Inactive)
REMARK    1  A    between atoms: _5  and  _11
REMARK    2  A    between atoms: _19  and  _21
REMARK    3  A    between atoms: _22  and  _66
REMARK    4  A    between atoms: _27  and  _30
REMARK    5  A    between atoms: _32  and  _33
REMARK    6  A    between atoms: _38  and  _43
REMARK    7  A    between atoms: _43  and  _46
REMARK    8  A    between atoms: _53  and  _55
REMARK                            x       y       z     vdW  Elec       q    Type
REMARK                         _______ _______ _______ _____ _____    ______ ____
ROOT
ATOM     10  C   UNL     1       8.312  12.448   4.086  0.00  0.00    +0.038 A 
ATOM     11  C   UNL     1       9.661  12.882   4.164  0.00  0.00    +0.047 A 
ATOM     12  C   UNL     1      10.569  12.723   3.039  0.00  0.00    +0.035 A 
ATOM     32  C   UNL     1      10.069  12.122   1.847  0.00  0.00    +0.024 A 
ATOM     33  C   UNL     1       8.701  11.675   1.751  0.00  0.00    +0.007 A 
ATOM     34  C   UNL     1       7.802  11.826   2.859  0.00  0.00    -0.029 A 
ATOM     35  C   UNL     1       6.348  11.323   2.701  0.00  0.00    +0.045 C 
ENDROOT
BRANCH  10   9
ATOM      4  C   UNL     1       5.242  15.046   6.706  0.00  0.00    +0.077 A 
ATOM      5  C   UNL     1       5.314  16.155   5.799  0.00  0.00    +0.048 A 
ATOM      6  C   UNL     1       6.159  16.019   4.675  0.00  0.00    +0.116 A 
ATOM      7  N   UNL     1       6.873  14.857   4.481  0.00  0.00    -0.223 NA
ATOM      8  C   UNL     1       6.782  13.807   5.376  0.00  0.00    +0.220 A 
ATOM      9  N   UNL     1       7.484  12.625   5.197  0.00  0.00    -0.283 N 
ATOM     36  H   UNL     1       7.396  11.877   5.884  0.00  0.00    +0.155 HD
ATOM     37  N   UNL     1       5.983  13.912   6.459  0.00  0.00    -0.214 NA
BRANCH   4   3
ATOM      1  C   UNL     1       2.569  14.068   9.390  0.00  0.00    +0.020 A 
ATOM      2  C   UNL     1       3.362  14.033   8.183  0.00  0.00    +0.013 A 
ATOM      3  C   UNL     1       4.392  15.035   7.939  0.00  0.00    +0.019 A 
ATOM     38  C   UNL     1       4.596  16.067   8.944  0.00  0.00    +0.120 A 
ATOM     39  N   UNL     1       3.815  16.077  10.096  0.00  0.00    -0.263 NA
ATOM     40  C   UNL     1       2.821  15.118  10.341  0.00  0.00    +0.111 A 
ENDBRANCH   4   3
ENDBRANCH  10   9
BRANCH  12  13
ATOM     13  N   UNL     1      11.950  13.137   3.063  0.00  0.00    -0.281 N 
ATOM     14  C   UNL     1      12.543  14.078   3.888  0.00  0.00    +0.248 C 
ATOM     30  O   UNL     1      11.928  14.866   4.592  0.00  0.00    -0.270 OA
ATOM     31  H   UNL     1      12.565  12.680   2.390  0.00  0.00    +0.155 HD
BRANCH  14  15
ATOM     15  C   UNL     1      14.034  14.166   3.928  0.00  0.00    +0.037 A 
ATOM     16  C   UNL     1      14.713  15.224   4.680  0.00  0.00    +0.013 A 
ATOM     17  C   UNL     1      16.153  15.297   4.687  0.00  0.00    +0.005 A 
ATOM     18  C   UNL     1      16.924  14.306   3.940  0.00  0.00    -0.033 A 
ATOM     28  C   UNL     1      16.225  13.264   3.207  0.00  0.00    +0.005 A 
ATOM     29  C   UNL     1      14.814  13.190   3.196  0.00  0.00    +0.013 A 
BRANCH  18  19
ATOM     19  C   UNL     1      18.462  14.319   3.875  0.00  0.00    +0.119 C 
BRANCH  19  20
ATOM     20  N   UNL     1      19.154  15.574   4.294  0.00  0.00    -0.302 NA
ATOM     21  C   UNL     1      19.371  16.531   3.118  0.00  0.00    +0.066 C 
ATOM     22  C   UNL     1      20.075  17.849   3.579  0.00  0.00    -0.064 C 
ATOM     23  N   UNL     1      21.406  17.504   4.250  0.00  0.00    +0.379 N 
ATOM     24  C   UNL     1      22.098  18.744   4.633  0.00  0.00    -0.096 C 
ATOM     25  H   UNL     1      22.040  16.982   3.496  0.00  0.00    -0.082 HD
ATOM     26  C   UNL     1      21.200  16.551   5.419  0.00  0.00    -0.064 C 
ATOM     27  C   UNL     1      20.473  15.258   4.956  0.00  0.00    +0.066 C 
ENDBRANCH  19  20
ENDBRANCH  18  19
ENDBRANCH  14  15
ENDBRANCH  12  13
TORSDOF 6
ENDMDL
MODEL 3
REMARK VINA RESULT:     -10.1      4.237      7.482
REMARK  Name = C:\Users\Docking\Desktop\test protocol\1iep_ligandH.pdb
REMARK  8 active torsions:
REMARK  status: ('A' for Active; 'I' for Inactive)
REMARK    1  A    between atoms: _5  and  _11
REMARK    2  A    between atoms: _19  and  _21
REMARK    3  A    between atoms: _22  and  _66
REMARK    4  A    between atoms: _27  and  _30
REMARK    5  A    between atoms: _32  and  _33
REMARK    6  A    between atoms: _38  and  _43
REMARK    7  A    between atoms: _43  and  _46
REMARK    8  A    between atoms: _53  and  _55
REMARK                            x       y       z     vdW  Elec       q    Type
REMARK                         _______ _______ _______ _____ _____    ______ ____
ROOT
ATOM     10  C   UNL     1       7.821  13.538   4.383  0.00  0.00    +0.038 A 
ATOM     11  C   UNL     1       9.182  13.937   4.378  0.00  0.00    +0.047 A 
ATOM     12  C   UNL     1      10.142  13.328   3.470  0.00  0.00    +0.035 A 
ATOM     32  C   UNL     1       9.680  12.318   2.577  0.00  0.00    +0.024 A 
ATOM     33  C   UNL     1       8.300  11.899   2.569  0.00  0.00    +0.007 A 
ATOM     34  C   UNL     1       7.350  12.495   3.465  0.00  0.00    -0.029 A 
ATOM     35  C   UNL     1       5.884  12.002   3.417  0.00  0.00    +0.045 C 
ENDROOT
BRANCH  10   9
ATOM      4  C   UNL     1       4.747  17.030   5.563  0.00  0.00    +0.077 A 
ATOM      5  C   UNL     1       4.925  17.694   4.304  0.00  0.00    +0.048 A 
ATOM      6  C   UNL     1       5.823  17.108   3.383  0.00  0.00    +0.116 A 
ATOM      7  N   UNL     1       6.486  15.945   3.708  0.00  0.00    -0.223 NA
ATOM      8  C   UNL     1       6.293  15.331   4.932  0.00  0.00    +0.220 A 
ATOM      9  N   UNL     1       6.943  14.156   5.276  0.00  0.00    -0.283 N 
ATOM     36  H   UNL     1       6.779  13.739   6.192  0.00  0.00    +0.155 HD
ATOM     37  N   UNL     1       5.442  15.871   5.829  0.00  0.00    -0.214 NA
BRANCH   4   3
ATOM      1  C   UNL     1       2.839  19.353   8.065  0.00  0.00    +0.020 A 
ATOM      2  C   UNL     1       3.741  18.928   7.020  0.00  0.00    +0.013 A 
ATOM      3  C   UNL     1       3.831  17.524   6.639  0.00  0.00    +0.019 A 
ATOM     38  C   UNL     1       2.987  16.568   7.341  0.00  0.00    +0.120 A 
ATOM     39  N   UNL     1       2.129  17.007   8.345  0.00  0.00    -0.263 NA
ATOM     40  C   UNL     1       2.035  18.355   8.721  0.00  0.00    +0.111 A 
ENDBRANCH   4   3
ENDBRANCH  10   9
BRANCH  12  13
ATOM     13  N   UNL     1      11.538  13.687   3.425  0.00  0.00    -0.281 N 
ATOM     14  C   UNL     1      12.440  13.728   4.476  0.00  0.00    +0.248 C 
ATOM     30  O   UNL     1      12.130  13.668   5.656  0.00  0.00    -0.270 OA
ATOM     31  H   UNL     1      11.905  13.941   2.508  0.00  0.00    +0.155 HD
BRANCH  14  15
ATOM     15  C   UNL     1      13.896  13.870   4.171  0.00  0.00    +0.037 A 
ATOM     16  C   UNL     1      14.600  12.886   3.344  0.00  0.00    +0.013 A 
ATOM     17  C   UNL     1      16.009  13.038   3.080  0.00  0.00    +0.005 A 
ATOM     18  C   UNL     1      16.723  14.181   3.642  0.00  0.00    -0.033 A 
ATOM     28  C   UNL     1      16.000  15.145   4.455  0.00  0.00    +0.005 A 
ATOM     29  C   UNL     1      14.620  14.999   4.717  0.00  0.00    +0.013 A 
BRANCH  18  19
ATOM     19  C   UNL     1      18.231  14.412   3.430  0.00  0.00    +0.119 C 
BRANCH  19  20
ATOM     20  N   UNL     1      18.853  15.570   4.139  0.00  0.00    -0.302 NA
ATOM     21  C   UNL     1      19.382  16.624   3.163  0.00  0.00    +0.066 C 
ATOM     22  C   UNL     1      20.009  17.839   3.922  0.00  0.00    -0.064 C 
ATOM     23  N   UNL     1      21.126  17.341   4.841  0.00  0.00    +0.379 N 
ATOM     24  C   UNL     1      21.756  18.488   5.512  0.00  0.00    -0.096 C 
ATOM     25  H   UNL     1      21.900  16.858   4.200  0.00  0.00    -0.082 HD
ATOM     26  C   UNL     1      20.609  16.290   5.813  0.00  0.00    -0.064 C 
ATOM     27  C   UNL     1      19.962  15.102   5.048  0.00  0.00    +0.066 C 
ENDBRANCH  19  20
ENDBRANCH  18  19
ENDBRANCH  14  15
ENDBRANCH  12  13
TORSDOF 6
ENDMDL
MODEL 4
REMARK VINA RESULT:     -10.0      2.966     11.774
REMARK  Name = C:\Users\Docking\Desktop\test protocol\1iep_ligandH.pdb
REMARK  8 active torsions:
REMARK  status: ('A' for Active; 'I' for Inactive)
REMARK    1  A    between atoms: _5  and  _11
REMARK    2  A    between atoms: _19  and  _21
REMARK    3  A    between atoms: _22  and  _66
REMARK    4  A    between atoms: _27  and  _30
REMARK    5  A    between atoms: _32  and  _33
REMARK    6  A    between atoms: _38  and  _43
REMARK    7  A    between atoms: _43  and  _46
REMARK    8  A    between atoms: _53  and  _55
REMARK                            x       y       z     vdW  Elec       q    Type
REMARK                         _______ _______ _______ _____ _____    ______ ____
ROOT
ATOM     10  C   UNL     1      10.429  13.806   4.399  0.00  0.00    +0.038 A 
ATOM     11  C   UNL     1      10.268  13.218   3.118  0.00  0.00    +0.047 A 
ATOM     12  C   UNL     1       9.082  12.443   2.790  0.00  0.00    +0.035 A 
ATOM     32  C   UNL     1       8.078  12.289   3.789  0.00  0.00    +0.024 A 
ATOM     33  C   UNL     1       8.226  12.878   5.097  0.00  0.00    +0.007 A 
ATOM     34  C   UNL     1       9.395  13.641   5.428  0.00  0.00    -0.029 A 
ATOM     35  C   UNL     1       9.503  14.245   6.847  0.00  0.00    +0.045 C 
ENDROOT
BRANCH  10   9
ATOM      4  C   UNL     1      15.183  14.433   4.176  0.00  0.00    +0.077 A 
ATOM      5  C   UNL     1      15.376  13.179   3.505  0.00  0.00    +0.048 A 
ATOM      6  C   UNL     1      14.227  12.399   3.243  0.00  0.00    +0.116 A 
ATOM      7  N   UNL     1      12.983  12.850   3.627  0.00  0.00    -0.223 NA
ATOM      8  C   UNL     1      12.831  14.063   4.273  0.00  0.00    +0.220 A 
ATOM      9  N   UNL     1      11.588  14.540   4.660  0.00  0.00    -0.283 N 
ATOM     36  H   UNL     1      11.520  15.436   5.141  0.00  0.00    +0.155 HD
ATOM     37  N   UNL     1      13.913  14.826   4.536  0.00  0.00    -0.214 NA
BRANCH   4   3
ATOM      1  C   UNL     1      17.331  17.198   5.917  0.00  0.00    +0.020 A 
ATOM      2  C   UNL     1      16.226  16.315   5.627  0.00  0.00    +0.013 A 
ATOM      3  C   UNL     1      16.298  15.370   4.520  0.00  0.00    +0.019 A 
ATOM     38  C   UNL     1      17.513  15.344   3.719  0.00  0.00    +0.120 A 
ATOM     39  N   UNL     1      18.561  16.208   4.022  0.00  0.00    -0.263 NA
ATOM     40  C   UNL     1      18.502  17.122   5.084  0.00  0.00    +0.111 A 
ENDBRANCH   4   3
ENDBRANCH  10   9
BRANCH  12  13
ATOM     13  N   UNL     1       8.866  11.817   1.509  0.00  0.00    -0.281 N 
ATOM     14  C   UNL     1       8.202  12.334   0.409  0.00  0.00    +0.248 C 
ATOM     30  O   UNL     1       7.502  13.336   0.432  0.00  0.00    -0.270 OA
ATOM     31  H   UNL     1       9.251  10.878   1.400  0.00  0.00    +0.155 HD
BRANCH  14  15
ATOM     15  C   UNL     1       8.319  11.628  -0.903  0.00  0.00    +0.037 A 
ATOM     16  C   UNL     1       7.728  12.186  -2.122  0.00  0.00    +0.013 A 
ATOM     17  C   UNL     1       7.841  11.476  -3.371  0.00  0.00    +0.005 A 
ATOM     18  C   UNL     1       8.551  10.200  -3.408  0.00  0.00    -0.033 A 
ATOM     28  C   UNL     1       9.132   9.672  -2.185  0.00  0.00    +0.005 A 
ATOM     29  C   UNL     1       9.022  10.364  -0.959  0.00  0.00    +0.013 A 
BRANCH  18  19
ATOM     19  C   UNL     1       8.702   9.364  -4.693  0.00  0.00    +0.119 C 
BRANCH  19  20
ATOM     20  N   UNL     1       9.819   8.374  -4.737  0.00  0.00    -0.302 NA
ATOM     21  C   UNL     1      11.153   9.029  -5.108  0.00  0.00    +0.066 C 
ATOM     22  C   UNL     1      12.314   7.983  -5.127  0.00  0.00    -0.064 C 
ATOM     23  N   UNL     1      11.970   6.860  -6.108  0.00  0.00    +0.379 N 
ATOM     24  C   UNL     1      13.086   5.905  -6.172  0.00  0.00    -0.096 C 
ATOM     25  H   UNL     1      11.858   7.317  -7.119  0.00  0.00    -0.082 HD
ATOM     26  C   UNL     1      10.644   6.206  -5.748  0.00  0.00    -0.064 C 
ATOM     27  C   UNL     1       9.502   7.259  -5.702  0.00  0.00    +0.066 C 
ENDBRANCH  19  20
ENDBRANCH  18  19
ENDBRANCH  14  15
ENDBRANCH  12  13
TORSDOF 6
ENDMDL
MODEL 5
REMARK VINA RESULT:     -10.0      4.892     13.173
REMARK  Name = C:\Users\Docking\Desktop\test protocol\1iep_ligandH.pdb
REMARK  8 active torsions:
REMARK  status: ('A' for Active; 'I' for Inactive)
REMARK    1  A    between atoms: _5  and  _11
REMARK    2  A    between atoms: _19  and  _21
REMARK    3  A    between atoms: _22  and  _66
REMARK    4  A    between atoms: _27  and  _30
REMARK    5  A    between atoms: _32  and  _33
REMARK    6  A    between atoms: _38  and  _43
REMARK    7  A    between atoms: _43  and  _46
REMARK    8  A    between atoms: _53  and  _55
REMARK                            x       y       z     vdW  Elec       q    Type
REMARK                         _______ _______ _______ _____ _____    ______ ____
ROOT
ATOM     10  C   UNL     1       8.363  12.255   1.889  0.00  0.00    +0.038 A 
ATOM     11  C   UNL     1       8.009  10.881   1.898  0.00  0.00    +0.047 A 
ATOM     12  C   UNL     1       6.618  10.462   1.832  0.00  0.00    +0.035 A 
ATOM     32  C   UNL     1       5.612  11.469   1.754  0.00  0.00    +0.024 A 
ATOM     33  C   UNL     1       5.954  12.869   1.744  0.00  0.00    +0.007 A 
ATOM     34  C   UNL     1       7.324  13.289   1.812  0.00  0.00    -0.029 A 
ATOM     35  C   UNL     1       7.632  14.805   1.805  0.00  0.00    +0.045 C 
ENDROOT
BRANCH  10   9
ATOM      4  C   UNL     1      12.221  13.816   4.280  0.00  0.00    +0.077 A 
ATOM      5  C   UNL     1      11.475  13.981   5.494  0.00  0.00    +0.048 A 
ATOM      6  C   UNL     1      10.099  13.660   5.459  0.00  0.00    +0.116 A 
ATOM      7  N   UNL     1       9.523  13.208   4.292  0.00  0.00    -0.223 NA
ATOM      8  C   UNL     1      10.271  13.061   3.138  0.00  0.00    +0.220 A 
ATOM      9  N   UNL     1       9.715  12.601   1.955  0.00  0.00    -0.283 N 
ATOM     36  H   UNL     1      10.298  12.514   1.123  0.00  0.00    +0.155 HD
ATOM     37  N   UNL     1      11.586  13.363   3.145  0.00  0.00    -0.214 NA
BRANCH   4   3
ATOM      1  C   UNL     1      15.724  15.527   4.600  0.00  0.00    +0.020 A 
ATOM      2  C   UNL     1      14.306  15.289   4.746  0.00  0.00    +0.013 A 
ATOM      3  C   UNL     1      13.684  14.110   4.158  0.00  0.00    +0.019 A 
ATOM     38  C   UNL     1      14.531  13.182   3.424  0.00  0.00    +0.120 A 
ATOM     39  N   UNL     1      15.893  13.437   3.299  0.00  0.00    -0.263 NA
ATOM     40  C   UNL     1      16.503  14.570   3.858  0.00  0.00    +0.111 A 
ENDBRANCH   4   3
ENDBRANCH  10   9
BRANCH  12  13
ATOM     13  N   UNL     1       6.198   9.083   1.846  0.00  0.00    -0.281 N 
ATOM     14  C   UNL     1       6.568   8.071   0.974  0.00  0.00    +0.248 C 
ATOM     30  O   UNL     1       7.152   8.250  -0.084  0.00  0.00    -0.270 OA
ATOM     31  H   UNL     1       5.550   8.820   2.589  0.00  0.00    +0.155 HD
BRANCH  14  15
ATOM     15  C   UNL     1       6.225   6.658   1.321  0.00  0.00    +0.037 A 
ATOM     16  C   UNL     1       4.910   6.306   1.862  0.00  0.00    +0.013 A 
ATOM     17  C   UNL     1       4.611   4.938   2.205  0.00  0.00    +0.005 A 
ATOM     18  C   UNL     1       5.631   3.911   2.005  0.00  0.00    -0.033 A 
ATOM     28  C   UNL     1       6.926   4.287   1.463  0.00  0.00    +0.005 A 
ATOM     29  C   UNL     1       7.222   5.627   1.127  0.00  0.00    +0.013 A 
BRANCH  18  19
ATOM     19  C   UNL     1       5.407   2.430   2.363  0.00  0.00    +0.119 C 
BRANCH  19  20
ATOM     20  N   UNL     1       5.792   1.992   3.738  0.00  0.00    -0.302 NA
ATOM     21  C   UNL     1       6.358   0.570   3.751  0.00  0.00    +0.066 C 
ATOM     22  C   UNL     1       6.776   0.137   5.194  0.00  0.00    -0.064 C 
ATOM     23  N   UNL     1       5.569   0.247   6.126  0.00  0.00    +0.379 N 
ATOM     24  C   UNL     1       5.944  -0.214   7.471  0.00  0.00    -0.096 C 
ATOM     25  H   UNL     1       4.780  -0.439   5.741  0.00  0.00    -0.082 HD
ATOM     26  C   UNL     1       4.998   1.658   6.117  0.00  0.00    -0.064 C 
ATOM     27  C   UNL     1       4.613   2.090   4.675  0.00  0.00    +0.066 C 
ENDBRANCH  19  20
ENDBRANCH  18  19
ENDBRANCH  14  15
ENDBRANCH  12  13
TORSDOF 6
ENDMDL
