MODEL 1
REMARK VINA RESULT:     -10.0      0.000      0.000
REMARK  Name = C:\Users\Docking\Desktop\test protocol\1iep_ligandH.pdb
REMARK  8 active torsions:
REMARK  status: ('A' for Active; 'I' for Inactive)
REMARK    1  A    between atoms: _5  and  _11
REMARK    2  A    between atoms: _19  and  _21
REMARK    3  A    between atoms: _22  and  _66
REMARK    4  A    between atoms: _27  and  _30
REMARK    5  A    between atoms: _32  and  _33
REMARK    6  A    between atoms: _38  and  _43
REMARK    7  A    between atoms: _43  and  _46
REMARK    8  A    between atoms: _53  and  _55
REMARK                            x       y       z     vdW  Elec       q    Type
REMARK                         _______ _______ _______ _____ _____    ______ ____
ROOT
ATOM     10  C   UNL     1      15.537  22.612  26.204  0.00  0.00    +0.038 A 
ATOM     11  C   UNL     1      14.816  22.575  27.425  0.00  0.00    +0.047 A 
ATOM     12  C   UNL     1      15.474  22.835  28.696  0.00  0.00    +0.035 A 
ATOM     32  C   UNL     1      16.868  23.132  28.686  0.00  0.00    +0.024 A 
ATOM     33  C   UNL     1      17.617  23.173  27.455  0.00  0.00    +0.007 A 
ATOM     34  C   UNL     1      16.974  22.915  26.198  0.00  0.00    -0.029 A 
ATOM     35  C   UNL     1      17.827  22.966  24.910  0.00  0.00    +0.045 C 
ENDROOT
BRANCH  10   9
ATOM      4  C   UNL     1      12.413  20.089  23.576  0.00  0.00    +0.077 A 
ATOM      5  C   UNL     1      12.136  19.191  24.660  0.00  0.00    +0.048 A 
ATOM      6  C   UNL     1      12.824  19.408  25.874  0.00  0.00    +0.116 A 
ATOM      7  N   UNL     1      13.720  20.450  25.986  0.00  0.00    -0.223 NA
ATOM      8  C   UNL     1      13.965  21.296  24.921  0.00  0.00    +0.220 A 
ATOM      9  N   UNL     1      14.855  22.355  25.013  0.00  0.00    -0.283 N 
ATOM     36  H   UNL     1      15.014  22.953  24.202  0.00  0.00    +0.155 HD
ATOM     37  N   UNL     1      13.322  21.109  23.749  0.00  0.00    -0.214 NA
BRANCH   4   3
ATOM      1  C   UNL     1       9.781  19.560  20.731  0.00  0.00    +0.020 A 
ATOM      2  C   UNL     1      10.360  19.640  22.052  0.00  0.00    +0.013 A 
ATOM      3  C   UNL     1      11.763  19.991  22.230  0.00  0.00    +0.019 A 
ATOM     38  C   UNL     1      12.560  20.257  21.042  0.00  0.00    +0.120 A 
ATOM     39  N   UNL     1      11.975  20.170  19.782  0.00  0.00    -0.263 NA
ATOM     40  C   UNL     1      10.626  19.832  19.598  0.00  0.00    +0.111 A 
ENDBRANCH   4   3
ENDBRANCH  10   9
BRANCH  12  13
ATOM     13  N   UNL     1      14.796  22.803  29.967  0.00  0.00    -0.281 N 
ATOM     14  C   UNL     1      13.747  21.984  30.353  0.00  0.00    +0.248 C 
ATOM     30  O   UNL     1      13.089  21.296  29.586  0.00  0.00    -0.270 OA
ATOM     31  H   UNL     1      15.128  23.465  30.669  0.00  0.00    +0.155 HD
BRANCH  14  15
ATOM     15  C   UNL     1      13.365  21.932  31.797  0.00  0.00    +0.037 A 
ATOM     16  C   UNL     1      13.521  23.100  32.667  0.00  0.00    +0.013 A 
ATOM     17  C   UNL     1      13.160  23.017  34.060  0.00  0.00    +0.005 A 
ATOM     18  C   UNL     1      12.638  21.761  34.592  0.00  0.00    -0.033 A 
ATOM     28  C   UNL     1      12.489  20.619  33.705  0.00  0.00    +0.005 A 
ATOM     29  C   UNL     1      12.842  20.695  32.339  0.00  0.00    +0.013 A 
BRANCH  18  19
ATOM     19  C   UNL     1      12.248  21.576  36.070  0.00  0.00    +0.119 C 
BRANCH  19  20
ATOM     20  N   UNL     1      12.905  22.472  37.068  0.00  0.00    -0.302 NA
ATOM     21  C   UNL     1      13.449  21.693  38.269  0.00  0.00    +0.066 C 
ATOM     22  C   UNL     1      14.153  22.643  39.292  0.00  0.00    -0.064 C 
ATOM     23  N   UNL     1      13.166  23.719  39.747  0.00  0.00    +0.379 N 
ATOM     24  C   UNL     1      13.807  24.579  40.752  0.00  0.00    -0.096 C 
ATOM     25  H   UNL     1      12.308  23.205  40.239  0.00  0.00    -0.082 HD
ATOM     26  C   UNL     1      12.618  24.497  38.558  0.00  0.00    -0.064 C 
ATOM     27  C   UNL     1      11.947  23.540  37.534  0.00  0.00    +0.066 C 
ENDBRANCH  19  20
ENDBRANCH  18  19
ENDBRANCH  14  15
ENDBRANCH  12  13
TORSDOF 6
ENDMDL
MODEL 2
REMARK VINA RESULT:      -9.9      1.174      1.742
REMARK  Name = C:\Users\Docking\Desktop\test protocol\1iep_ligandH.pdb
REMARK  8 active torsions:
REMARK  status: ('A' for Active; 'I' for Inactive)
REMARK    1  A    between atoms: _5  and  _11
REMARK    2  A    between atoms: _19  and  _21
REMARK    3  A    between atoms: _22  and  _66
REMARK    4  A    between atoms: _27  and  _30
REMARK    5  A    between atoms: _32  and  _33
REMARK    6  A    between atoms: _38  and  _43
REMARK    7  A    between atoms: _43  and  _46
REMARK    8  A    between atoms: _53  and  _55
REMARK                            x       y       z     vdW  Elec       q    Type
REMARK                         _______ _______ _______ _____ _____    ______ ____
ROOT
ATOM     10  C   UNL     1      15.493  22.584  26.119  0.00  0.00    +0.038 A 
ATOM     11  C   UNL     1      14.789  22.585  27.351  0.00  0.00    +0.047 A 
ATOM     12  C   UNL     1      15.473  22.846  28.608  0.00  0.00    +0.035 A 
ATOM     32  C   UNL     1      16.875  23.105  28.574  0.00  0.00    +0.024 A 
ATOM     33  C   UNL     1      17.606  23.107  27.331  0.00  0.00    +0.007 A 
ATOM     34  C   UNL     1      16.937  22.848  26.088  0.00  0.00    -0.029 A 
ATOM     35  C   UNL     1      17.772  22.856  24.787  0.00  0.00    +0.045 C 
ENDROOT
BRANCH  10   9
ATOM      4  C   UNL     1      12.332  20.049  23.547  0.00  0.00    +0.077 A 
ATOM      5  C   UNL     1      12.087  19.142  24.632  0.00  0.00    +0.048 A 
ATOM      6  C   UNL     1      12.801  19.358  25.832  0.00  0.00    +0.116 A 
ATOM      7  N   UNL     1      13.690  20.407  25.930  0.00  0.00    -0.223 NA
ATOM      8  C   UNL     1      13.903  21.262  24.864  0.00  0.00    +0.220 A 
ATOM      9  N   UNL     1      14.786  22.328  24.942  0.00  0.00    -0.283 N 
ATOM     36  H   UNL     1      14.921  22.931  24.132  0.00  0.00    +0.155 HD
ATOM     37  N   UNL     1      13.235  21.076  23.707  0.00  0.00    -0.214 NA
BRANCH   4   3
ATOM      1  C   UNL     1      11.642  20.083  19.697  0.00  0.00    +0.020 A 
ATOM      2  C   UNL     1      12.344  20.189  20.956  0.00  0.00    +0.013 A 
ATOM      3  C   UNL     1      11.653  19.953  22.217  0.00  0.00    +0.019 A 
ATOM     38  C   UNL     1      10.240  19.607  22.169  0.00  0.00    +0.120 A 
ATOM     39  N   UNL     1       9.590  19.514  20.943  0.00  0.00    -0.263 NA
ATOM     40  C   UNL     1      10.244  19.741  19.723  0.00  0.00    +0.111 A 
ENDBRANCH   4   3
ENDBRANCH  10   9
BRANCH  12  13
ATOM     13  N   UNL     1      14.813  22.852  29.890  0.00  0.00    -0.281 N 
ATOM     14  C   UNL     1      13.786  22.030  30.323  0.00  0.00    +0.248 C 
ATOM     30  O   UNL     1      13.130  21.301  29.593  0.00  0.00    -0.270 OA
ATOM     31  H   UNL     1      15.143  23.547  30.560  0.00  0.00    +0.155 HD
BRANCH  14  15
ATOM     15  C   UNL     1      13.425  22.027  31.773  0.00  0.00    +0.037 A 
ATOM     16  C   UNL     1      13.642  23.209  32.612  0.00  0.00    +0.013 A 
ATOM     17  C   UNL     1      13.301  23.174  34.012  0.00  0.00    +0.005 A 
ATOM     18  C   UNL     1      12.736  21.953  34.582  0.00  0.00    -0.033 A 
ATOM     28  C   UNL     1      12.526  20.797  33.725  0.00  0.00    +0.005 A 
ATOM     29  C   UNL     1      12.861  20.827  32.353  0.00  0.00    +0.013 A 
BRANCH  18  19
ATOM     19  C   UNL     1      12.362  21.819  36.070  0.00  0.00    +0.119 C 
BRANCH  19  20
ATOM     20  N   UNL     1      13.484  21.684  37.047  0.00  0.00    -0.302 NA
ATOM     21  C   UNL     1      14.052  23.044  37.461  0.00  0.00    +0.066 C 
ATOM     22  C   UNL     1      15.209  22.885  38.501  0.00  0.00    -0.064 C 
ATOM     23  N   UNL     1      16.305  21.998  37.908  0.00  0.00    +0.379 N 
ATOM     24  C   UNL     1      17.420  21.893  38.860  0.00  0.00    -0.096 C 
ATOM     25  H   UNL     1      16.689  22.502  36.991  0.00  0.00    -0.082 HD
ATOM     26  C   UNL     1      15.748  20.644  37.491  0.00  0.00    -0.064 C 
ATOM     27  C   UNL     1      14.579  20.815  36.480  0.00  0.00    +0.066 C 
ENDBRANCH  19  20
ENDBRANCH  18  19
ENDBRANCH  14  15
ENDBRANCH  12  13
TORSDOF 6
ENDMDL
MODEL 3
REMARK VINA RESULT:      -9.9      1.040      1.710
REMARK  Name = C:\Users\Docking\Desktop\test protocol\1iep_ligandH.pdb
REMARK  8 active torsions:
REMARK  status: ('A' for Active; 'I' for Inactive)
REMARK    1  A    between atoms: _5  and  _11
REMARK    2  A    between atoms: _19  and  _21
REMARK    3  A    between atoms: _22  and  _66
REMARK    4  A    between atoms: _27  and  _30
REMARK    5  A    between atoms: _32  and  _33
REMARK    6  A    between atoms: _38  and  _43
REMARK    7  A    between atoms: _43  and  _46
REMARK    8  A    between atoms: _53  and  _55
REMARK                            x       y       z     vdW  Elec       q    Type
REMARK                         _______ _______ _______ _____ _____    ______ ____
ROOT
ATOM     10  C   UNL     1      15.488  22.589  26.145  0.00  0.00    +0.038 A 
ATOM     11  C   UNL     1      14.782  22.578  27.374  0.00  0.00    +0.047 A 
ATOM     12  C   UNL     1      15.459  22.844  28.634  0.00  0.00    +0.035 A 
ATOM     32  C   UNL     1      16.858  23.119  28.603  0.00  0.00    +0.024 A 
ATOM     33  C   UNL     1      17.591  23.133  27.362  0.00  0.00    +0.007 A 
ATOM     34  C   UNL     1      16.928  22.870  26.117  0.00  0.00    -0.029 A 
ATOM     35  C   UNL     1      17.766  22.892  24.818  0.00  0.00    +0.045 C 
ENDROOT
BRANCH  10   9
ATOM      4  C   UNL     1      12.341  20.041  23.567  0.00  0.00    +0.077 A 
ATOM      5  C   UNL     1      12.093  19.138  24.654  0.00  0.00    +0.048 A 
ATOM      6  C   UNL     1      12.800  19.359  25.857  0.00  0.00    +0.116 A 
ATOM      7  N   UNL     1      13.688  20.409  25.954  0.00  0.00    -0.223 NA
ATOM      8  C   UNL     1      13.905  21.261  24.887  0.00  0.00    +0.220 A 
ATOM      9  N   UNL     1      14.787  22.328  24.965  0.00  0.00    -0.283 N 
ATOM     36  H   UNL     1      14.925  22.928  24.153  0.00  0.00    +0.155 HD
ATOM     37  N   UNL     1      13.243  21.069  23.727  0.00  0.00    -0.214 NA
BRANCH   4   3
ATOM      1  C   UNL     1       9.658  19.515  20.770  0.00  0.00    +0.020 A 
ATOM      2  C   UNL     1      10.259  19.599  22.081  0.00  0.00    +0.013 A 
ATOM      3  C   UNL     1      11.669  19.939  22.234  0.00  0.00    +0.019 A 
ATOM     38  C   UNL     1      12.447  20.190  21.030  0.00  0.00    +0.120 A 
ATOM     39  N   UNL     1      11.841  20.100  19.781  0.00  0.00    -0.263 NA
ATOM     40  C   UNL     1      10.487  19.772  19.622  0.00  0.00    +0.111 A 
ENDBRANCH   4   3
ENDBRANCH  10   9
BRANCH  12  13
ATOM     13  N   UNL     1      14.796  22.839  29.914  0.00  0.00    -0.281 N 
ATOM     14  C   UNL     1      13.760  22.020  30.333  0.00  0.00    +0.248 C 
ATOM     30  O   UNL     1      13.099  21.307  29.592  0.00  0.00    -0.270 OA
ATOM     31  H   UNL     1      15.131  23.521  30.594  0.00  0.00    +0.155 HD
BRANCH  14  15
ATOM     15  C   UNL     1      13.396  22.001  31.783  0.00  0.00    +0.037 A 
ATOM     16  C   UNL     1      12.757  20.831  32.391  0.00  0.00    +0.013 A 
ATOM     17  C   UNL     1      12.400  20.846  33.787  0.00  0.00    +0.005 A 
ATOM     18  C   UNL     1      12.683  22.036  34.586  0.00  0.00    -0.033 A 
ATOM     28  C   UNL     1      13.322  23.181  33.959  0.00  0.00    +0.005 A 
ATOM     29  C   UNL     1      13.672  23.170  32.590  0.00  0.00    +0.013 A 
BRANCH  18  19
ATOM     19  C   UNL     1      12.318  22.148  36.078  0.00  0.00    +0.119 C 
BRANCH  19  20
ATOM     20  N   UNL     1      13.410  21.911  37.069  0.00  0.00    -0.302 NA
ATOM     21  C   UNL     1      14.058  23.218  37.533  0.00  0.00    +0.066 C 
ATOM     22  C   UNL     1      15.183  22.954  38.586  0.00  0.00    -0.064 C 
ATOM     23  N   UNL     1      16.229  22.014  37.985  0.00  0.00    +0.379 N 
ATOM     24  C   UNL     1      17.318  21.809  38.952  0.00  0.00    -0.096 C 
ATOM     25  H   UNL     1      16.662  22.518  37.090  0.00  0.00    -0.082 HD
ATOM     26  C   UNL     1      15.593  20.712  37.518  0.00  0.00    -0.064 C 
ATOM     27  C   UNL     1      14.457  20.988  36.494  0.00  0.00    +0.066 C 
ENDBRANCH  19  20
ENDBRANCH  18  19
ENDBRANCH  14  15
ENDBRANCH  12  13
TORSDOF 6
ENDMDL
MODEL 4
REMARK VINA RESULT:      -9.6      2.761     13.073
REMARK  Name = C:\Users\Docking\Desktop\test protocol\1iep_ligandH.pdb
REMARK  8 active torsions:
REMARK  status: ('A' for Active; 'I' for Inactive)
REMARK    1  A    between atoms: _5  and  _11
REMARK    2  A    between atoms: _19  and  _21
REMARK    3  A    between atoms: _22  and  _66
REMARK    4  A    between atoms: _27  and  _30
REMARK    5  A    between atoms: _32  and  _33
REMARK    6  A    between atoms: _38  and  _43
REMARK    7  A    between atoms: _43  and  _46
REMARK    8  A    between atoms: _53  and  _55
REMARK                            x       y       z     vdW  Elec       q    Type
REMARK                         _______ _______ _______ _____ _____    ______ ____
ROOT
ATOM     10  C   UNL     1      15.381  22.817  26.749  0.00  0.00    +0.038 A 
ATOM     11  C   UNL     1      14.586  22.251  25.720  0.00  0.00    +0.047 A 
ATOM     12  C   UNL     1      15.052  22.217  24.342  0.00  0.00    +0.035 A 
ATOM     32  C   UNL     1      16.334  22.766  24.048  0.00  0.00    +0.024 A 
ATOM     33  C   UNL     1      17.154  23.347  25.082  0.00  0.00    +0.007 A 
ATOM     34  C   UNL     1      16.699  23.385  26.442  0.00  0.00    -0.029 A 
ATOM     35  C   UNL     1      17.619  24.026  27.508  0.00  0.00    +0.045 C 
ENDROOT
BRANCH  10   9
ATOM      4  C   UNL     1      13.632  20.587  30.622  0.00  0.00    +0.077 A 
ATOM      5  C   UNL     1      13.686  19.304  29.981  0.00  0.00    +0.048 A 
ATOM      6  C   UNL     1      14.163  19.263  28.652  0.00  0.00    +0.116 A 
ATOM      7  N   UNL     1      14.555  20.423  28.021  0.00  0.00    -0.223 NA
ATOM      8  C   UNL     1      14.489  21.644  28.667  0.00  0.00    +0.220 A 
ATOM      9  N   UNL     1      14.885  22.823  28.054  0.00  0.00    -0.283 N 
ATOM     36  H   UNL     1      14.814  23.704  28.562  0.00  0.00    +0.155 HD
ATOM     37  N   UNL     1      14.035  21.710  29.936  0.00  0.00    -0.214 NA
BRANCH   4   3
ATOM      1  C   UNL     1      12.298  22.240  33.906  0.00  0.00    +0.020 A 
ATOM      2  C   UNL     1      12.752  22.095  32.542  0.00  0.00    +0.013 A 
ATOM      3  C   UNL     1      13.154  20.793  32.026  0.00  0.00    +0.019 A 
ATOM     38  C   UNL     1      13.082  19.649  32.922  0.00  0.00    +0.120 A 
ATOM     39  N   UNL     1      12.642  19.819  34.230  0.00  0.00    -0.263 NA
ATOM     40  C   UNL     1      12.255  21.068  34.739  0.00  0.00    +0.111 A 
ENDBRANCH   4   3
ENDBRANCH  10   9
BRANCH  12  13
ATOM     13  N   UNL     1      14.285  21.662  23.254  0.00  0.00    -0.281 N 
ATOM     14  C   UNL     1      13.229  20.769  23.324  0.00  0.00    +0.248 C 
ATOM     30  O   UNL     1      12.920  20.142  24.327  0.00  0.00    -0.270 OA
ATOM     31  H   UNL     1      14.554  21.965  22.317  0.00  0.00    +0.155 HD
BRANCH  14  15
ATOM     15  C   UNL     1      12.407  20.524  22.100  0.00  0.00    +0.037 A 
ATOM     16  C   UNL     1      12.871  20.947  20.776  0.00  0.00    +0.013 A 
ATOM     17  C   UNL     1      12.050  20.714  19.614  0.00  0.00    +0.005 A 
ATOM     18  C   UNL     1      10.756  20.054  19.772  0.00  0.00    -0.033 A 
ATOM     28  C   UNL     1      10.323  19.641  21.096  0.00  0.00    +0.005 A 
ATOM     29  C   UNL     1      11.124  19.868  22.238  0.00  0.00    +0.013 A 
BRANCH  18  19
ATOM     19  C   UNL     1       9.806  19.785  18.590  0.00  0.00    +0.119 C 
BRANCH  19  20
ATOM     20  N   UNL     1      10.252  18.794  17.566  0.00  0.00    -0.302 NA
ATOM     21  C   UNL     1      10.894  17.558  18.204  0.00  0.00    +0.066 C 
ATOM     22  C   UNL     1      11.334  16.522  17.119  0.00  0.00    -0.064 C 
ATOM     23  N   UNL     1      12.301  17.191  16.141  0.00  0.00    +0.379 N 
ATOM     24  C   UNL     1      12.762  16.204  15.154  0.00  0.00    -0.096 C 
ATOM     25  H   UNL     1      13.190  17.529  16.723  0.00  0.00    -0.082 HD
ATOM     26  C   UNL     1      11.672  18.422  15.504  0.00  0.00    -0.064 C 
ATOM     27  C   UNL     1      11.211  19.432  16.592  0.00  0.00    +0.066 C 
ENDBRANCH  19  20
ENDBRANCH  18  19
ENDBRANCH  14  15
ENDBRANCH  12  13
TORSDOF 6
ENDMDL
MODEL 5
REMARK VINA RESULT:      -9.5      2.714     12.667
REMARK  Name = C:\Users\Docking\Desktop\test protocol\1iep_ligandH.pdb
REMARK  8 active torsions:
REMARK  status: ('A' for Active; 'I' for Inactive)
REMARK    1  A    between atoms: _5  and  _11
REMARK    2  A    between atoms: _19  and  _21
REMARK    3  A    between atoms: _22  and  _66
REMARK    4  A    between atoms: _27  and  _30
REMARK    5  A    between atoms: _32  and  _33
REMARK    6  A    between atoms: _38  and  _43
REMARK    7  A    between atoms: _43  and  _46
REMARK    8  A    between atoms: _53  and  _55
REMARK                            x       y       z     vdW  Elec       q    Type
REMARK                         _______ _______ _______ _____ _____    ______ ____
ROOT
ATOM     10  C   UNL     1      15.359  22.800  26.774  0.00  0.00    +0.038 A 
ATOM     11  C   UNL     1      14.564  22.202  25.763  0.00  0.00    +0.047 A 
ATOM     12  C   UNL     1      15.018  22.149  24.382  0.00  0.00    +0.035 A 
ATOM     32  C   UNL     1      16.288  22.714  24.066  0.00  0.00    +0.024 A 
ATOM     33  C   UNL     1      17.108  23.327  25.082  0.00  0.00    +0.007 A 
ATOM     34  C   UNL     1      16.665  23.384  26.445  0.00  0.00    -0.029 A 
ATOM     35  C   UNL     1      17.583  24.059  27.491  0.00  0.00    +0.045 C 
ENDROOT
BRANCH  10   9
ATOM      4  C   UNL     1      13.633  20.619  30.687  0.00  0.00    +0.077 A 
ATOM      5  C   UNL     1      13.675  19.330  30.059  0.00  0.00    +0.048 A 
ATOM      6  C   UNL     1      14.141  19.272  28.726  0.00  0.00    +0.116 A 
ATOM      7  N   UNL     1      14.532  20.424  28.079  0.00  0.00    -0.223 NA
ATOM      8  C   UNL     1      14.478  21.652  28.713  0.00  0.00    +0.220 A 
ATOM      9  N   UNL     1      14.874  22.822  28.084  0.00  0.00    -0.283 N 
ATOM     36  H   UNL     1      14.812  23.709  28.584  0.00  0.00    +0.155 HD
ATOM     37  N   UNL     1      14.036  21.734  29.985  0.00  0.00    -0.214 NA
BRANCH   4   3
ATOM      1  C   UNL     1      12.363  22.319  33.973  0.00  0.00    +0.020 A 
ATOM      2  C   UNL     1      12.806  22.157  32.607  0.00  0.00    +0.013 A 
ATOM      3  C   UNL     1      13.169  20.843  32.092  0.00  0.00    +0.019 A 
ATOM     38  C   UNL     1      13.071  19.703  32.992  0.00  0.00    +0.120 A 
ATOM     39  N   UNL     1      12.642  19.890  34.303  0.00  0.00    -0.263 NA
ATOM     40  C   UNL     1      12.292  21.150  34.810  0.00  0.00    +0.111 A 
ENDBRANCH   4   3
ENDBRANCH  10   9
BRANCH  12  13
ATOM     13  N   UNL     1      14.251  21.562  23.312  0.00  0.00    -0.281 N 
ATOM     14  C   UNL     1      13.145  20.733  23.411  0.00  0.00    +0.248 C 
ATOM     30  O   UNL     1      12.775  20.196  24.444  0.00  0.00    -0.270 OA
ATOM     31  H   UNL     1      14.560  21.785  22.365  0.00  0.00    +0.155 HD
BRANCH  14  15
ATOM     15  C   UNL     1      12.343  20.449  22.182  0.00  0.00    +0.037 A 
ATOM     16  C   UNL     1      11.043  19.778  22.262  0.00  0.00    +0.013 A 
ATOM     17  C   UNL     1      10.298  19.500  21.060  0.00  0.00    +0.005 A 
ATOM     18  C   UNL     1      10.851  19.896  19.767  0.00  0.00    -0.033 A 
ATOM     28  C   UNL     1      12.140  20.565  19.717  0.00  0.00    +0.005 A 
ATOM     29  C   UNL     1      12.874  20.838  20.893  0.00  0.00    +0.013 A 
BRANCH  18  19
ATOM     19  C   UNL     1      10.134  19.621  18.431  0.00  0.00    +0.119 C 
BRANCH  19  20
ATOM     20  N   UNL     1       9.343  20.740  17.837  0.00  0.00    -0.302 NA
ATOM     21  C   UNL     1      10.234  21.748  17.106  0.00  0.00    +0.066 C 
ATOM     22  C   UNL     1       9.388  22.900  16.471  0.00  0.00    -0.064 C 
ATOM     23  N   UNL     1       8.571  23.591  17.564  0.00  0.00    +0.379 N 
ATOM     24  C   UNL     1       7.819  24.711  16.980  0.00  0.00    -0.096 C 
ATOM     25  H   UNL     1       9.288  24.015  18.305  0.00  0.00    -0.082 HD
ATOM     26  C   UNL     1       7.684  22.595  18.297  0.00  0.00    -0.064 C 
ATOM     27  C   UNL     1       8.532  21.439  18.899  0.00  0.00    +0.066 C 
ENDBRANCH  19  20
ENDBRANCH  18  19
ENDBRANCH  14  15
ENDBRANCH  12  13
TORSDOF 6
ENDMDL
