MODEL 1
REMARK VINA RESULT:      -7.5      0.000      0.000
REMARK  Name = C:\Users\Docking\Desktop\test protocol\1iep_ligandH.pdb
REMARK  8 active torsions:
REMARK  status: ('A' for Active; 'I' for Inactive)
REMARK    1  A    between atoms: _5  and  _11
REMARK    2  A    between atoms: _19  and  _21
REMARK    3  A    between atoms: _22  and  _66
REMARK    4  A    between atoms: _27  and  _30
REMARK    5  A    between atoms: _32  and  _33
REMARK    6  A    between atoms: _38  and  _43
REMARK    7  A    between atoms: _43  and  _46
REMARK    8  A    between atoms: _53  and  _55
REMARK                            x       y       z     vdW  Elec       q    Type
REMARK                         _______ _______ _______ _____ _____    ______ ____
ROOT
ATOM     10  C   UNL     1      24.868   8.826  56.265  0.00  0.00    +0.038 A 
ATOM     11  C   UNL     1      24.247  10.079  56.496  0.00  0.00    +0.047 A 
ATOM     12  C   UNL     1      23.007  10.440  55.826  0.00  0.00    +0.035 A 
ATOM     32  C   UNL     1      22.426   9.497  54.928  0.00  0.00    +0.024 A 
ATOM     33  C   UNL     1      23.045   8.218  54.681  0.00  0.00    +0.007 A 
ATOM     34  C   UNL     1      24.269   7.859  55.338  0.00  0.00    -0.029 A 
ATOM     35  C   UNL     1      24.892   6.477  55.030  0.00  0.00    +0.045 C 
ENDROOT
BRANCH  10   9
ATOM      4  C   UNL     1      27.286   7.166  60.065  0.00  0.00    +0.077 A 
ATOM      5  C   UNL     1      26.078   6.884  60.785  0.00  0.00    +0.048 A 
ATOM      6  C   UNL     1      24.855   7.188  60.145  0.00  0.00    +0.116 A 
ATOM      7  N   UNL     1      24.853   7.732  58.879  0.00  0.00    -0.223 NA
ATOM      8  C   UNL     1      26.037   7.993  58.213  0.00  0.00    +0.220 A 
ATOM      9  N   UNL     1      26.058   8.532  56.936  0.00  0.00    -0.283 N 
ATOM     36  H   UNL     1      26.952   8.716  56.481  0.00  0.00    +0.155 HD
ATOM     37  N   UNL     1      27.217   7.713  58.803  0.00  0.00    -0.214 NA
BRANCH   4   3
ATOM      1  C   UNL     1      31.124   7.389  60.789  0.00  0.00    +0.020 A 
ATOM      2  C   UNL     1      29.823   7.690  60.238  0.00  0.00    +0.013 A 
ATOM      3  C   UNL     1      28.656   6.897  60.605  0.00  0.00    +0.019 A 
ATOM     38  C   UNL     1      28.842   5.799  61.541  0.00  0.00    +0.120 A 
ATOM     39  N   UNL     1      30.107   5.532  62.055  0.00  0.00    -0.263 NA
ATOM     40  C   UNL     1      31.237   6.287  61.707  0.00  0.00    +0.111 A 
ENDBRANCH   4   3
ENDBRANCH  10   9
BRANCH  12  13
ATOM     13  N   UNL     1      22.335  11.701  56.014  0.00  0.00    -0.281 N 
ATOM     14  C   UNL     1      21.238  11.970  56.817  0.00  0.00    +0.248 C 
ATOM     30  O   UNL     1      20.534  11.116  57.333  0.00  0.00    -0.270 OA
ATOM     31  H   UNL     1      22.713  12.492  55.492  0.00  0.00    +0.155 HD
BRANCH  14  15
ATOM     15  C   UNL     1      20.861  13.394  57.071  0.00  0.00    +0.037 A 
ATOM     16  C   UNL     1      19.465  13.784  57.281  0.00  0.00    +0.013 A 
ATOM     17  C   UNL     1      19.127  15.167  57.508  0.00  0.00    +0.005 A 
ATOM     18  C   UNL     1      20.189  16.170  57.526  0.00  0.00    -0.033 A 
ATOM     28  C   UNL     1      21.566  15.755  57.319  0.00  0.00    +0.005 A 
ATOM     29  C   UNL     1      21.901  14.400  57.096  0.00  0.00    +0.013 A 
BRANCH  18  19
ATOM     19  C   UNL     1      19.918  17.671  57.739  0.00  0.00    +0.119 C 
BRANCH  19  20
ATOM     20  N   UNL     1      18.856  18.301  56.898  0.00  0.00    -0.302 NA
ATOM     21  C   UNL     1      19.292  18.450  55.438  0.00  0.00    +0.066 C 
ATOM     22  C   UNL     1      18.161  19.089  54.568  0.00  0.00    -0.064 C 
ATOM     23  N   UNL     1      17.772  20.445  55.159  0.00  0.00    +0.379 N 
ATOM     24  C   UNL     1      16.750  21.075  54.311  0.00  0.00    -0.096 C 
ATOM     25  H   UNL     1      18.678  21.096  55.137  0.00  0.00    -0.082 HD
ATOM     26  C   UNL     1      17.340  20.307  56.611  0.00  0.00    -0.064 C 
ATOM     27  C   UNL     1      18.460  19.643  57.461  0.00  0.00    +0.066 C 
ENDBRANCH  19  20
ENDBRANCH  18  19
ENDBRANCH  14  15
ENDBRANCH  12  13
TORSDOF 6
ENDMDL
MODEL 2
REMARK VINA RESULT:      -7.4     24.484     27.682
REMARK  Name = C:\Users\Docking\Desktop\test protocol\1iep_ligandH.pdb
REMARK  8 active torsions:
REMARK  status: ('A' for Active; 'I' for Inactive)
REMARK    1  A    between atoms: _5  and  _11
REMARK    2  A    between atoms: _19  and  _21
REMARK    3  A    between atoms: _22  and  _66
REMARK    4  A    between atoms: _27  and  _30
REMARK    5  A    between atoms: _32  and  _33
REMARK    6  A    between atoms: _38  and  _43
REMARK    7  A    between atoms: _43  and  _46
REMARK    8  A    between atoms: _53  and  _55
REMARK                            x       y       z     vdW  Elec       q    Type
REMARK                         _______ _______ _______ _____ _____    ______ ____
ROOT
ATOM     10  C   UNL     1      21.331 -11.375  50.343  0.00  0.00    +0.038 A 
ATOM     11  C   UNL     1      21.122 -12.150  51.512  0.00  0.00    +0.047 A 
ATOM     12  C   UNL     1      19.929 -11.979  52.325  0.00  0.00    +0.035 A 
ATOM     32  C   UNL     1      18.966 -11.010  51.917  0.00  0.00    +0.024 A 
ATOM     33  C   UNL     1      19.162 -10.213  50.732  0.00  0.00    +0.007 A 
ATOM     34  C   UNL     1      20.339 -10.376  49.927  0.00  0.00    -0.029 A 
ATOM     35  C   UNL     1      20.500  -9.489  48.671  0.00  0.00    +0.045 C 
ENDROOT
BRANCH  10   9
ATOM      4  C   UNL     1      24.043 -13.981  47.361  0.00  0.00    +0.077 A 
ATOM      5  C   UNL     1      23.070 -15.034  47.302  0.00  0.00    +0.048 A 
ATOM      6  C   UNL     1      21.888 -14.869  48.059  0.00  0.00    +0.116 A 
ATOM      7  N   UNL     1      21.704 -13.732  48.815  0.00  0.00    -0.223 NA
ATOM      8  C   UNL     1      22.663 -12.736  48.851  0.00  0.00    +0.220 A 
ATOM      9  N   UNL     1      22.495 -11.581  49.599  0.00  0.00    -0.283 N 
ATOM     36  H   UNL     1      23.229 -10.873  49.605  0.00  0.00    +0.155 HD
ATOM     37  N   UNL     1      23.800 -12.871  48.139  0.00  0.00    -0.214 NA
BRANCH   4   3
ATOM      1  C   UNL     1      27.651 -14.921  46.178  0.00  0.00    +0.020 A 
ATOM      2  C   UNL     1      26.417 -14.937  46.930  0.00  0.00    +0.013 A 
ATOM      3  C   UNL     1      25.340 -14.007  46.615  0.00  0.00    +0.019 A 
ATOM     38  C   UNL     1      25.544 -13.067  45.523  0.00  0.00    +0.120 A 
ATOM     39  N   UNL     1      26.743 -13.074  44.817  0.00  0.00    -0.263 NA
ATOM     40  C   UNL     1      27.788 -13.963  45.113  0.00  0.00    +0.111 A 
ENDBRANCH   4   3
ENDBRANCH  10   9
BRANCH  12  13
ATOM     13  N   UNL     1      19.666 -12.732  53.527  0.00  0.00    -0.281 N 
ATOM     14  C   UNL     1      19.520 -14.103  53.658  0.00  0.00    +0.248 C 
ATOM     30  O   UNL     1      19.380 -14.876  52.722  0.00  0.00    -0.270 OA
ATOM     31  H   UNL     1      19.578 -12.188  54.385  0.00  0.00    +0.155 HD
BRANCH  14  15
ATOM     15  C   UNL     1      19.514 -14.701  55.028  0.00  0.00    +0.037 A 
ATOM     16  C   UNL     1      18.264 -15.103  55.676  0.00  0.00    +0.013 A 
ATOM     17  C   UNL     1      18.285 -15.662  57.005  0.00  0.00    +0.005 A 
ATOM     18  C   UNL     1      19.563 -15.823  57.694  0.00  0.00    -0.033 A 
ATOM     28  C   UNL     1      20.789 -15.420  57.025  0.00  0.00    +0.005 A 
ATOM     29  C   UNL     1      20.772 -14.872  55.723  0.00  0.00    +0.013 A 
BRANCH  18  19
ATOM     19  C   UNL     1      19.678 -16.390  59.121  0.00  0.00    +0.119 C 
BRANCH  19  20
ATOM     20  N   UNL     1      19.578 -15.421  60.252  0.00  0.00    -0.302 NA
ATOM     21  C   UNL     1      20.479 -15.813  61.426  0.00  0.00    +0.066 C 
ATOM     22  C   UNL     1      20.379 -14.776  62.592  0.00  0.00    -0.064 C 
ATOM     23  N   UNL     1      18.922 -14.659  63.043  0.00  0.00    +0.379 N 
ATOM     24  C   UNL     1      18.832 -13.728  64.178  0.00  0.00    -0.096 C 
ATOM     25  H   UNL     1      18.598 -15.664  63.403  0.00  0.00    -0.082 HD
ATOM     26  C   UNL     1      18.018 -14.273  61.881  0.00  0.00    -0.064 C 
ATOM     27  C   UNL     1      18.148 -15.294  60.717  0.00  0.00    +0.066 C 
ENDBRANCH  19  20
ENDBRANCH  18  19
ENDBRANCH  14  15
ENDBRANCH  12  13
TORSDOF 6
ENDMDL
MODEL 3
REMARK VINA RESULT:      -7.2     25.423     31.308
REMARK  Name = C:\Users\Docking\Desktop\test protocol\1iep_ligandH.pdb
REMARK  8 active torsions:
REMARK  status: ('A' for Active; 'I' for Inactive)
REMARK    1  A    between atoms: _5  and  _11
REMARK    2  A    between atoms: _19  and  _21
REMARK    3  A    between atoms: _22  and  _66
REMARK    4  A    between atoms: _27  and  _30
REMARK    5  A    between atoms: _32  and  _33
REMARK    6  A    between atoms: _38  and  _43
REMARK    7  A    between atoms: _43  and  _46
REMARK    8  A    between atoms: _53  and  _55
REMARK                            x       y       z     vdW  Elec       q    Type
REMARK                         _______ _______ _______ _____ _____    ______ ____
ROOT
ATOM     10  C   UNL     1      18.798  23.718  32.209  0.00  0.00    +0.038 A 
ATOM     11  C   UNL     1      19.658  22.813  31.536  0.00  0.00    +0.047 A 
ATOM     12  C   UNL     1      20.495  23.250  30.430  0.00  0.00    +0.035 A 
ATOM     32  C   UNL     1      20.433  24.618  30.036  0.00  0.00    +0.024 A 
ATOM     33  C   UNL     1      19.564  25.552  30.707  0.00  0.00    +0.007 A 
ATOM     34  C   UNL     1      18.734  25.126  31.798  0.00  0.00    -0.029 A 
ATOM     35  C   UNL     1      17.816  26.169  32.477  0.00  0.00    +0.045 C 
ENDROOT
BRANCH  10   9
ATOM      4  C   UNL     1      14.730  21.878  33.970  0.00  0.00    +0.077 A 
ATOM      5  C   UNL     1      14.099  21.886  32.681  0.00  0.00    +0.048 A 
ATOM      6  C   UNL     1      14.853  22.379  31.593  0.00  0.00    +0.116 A 
ATOM      7  N   UNL     1      16.142  22.826  31.789  0.00  0.00    -0.223 NA
ATOM      8  C   UNL     1      16.720  22.806  33.045  0.00  0.00    +0.220 A 
ATOM      9  N   UNL     1      18.017  23.244  33.265  0.00  0.00    -0.283 N 
ATOM     36  H   UNL     1      18.405  23.220  34.207  0.00  0.00    +0.155 HD
ATOM     37  N   UNL     1      16.020  22.342  34.101  0.00  0.00    -0.214 NA
BRANCH   4   3
ATOM      1  C   UNL     1      13.213  19.546  36.719  0.00  0.00    +0.020 A 
ATOM      2  C   UNL     1      13.861  19.969  35.500  0.00  0.00    +0.013 A 
ATOM      3  C   UNL     1      14.064  21.384  35.217  0.00  0.00    +0.019 A 
ATOM     38  C   UNL     1      13.597  22.353  36.197  0.00  0.00    +0.120 A 
ATOM     39  N   UNL     1      12.974  21.916  37.362  0.00  0.00    -0.263 NA
ATOM     40  C   UNL     1      12.772  20.556  37.644  0.00  0.00    +0.111 A 
ENDBRANCH   4   3
ENDBRANCH  10   9
BRANCH  12  13
ATOM     13  N   UNL     1      21.382  22.374  29.704  0.00  0.00    -0.281 N 
ATOM     14  C   UNL     1      21.825  21.115  30.074  0.00  0.00    +0.248 C 
ATOM     30  O   UNL     1      21.695  20.636  31.191  0.00  0.00    -0.270 OA
ATOM     31  H   UNL     1      21.724  22.725  28.810  0.00  0.00    +0.155 HD
BRANCH  14  15
ATOM     15  C   UNL     1      22.528  20.271  29.060  0.00  0.00    +0.037 A 
ATOM     16  C   UNL     1      21.898  19.072  28.502  0.00  0.00    +0.013 A 
ATOM     17  C   UNL     1      22.604  18.266  27.538  0.00  0.00    +0.005 A 
ATOM     18  C   UNL     1      23.950  18.658  27.125  0.00  0.00    -0.033 A 
ATOM     28  C   UNL     1      24.549  19.855  27.691  0.00  0.00    +0.005 A 
ATOM     29  C   UNL     1      23.860  20.647  28.637  0.00  0.00    +0.013 A 
BRANCH  18  19
ATOM     19  C   UNL     1      24.786  17.846  26.118  0.00  0.00    +0.119 C 
BRANCH  19  20
ATOM     20  N   UNL     1      24.101  17.388  24.873  0.00  0.00    -0.302 NA
ATOM     21  C   UNL     1      24.659  16.055  24.367  0.00  0.00    +0.066 C 
ATOM     22  C   UNL     1      23.915  15.580  23.076  0.00  0.00    -0.064 C 
ATOM     23  N   UNL     1      24.031  16.659  21.998  0.00  0.00    +0.379 N 
ATOM     24  C   UNL     1      23.383  16.191  20.764  0.00  0.00    -0.096 C 
ATOM     25  H   UNL     1      25.114  16.802  21.778  0.00  0.00    -0.082 HD
ATOM     26  C   UNL     1      23.481  17.989  22.494  0.00  0.00    -0.064 C 
ATOM     27  C   UNL     1      24.206  18.437  23.793  0.00  0.00    +0.066 C 
ENDBRANCH  19  20
ENDBRANCH  18  19
ENDBRANCH  14  15
ENDBRANCH  12  13
TORSDOF 6
ENDMDL
MODEL 4
REMARK VINA RESULT:      -7.2      3.851     12.541
REMARK  Name = C:\Users\Docking\Desktop\test protocol\1iep_ligandH.pdb
REMARK  8 active torsions:
REMARK  status: ('A' for Active; 'I' for Inactive)
REMARK    1  A    between atoms: _5  and  _11
REMARK    2  A    between atoms: _19  and  _21
REMARK    3  A    between atoms: _22  and  _66
REMARK    4  A    between atoms: _27  and  _30
REMARK    5  A    between atoms: _32  and  _33
REMARK    6  A    between atoms: _38  and  _43
REMARK    7  A    between atoms: _43  and  _46
REMARK    8  A    between atoms: _53  and  _55
REMARK                            x       y       z     vdW  Elec       q    Type
REMARK                         _______ _______ _______ _____ _____    ______ ____
ROOT
ATOM     10  C   UNL     1      24.334  15.958  56.598  0.00  0.00    +0.038 A 
ATOM     11  C   UNL     1      24.236  14.596  56.216  0.00  0.00    +0.047 A 
ATOM     12  C   UNL     1      25.266  13.636  56.582  0.00  0.00    +0.035 A 
ATOM     32  C   UNL     1      26.381  14.098  57.340  0.00  0.00    +0.024 A 
ATOM     33  C   UNL     1      26.497  15.479  57.736  0.00  0.00    +0.007 A 
ATOM     34  C   UNL     1      25.485  16.431  57.375  0.00  0.00    -0.029 A 
ATOM     35  C   UNL     1      25.664  17.901  57.821  0.00  0.00    +0.045 C 
ENDROOT
BRANCH  10   9
ATOM      4  C   UNL     1      19.937  17.815  57.110  0.00  0.00    +0.077 A 
ATOM      5  C   UNL     1      19.633  16.943  58.208  0.00  0.00    +0.048 A 
ATOM      6  C   UNL     1      20.632  16.026  58.605  0.00  0.00    +0.116 A 
ATOM      7  N   UNL     1      21.842  15.993  57.946  0.00  0.00    -0.223 NA
ATOM      8  C   UNL     1      22.103  16.847  56.890  0.00  0.00    +0.220 A 
ATOM      9  N   UNL     1      23.316  16.836  56.219  0.00  0.00    -0.283 N 
ATOM     36  H   UNL     1      23.467  17.477  55.440  0.00  0.00    +0.155 HD
ATOM     37  N   UNL     1      21.165  17.730  56.491  0.00  0.00    -0.214 NA
BRANCH   4   3
ATOM      1  C   UNL     1      17.736  19.966  54.696  0.00  0.00    +0.020 A 
ATOM      2  C   UNL     1      18.662  18.959  55.159  0.00  0.00    +0.013 A 
ATOM      3  C   UNL     1      18.986  18.840  56.576  0.00  0.00    +0.019 A 
ATOM     38  C   UNL     1      18.349  19.763  57.504  0.00  0.00    +0.120 A 
ATOM     39  N   UNL     1      17.463  20.724  57.028  0.00  0.00    -0.263 NA
ATOM     40  C   UNL     1      17.145  20.849  55.667  0.00  0.00    +0.111 A 
ENDBRANCH   4   3
ENDBRANCH  10   9
BRANCH  12  13
ATOM     13  N   UNL     1      25.225  12.242  56.216  0.00  0.00    -0.281 N 
ATOM     14  C   UNL     1      24.849  11.165  57.003  0.00  0.00    +0.248 C 
ATOM     30  O   UNL     1      24.694  11.215  58.214  0.00  0.00    -0.270 OA
ATOM     31  H   UNL     1      25.507  12.022  55.260  0.00  0.00    +0.155 HD
BRANCH  14  15
ATOM     15  C   UNL     1      24.627   9.838  56.352  0.00  0.00    +0.037 A 
ATOM     16  C   UNL     1      23.410   9.561  55.585  0.00  0.00    +0.013 A 
ATOM     17  C   UNL     1      23.213   8.267  54.982  0.00  0.00    +0.005 A 
ATOM     18  C   UNL     1      24.239   7.239  55.143  0.00  0.00    -0.033 A 
ATOM     28  C   UNL     1      25.439   7.542  55.904  0.00  0.00    +0.005 A 
ATOM     29  C   UNL     1      25.635   8.809  56.497  0.00  0.00    +0.013 A 
BRANCH  18  19
ATOM     19  C   UNL     1      24.103   5.823  54.552  0.00  0.00    +0.119 C 
BRANCH  19  20
ATOM     20  N   UNL     1      24.278   5.679  53.075  0.00  0.00    -0.302 NA
ATOM     21  C   UNL     1      22.990   5.998  52.311  0.00  0.00    +0.066 C 
ATOM     22  C   UNL     1      23.196   5.864  50.767  0.00  0.00    -0.064 C 
ATOM     23  N   UNL     1      23.683   4.451  50.441  0.00  0.00    +0.379 N 
ATOM     24  C   UNL     1      23.823   4.304  48.985  0.00  0.00    -0.096 C 
ATOM     25  H   UNL     1      22.898   3.736  50.780  0.00  0.00    -0.082 HD
ATOM     26  C   UNL     1      24.962   4.124  51.199  0.00  0.00    -0.064 C 
ATOM     27  C   UNL     1      24.754   4.289  52.731  0.00  0.00    +0.066 C 
ENDBRANCH  19  20
ENDBRANCH  18  19
ENDBRANCH  14  15
ENDBRANCH  12  13
TORSDOF 6
ENDMDL
MODEL 5
REMARK VINA RESULT:      -7.1      5.732     14.481
REMARK  Name = C:\Users\Docking\Desktop\test protocol\1iep_ligandH.pdb
REMARK  8 active torsions:
REMARK  status: ('A' for Active; 'I' for Inactive)
REMARK    1  A    between atoms: _5  and  _11
REMARK    2  A    between atoms: _19  and  _21
REMARK    3  A    between atoms: _22  and  _66
REMARK    4  A    between atoms: _27  and  _30
REMARK    5  A    between atoms: _32  and  _33
REMARK    6  A    between atoms: _38  and  _43
REMARK    7  A    between atoms: _43  and  _46
REMARK    8  A    between atoms: _53  and  _55
REMARK                            x       y       z     vdW  Elec       q    Type
REMARK                         _______ _______ _______ _____ _____    ______ ____
ROOT
ATOM     10  C   UNL     1      16.295  19.778  54.632  0.00  0.00    +0.038 A 
ATOM     11  C   UNL     1      17.680  19.501  54.765  0.00  0.00    +0.047 A 
ATOM     12  C   UNL     1      18.430  19.953  55.926  0.00  0.00    +0.035 A 
ATOM     32  C   UNL     1      17.737  20.683  56.935  0.00  0.00    +0.024 A 
ATOM     33  C   UNL     1      16.330  20.975  56.816  0.00  0.00    +0.007 A 
ATOM     34  C   UNL     1      15.586  20.533  55.672  0.00  0.00    -0.029 A 
ATOM     35  C   UNL     1      14.080  20.880  55.594  0.00  0.00    +0.045 C 
ENDROOT
BRANCH  10   9
ATOM      4  C   UNL     1      13.400  16.675  52.390  0.00  0.00    +0.077 A 
ATOM      5  C   UNL     1      13.230  15.885  53.576  0.00  0.00    +0.048 A 
ATOM      6  C   UNL     1      13.912  16.308  54.740  0.00  0.00    +0.116 A 
ATOM      7  N   UNL     1      14.700  17.438  54.709  0.00  0.00    -0.223 NA
ATOM      8  C   UNL     1      14.843  18.176  53.548  0.00  0.00    +0.220 A 
ATOM      9  N   UNL     1      15.624  19.320  53.496  0.00  0.00    -0.283 N 
ATOM     36  H   UNL     1      15.710  19.832  52.619  0.00  0.00    +0.155 HD
ATOM     37  N   UNL     1      14.204  17.792  52.423  0.00  0.00    -0.214 NA
BRANCH   4   3
ATOM      1  C   UNL     1      11.980  14.753  49.293  0.00  0.00    +0.020 A 
ATOM      2  C   UNL     1      12.625  15.004  50.562  0.00  0.00    +0.013 A 
ATOM      3  C   UNL     1      12.743  16.360  51.082  0.00  0.00    +0.019 A 
ATOM     38  C   UNL     1      12.193  17.449  50.289  0.00  0.00    +0.120 A 
ATOM     39  N   UNL     1      11.579  17.178  49.070  0.00  0.00    -0.263 NA
ATOM     40  C   UNL     1      11.462  15.877  48.558  0.00  0.00    +0.111 A 
ENDBRANCH   4   3
ENDBRANCH  10   9
BRANCH  12  13
ATOM     13  N   UNL     1      19.839  19.709  56.111  0.00  0.00    -0.281 N 
ATOM     14  C   UNL     1      20.441  18.814  56.981  0.00  0.00    +0.248 C 
ATOM     30  O   UNL     1      19.861  18.236  57.889  0.00  0.00    -0.270 OA
ATOM     31  H   UNL     1      20.469  20.263  55.531  0.00  0.00    +0.155 HD
BRANCH  14  15
ATOM     15  C   UNL     1      21.900  18.530  56.829  0.00  0.00    +0.037 A 
ATOM     16  C   UNL     1      22.897  19.206  57.663  0.00  0.00    +0.013 A 
ATOM     17  C   UNL     1      24.300  18.927  57.484  0.00  0.00    +0.005 A 
ATOM     18  C   UNL     1      24.714  17.965  56.466  0.00  0.00    -0.033 A 
ATOM     28  C   UNL     1      23.704  17.305  55.656  0.00  0.00    +0.005 A 
ATOM     29  C   UNL     1      22.328  17.577  55.828  0.00  0.00    +0.013 A 
BRANCH  18  19
ATOM     19  C   UNL     1      26.190  17.621  56.192  0.00  0.00    +0.119 C 
BRANCH  19  20
ATOM     20  N   UNL     1      26.514  16.197  55.882  0.00  0.00    -0.302 NA
ATOM     21  C   UNL     1      26.479  15.315  57.134  0.00  0.00    +0.066 C 
ATOM     22  C   UNL     1      26.799  13.824  56.788  0.00  0.00    -0.064 C 
ATOM     23  N   UNL     1      28.166  13.743  56.107  0.00  0.00    +0.379 N 
ATOM     24  C   UNL     1      28.495  12.336  55.833  0.00  0.00    -0.096 C 
ATOM     25  H   UNL     1      28.924  14.134  56.824  0.00  0.00    -0.082 HD
ATOM     26  C   UNL     1      28.210  14.619  54.863  0.00  0.00    -0.064 C 
ATOM     27  C   UNL     1      27.863  16.093  55.213  0.00  0.00    +0.066 C 
ENDBRANCH  19  20
ENDBRANCH  18  19
ENDBRANCH  14  15
ENDBRANCH  12  13
TORSDOF 6
ENDMDL
