MODEL 1
REMARK VINA RESULT:      -7.6      0.000      0.000
REMARK  Name = C:\Users\Docking\Desktop\test protocol\1iep_ligandH.pdb
REMARK  8 active torsions:
REMARK  status: ('A' for Active; 'I' for Inactive)
REMARK    1  A    between atoms: _5  and  _11
REMARK    2  A    between atoms: _19  and  _21
REMARK    3  A    between atoms: _22  and  _66
REMARK    4  A    between atoms: _27  and  _30
REMARK    5  A    between atoms: _32  and  _33
REMARK    6  A    between atoms: _38  and  _43
REMARK    7  A    between atoms: _43  and  _46
REMARK    8  A    between atoms: _53  and  _55
REMARK                            x       y       z     vdW  Elec       q    Type
REMARK                         _______ _______ _______ _____ _____    ______ ____
ROOT
ATOM     10  C   UNL     1     -26.052  85.554  90.588  0.00  0.00    +0.038 A 
ATOM     11  C   UNL     1     -25.416  84.326  90.274  0.00  0.00    +0.047 A 
ATOM     12  C   UNL     1     -24.251  84.282  89.404  0.00  0.00    +0.035 A 
ATOM     32  C   UNL     1     -23.759  85.510  88.873  0.00  0.00    +0.024 A 
ATOM     33  C   UNL     1     -24.393  86.767  89.181  0.00  0.00    +0.007 A 
ATOM     34  C   UNL     1     -25.544  86.816  90.037  0.00  0.00    -0.029 A 
ATOM     35  C   UNL     1     -26.188  88.192  90.328  0.00  0.00    +0.045 C 
ENDROOT
BRANCH  10   9
ATOM      4  C   UNL     1     -28.071  85.625  94.942  0.00  0.00    +0.077 A 
ATOM      5  C   UNL     1     -26.796  85.673  95.597  0.00  0.00    +0.048 A 
ATOM      6  C   UNL     1     -25.645  85.670  94.778  0.00  0.00    +0.116 A 
ATOM      7  N   UNL     1     -25.771  85.624  93.407  0.00  0.00    -0.223 NA
ATOM      8  C   UNL     1     -27.016  85.577  92.807  0.00  0.00    +0.220 A 
ATOM      9  N   UNL     1     -27.167  85.537  91.429  0.00  0.00    -0.283 N 
ATOM     36  H   UNL     1     -28.102  85.496  91.025  0.00  0.00    +0.155 HD
ATOM     37  N   UNL     1     -28.131  85.577  93.567  0.00  0.00    -0.214 NA
BRANCH   4   3
ATOM      1  C   UNL     1     -31.783  86.338  95.950  0.00  0.00    +0.020 A 
ATOM      2  C   UNL     1     -30.543  86.372  95.209  0.00  0.00    +0.013 A 
ATOM      3  C   UNL     1     -29.379  85.625  95.670  0.00  0.00    +0.019 A 
ATOM     38  C   UNL     1     -29.505  84.847  96.893  0.00  0.00    +0.120 A 
ATOM     39  N   UNL     1     -30.711  84.834  97.586  0.00  0.00    -0.263 NA
ATOM     40  C   UNL     1     -31.837  85.550  97.153  0.00  0.00    +0.111 A 
ENDBRANCH   4   3
ENDBRANCH  10   9
BRANCH  12  13
ATOM     13  N   UNL     1     -23.569  83.064  89.043  0.00  0.00    -0.281 N 
ATOM     14  C   UNL     1     -23.455  82.492  87.787  0.00  0.00    +0.248 C 
ATOM     30  O   UNL     1     -24.108  82.831  86.811  0.00  0.00    -0.270 OA
ATOM     31  H   UNL     1     -23.114  82.564  89.807  0.00  0.00    +0.155 HD
BRANCH  14  15
ATOM     15  C   UNL     1     -22.486  81.371  87.589  0.00  0.00    +0.037 A 
ATOM     16  C   UNL     1     -21.051  81.624  87.445  0.00  0.00    +0.013 A 
ATOM     17  C   UNL     1     -20.140  80.526  87.238  0.00  0.00    +0.005 A 
ATOM     18  C   UNL     1     -20.663  79.164  87.176  0.00  0.00    -0.033 A 
ATOM     28  C   UNL     1     -22.091  78.941  87.327  0.00  0.00    +0.005 A 
ATOM     29  C   UNL     1     -22.987  80.014  87.529  0.00  0.00    +0.013 A 
BRANCH  18  19
ATOM     19  C   UNL     1     -19.767  77.934  86.937  0.00  0.00    +0.119 C 
BRANCH  19  20
ATOM     20  N   UNL     1     -20.274  76.890  85.997  0.00  0.00    -0.302 NA
ATOM     21  C   UNL     1     -19.641  75.522  86.261  0.00  0.00    +0.066 C 
ATOM     22  C   UNL     1     -20.200  74.437  85.284  0.00  0.00    -0.064 C 
ATOM     23  N   UNL     1     -19.951  74.879  83.840  0.00  0.00    +0.379 N 
ATOM     24  C   UNL     1     -20.423  73.835  82.919  0.00  0.00    -0.096 C 
ATOM     25  H   UNL     1     -18.849  74.979  83.703  0.00  0.00    -0.082 HD
ATOM     26  C   UNL     1     -20.576  76.241  83.569  0.00  0.00    -0.064 C 
ATOM     27  C   UNL     1     -20.036  77.304  84.566  0.00  0.00    +0.066 C 
ENDBRANCH  19  20
ENDBRANCH  18  19
ENDBRANCH  14  15
ENDBRANCH  12  13
TORSDOF 6
ENDMDL
MODEL 2
REMARK VINA RESULT:      -7.6      2.717     12.698
REMARK  Name = C:\Users\Docking\Desktop\test protocol\1iep_ligandH.pdb
REMARK  8 active torsions:
REMARK  status: ('A' for Active; 'I' for Inactive)
REMARK    1  A    between atoms: _5  and  _11
REMARK    2  A    between atoms: _19  and  _21
REMARK    3  A    between atoms: _22  and  _66
REMARK    4  A    between atoms: _27  and  _30
REMARK    5  A    between atoms: _32  and  _33
REMARK    6  A    between atoms: _38  and  _43
REMARK    7  A    between atoms: _43  and  _46
REMARK    8  A    between atoms: _53  and  _55
REMARK                            x       y       z     vdW  Elec       q    Type
REMARK                         _______ _______ _______ _____ _____    ______ ____
ROOT
ATOM     10  C   UNL     1     -24.522  85.816  90.827  0.00  0.00    +0.038 A 
ATOM     11  C   UNL     1     -25.514  85.642  91.825  0.00  0.00    +0.047 A 
ATOM     12  C   UNL     1     -26.271  86.773  92.340  0.00  0.00    +0.035 A 
ATOM     32  C   UNL     1     -25.993  88.068  91.813  0.00  0.00    +0.024 A 
ATOM     33  C   UNL     1     -24.986  88.263  90.799  0.00  0.00    +0.007 A 
ATOM     34  C   UNL     1     -24.235  87.152  90.290  0.00  0.00    -0.029 A 
ATOM     35  C   UNL     1     -23.163  87.421  89.208  0.00  0.00    +0.045 C 
ENDROOT
BRANCH  10   9
ATOM      4  C   UNL     1     -23.639  82.433  87.539  0.00  0.00    +0.077 A 
ATOM      5  C   UNL     1     -24.671  82.924  86.671  0.00  0.00    +0.048 A 
ATOM      6  C   UNL     1     -25.411  84.044  87.112  0.00  0.00    +0.116 A 
ATOM      7  N   UNL     1     -25.130  84.623  88.330  0.00  0.00    -0.223 NA
ATOM      8  C   UNL     1     -24.130  84.124  89.143  0.00  0.00    +0.220 A 
ATOM      9  N   UNL     1     -23.825  84.696  90.369  0.00  0.00    -0.283 N 
ATOM     36  H   UNL     1     -23.084  84.293  90.943  0.00  0.00    +0.155 HD
ATOM     37  N   UNL     1     -23.410  83.054  88.746  0.00  0.00    -0.214 NA
BRANCH   4   3
ATOM      1  C   UNL     1     -21.483  79.810  85.597  0.00  0.00    +0.020 A 
ATOM      2  C   UNL     1     -22.323  80.956  85.858  0.00  0.00    +0.013 A 
ATOM      3  C   UNL     1     -22.769  81.259  87.212  0.00  0.00    +0.019 A 
ATOM     38  C   UNL     1     -22.344  80.376  88.288  0.00  0.00    +0.120 A 
ATOM     39  N   UNL     1     -21.536  79.279  88.006  0.00  0.00    -0.263 NA
ATOM     40  C   UNL     1     -21.102  78.977  86.706  0.00  0.00    +0.111 A 
ENDBRANCH   4   3
ENDBRANCH  10   9
BRANCH  12  13
ATOM     13  N   UNL     1     -27.285  86.658  93.358  0.00  0.00    -0.281 N 
ATOM     14  C   UNL     1     -28.443  85.898  93.325  0.00  0.00    +0.248 C 
ATOM     30  O   UNL     1     -28.891  85.365  92.321  0.00  0.00    -0.270 OA
ATOM     31  H   UNL     1     -27.131  87.203  94.206  0.00  0.00    +0.155 HD
BRANCH  14  15
ATOM     15  C   UNL     1     -29.224  85.717  94.587  0.00  0.00    +0.037 A 
ATOM     16  C   UNL     1     -30.518  86.375  94.781  0.00  0.00    +0.013 A 
ATOM     17  C   UNL     1     -31.243  86.197  96.014  0.00  0.00    +0.005 A 
ATOM     18  C   UNL     1     -30.674  85.354  97.063  0.00  0.00    -0.033 A 
ATOM     28  C   UNL     1     -29.391  84.708  96.842  0.00  0.00    +0.005 A 
ATOM     29  C   UNL     1     -28.678  84.881  95.635  0.00  0.00    +0.013 A 
BRANCH  18  19
ATOM     19  C   UNL     1     -31.368  85.125  98.419  0.00  0.00    +0.119 C 
BRANCH  19  20
ATOM     20  N   UNL     1     -32.378  84.028  98.493  0.00  0.00    -0.302 NA
ATOM     21  C   UNL     1     -31.779  82.668  98.121  0.00  0.00    +0.066 C 
ATOM     22  C   UNL     1     -32.844  81.529  98.226  0.00  0.00    -0.064 C 
ATOM     23  N   UNL     1     -34.034  81.862  97.324  0.00  0.00    +0.379 N 
ATOM     24  C   UNL     1     -35.011  80.765  97.375  0.00  0.00    -0.096 C 
ATOM     25  H   UNL     1     -33.656  81.929  96.277  0.00  0.00    -0.082 HD
ATOM     26  C   UNL     1     -34.634  83.213  97.685  0.00  0.00    -0.064 C 
ATOM     27  C   UNL     1     -33.560  84.334  97.607  0.00  0.00    +0.066 C 
ENDBRANCH  19  20
ENDBRANCH  18  19
ENDBRANCH  14  15
ENDBRANCH  12  13
TORSDOF 6
ENDMDL
MODEL 3
REMARK VINA RESULT:      -7.4     16.467     23.465
REMARK  Name = C:\Users\Docking\Desktop\test protocol\1iep_ligandH.pdb
REMARK  8 active torsions:
REMARK  status: ('A' for Active; 'I' for Inactive)
REMARK    1  A    between atoms: _5  and  _11
REMARK    2  A    between atoms: _19  and  _21
REMARK    3  A    between atoms: _22  and  _66
REMARK    4  A    between atoms: _27  and  _30
REMARK    5  A    between atoms: _32  and  _33
REMARK    6  A    between atoms: _38  and  _43
REMARK    7  A    between atoms: _43  and  _46
REMARK    8  A    between atoms: _53  and  _55
REMARK                            x       y       z     vdW  Elec       q    Type
REMARK                         _______ _______ _______ _____ _____    ______ ____
ROOT
ATOM     10  C   UNL     1     -29.284  63.467  86.750  0.00  0.00    +0.038 A 
ATOM     11  C   UNL     1     -30.305  63.869  87.649  0.00  0.00    +0.047 A 
ATOM     12  C   UNL     1     -30.460  65.261  88.039  0.00  0.00    +0.035 A 
ATOM     32  C   UNL     1     -29.558  66.220  87.492  0.00  0.00    +0.024 A 
ATOM     33  C   UNL     1     -28.514  65.830  86.577  0.00  0.00    +0.007 A 
ATOM     34  C   UNL     1     -28.355  64.457  86.191  0.00  0.00    -0.029 A 
ATOM     35  C   UNL     1     -27.214  64.094  85.212  0.00  0.00    +0.045 C 
ENDROOT
BRANCH  10   9
ATOM      4  C   UNL     1     -30.892  59.528  84.530  0.00  0.00    +0.077 A 
ATOM      5  C   UNL     1     -32.049  60.211  84.027  0.00  0.00    +0.048 A 
ATOM      6  C   UNL     1     -32.197  61.574  84.369  0.00  0.00    +0.116 A 
ATOM      7  N   UNL     1     -31.251  62.197  85.155  0.00  0.00    -0.223 NA
ATOM      8  C   UNL     1     -30.148  61.508  85.624  0.00  0.00    +0.220 A 
ATOM      9  N   UNL     1     -29.181  62.117  86.410  0.00  0.00    -0.283 N 
ATOM     36  H   UNL     1     -28.386  61.572  86.743  0.00  0.00    +0.155 HD
ATOM     37  N   UNL     1     -29.985  60.205  85.313  0.00  0.00    -0.214 NA
BRANCH   4   3
ATOM      1  C   UNL     1     -31.118  55.859  83.190  0.00  0.00    +0.020 A 
ATOM      2  C   UNL     1     -31.451  57.245  83.427  0.00  0.00    +0.013 A 
ATOM      3  C   UNL     1     -30.594  58.087  84.253  0.00  0.00    +0.019 A 
ATOM     38  C   UNL     1     -29.398  57.491  84.828  0.00  0.00    +0.120 A 
ATOM     39  N   UNL     1     -29.104  56.153  84.584  0.00  0.00    -0.263 NA
ATOM     40  C   UNL     1     -29.922  55.333  83.792  0.00  0.00    +0.111 A 
ENDBRANCH   4   3
ENDBRANCH  10   9
BRANCH  12  13
ATOM     13  N   UNL     1     -31.472  65.727  88.954  0.00  0.00    -0.281 N 
ATOM     14  C   UNL     1     -31.421  65.756  90.338  0.00  0.00    +0.248 C 
ATOM     30  O   UNL     1     -30.575  65.184  91.010  0.00  0.00    -0.270 OA
ATOM     31  H   UNL     1     -32.331  66.077  88.530  0.00  0.00    +0.155 HD
BRANCH  14  15
ATOM     15  C   UNL     1     -32.468  66.518  91.084  0.00  0.00    +0.037 A 
ATOM     16  C   UNL     1     -32.269  67.922  91.453  0.00  0.00    +0.013 A 
ATOM     17  C   UNL     1     -33.288  68.628  92.187  0.00  0.00    +0.005 A 
ATOM     18  C   UNL     1     -34.518  67.932  92.556  0.00  0.00    -0.033 A 
ATOM     28  C   UNL     1     -34.692  66.540  92.173  0.00  0.00    +0.005 A 
ATOM     29  C   UNL     1     -33.694  65.844  91.454  0.00  0.00    +0.013 A 
BRANCH  18  19
ATOM     19  C   UNL     1     -35.650  68.601  93.358  0.00  0.00    +0.119 C 
BRANCH  19  20
ATOM     20  N   UNL     1     -35.271  69.715  94.277  0.00  0.00    -0.302 NA
ATOM     21  C   UNL     1     -35.967  69.601  95.636  0.00  0.00    +0.066 C 
ATOM     22  C   UNL     1     -35.542  70.762  96.592  0.00  0.00    -0.064 C 
ATOM     23  N   UNL     1     -35.858  72.105  95.932  0.00  0.00    +0.379 N 
ATOM     24  C   UNL     1     -35.513  73.198  96.853  0.00  0.00    -0.096 C 
ATOM     25  H   UNL     1     -36.959  72.145  95.758  0.00  0.00    -0.082 HD
ATOM     26  C   UNL     1     -35.172  72.226  94.579  0.00  0.00    -0.064 C 
ATOM     27  C   UNL     1     -35.579  71.051  93.646  0.00  0.00    +0.066 C 
ENDBRANCH  19  20
ENDBRANCH  18  19
ENDBRANCH  14  15
ENDBRANCH  12  13
TORSDOF 6
ENDMDL
MODEL 4
REMARK VINA RESULT:      -7.4     22.690     26.299
REMARK  Name = C:\Users\Docking\Desktop\test protocol\1iep_ligandH.pdb
REMARK  8 active torsions:
REMARK  status: ('A' for Active; 'I' for Inactive)
REMARK    1  A    between atoms: _5  and  _11
REMARK    2  A    between atoms: _19  and  _21
REMARK    3  A    between atoms: _22  and  _66
REMARK    4  A    between atoms: _27  and  _30
REMARK    5  A    between atoms: _32  and  _33
REMARK    6  A    between atoms: _38  and  _43
REMARK    7  A    between atoms: _43  and  _46
REMARK    8  A    between atoms: _53  and  _55
REMARK                            x       y       z     vdW  Elec       q    Type
REMARK                         _______ _______ _______ _____ _____    ______ ____
ROOT
ATOM     10  C   UNL     1     -37.384  88.742  72.241  0.00  0.00    +0.038 A 
ATOM     11  C   UNL     1     -38.302  88.159  73.152  0.00  0.00    +0.047 A 
ATOM     12  C   UNL     1     -39.193  88.983  73.954  0.00  0.00    +0.035 A 
ATOM     32  C   UNL     1     -39.125  90.399  73.801  0.00  0.00    +0.024 A 
ATOM     33  C   UNL     1     -38.197  91.008  72.880  0.00  0.00    +0.007 A 
ATOM     34  C   UNL     1     -37.314  90.201  72.088  0.00  0.00    -0.029 A 
ATOM     35  C   UNL     1     -36.336  90.909  71.122  0.00  0.00    +0.045 C 
ENDROOT
BRANCH  10   9
ATOM      4  C   UNL     1     -36.543  85.841  68.511  0.00  0.00    +0.077 A 
ATOM      5  C   UNL     1     -37.882  85.988  68.019  0.00  0.00    +0.048 A 
ATOM      6  C   UNL     1     -38.759  86.813  68.759  0.00  0.00    +0.116 A 
ATOM      7  N   UNL     1     -38.318  87.440  69.904  0.00  0.00    -0.223 NA
ATOM      8  C   UNL     1     -37.020  87.276  70.352  0.00  0.00    +0.220 A 
ATOM      9  N   UNL     1     -36.552  87.904  71.497  0.00  0.00    -0.283 N 
ATOM     36  H   UNL     1     -35.590  87.751  71.798  0.00  0.00    +0.155 HD
ATOM     37  N   UNL     1     -36.164  86.492  69.664  0.00  0.00    -0.214 NA
BRANCH   4   3
ATOM      1  C   UNL     1     -34.360  84.072  65.790  0.00  0.00    +0.020 A 
ATOM      2  C   UNL     1     -35.387  84.892  66.390  0.00  0.00    +0.013 A 
ATOM      3  C   UNL     1     -35.499  85.006  67.838  0.00  0.00    +0.019 A 
ATOM     38  C   UNL     1     -34.547  84.271  68.659  0.00  0.00    +0.120 A 
ATOM     39  N   UNL     1     -33.569  83.488  68.053  0.00  0.00    -0.263 NA
ATOM     40  C   UNL     1     -33.453  83.370  66.660  0.00  0.00    +0.111 A 
ENDBRANCH   4   3
ENDBRANCH  10   9
BRANCH  12  13
ATOM     13  N   UNL     1     -40.139  88.448  74.901  0.00  0.00    -0.281 N 
ATOM     14  C   UNL     1     -41.480  88.167  74.699  0.00  0.00    +0.248 C 
ATOM     30  O   UNL     1     -42.125  88.536  73.728  0.00  0.00    -0.270 OA
ATOM     31  H   UNL     1     -39.776  88.252  75.834  0.00  0.00    +0.155 HD
BRANCH  14  15
ATOM     15  C   UNL     1     -42.216  87.375  75.731  0.00  0.00    +0.037 A 
ATOM     16  C   UNL     1     -42.477  85.945  75.547  0.00  0.00    +0.013 A 
ATOM     17  C   UNL     1     -43.204  85.207  76.550  0.00  0.00    +0.005 A 
ATOM     18  C   UNL     1     -43.673  85.899  77.748  0.00  0.00    -0.033 A 
ATOM     28  C   UNL     1     -43.395  87.317  77.907  0.00  0.00    +0.005 A 
ATOM     29  C   UNL     1     -42.684  88.044  76.926  0.00  0.00    +0.013 A 
BRANCH  18  19
ATOM     19  C   UNL     1     -44.474  85.197  78.860  0.00  0.00    +0.119 C 
BRANCH  19  20
ATOM     20  N   UNL     1     -45.944  85.039  78.648  0.00  0.00    -0.302 NA
ATOM     21  C   UNL     1     -46.728  85.150  79.959  0.00  0.00    +0.066 C 
ATOM     22  C   UNL     1     -48.266  85.005  79.717  0.00  0.00    -0.064 C 
ATOM     23  N   UNL     1     -48.547  83.669  79.028  0.00  0.00    +0.379 N 
ATOM     24  C   UNL     1     -49.997  83.504  78.851  0.00  0.00    -0.096 C 
ATOM     25  H   UNL     1     -48.195  82.858  79.707  0.00  0.00    -0.082 HD
ATOM     26  C   UNL     1     -47.770  83.550  77.725  0.00  0.00    -0.064 C 
ATOM     27  C   UNL     1     -46.245  83.724  77.973  0.00  0.00    +0.066 C 
ENDBRANCH  19  20
ENDBRANCH  18  19
ENDBRANCH  14  15
ENDBRANCH  12  13
TORSDOF 6
ENDMDL
MODEL 5
REMARK VINA RESULT:      -7.3     19.443     23.463
REMARK  Name = C:\Users\Docking\Desktop\test protocol\1iep_ligandH.pdb
REMARK  8 active torsions:
REMARK  status: ('A' for Active; 'I' for Inactive)
REMARK    1  A    between atoms: _5  and  _11
REMARK    2  A    between atoms: _19  and  _21
REMARK    3  A    between atoms: _22  and  _66
REMARK    4  A    between atoms: _27  and  _30
REMARK    5  A    between atoms: _32  and  _33
REMARK    6  A    between atoms: _38  and  _43
REMARK    7  A    between atoms: _43  and  _46
REMARK    8  A    between atoms: _53  and  _55
REMARK                            x       y       z     vdW  Elec       q    Type
REMARK                         _______ _______ _______ _____ _____    ______ ____
ROOT
ATOM     10  C   UNL     1     -44.155  89.985  78.243  0.00  0.00    +0.038 A 
ATOM     11  C   UNL     1     -43.310  90.402  79.302  0.00  0.00    +0.047 A 
ATOM     12  C   UNL     1     -42.133  91.218  79.049  0.00  0.00    +0.035 A 
ATOM     32  C   UNL     1     -41.848  91.594  77.703  0.00  0.00    +0.024 A 
ATOM     33  C   UNL     1     -42.697  91.178  76.614  0.00  0.00    +0.007 A 
ATOM     34  C   UNL     1     -43.858  90.371  76.858  0.00  0.00    -0.029 A 
ATOM     35  C   UNL     1     -44.728  89.948  75.651  0.00  0.00    +0.045 C 
ENDROOT
BRANCH  10   9
ATOM      4  C   UNL     1     -46.248  85.755  79.116  0.00  0.00    +0.077 A 
ATOM      5  C   UNL     1     -45.018  85.041  78.932  0.00  0.00    +0.048 A 
ATOM      6  C   UNL     1     -43.870  85.799  78.606  0.00  0.00    +0.116 A 
ATOM      7  N   UNL     1     -43.959  87.168  78.477  0.00  0.00    -0.223 NA
ATOM      8  C   UNL     1     -45.162  87.825  78.660  0.00  0.00    +0.220 A 
ATOM      9  N   UNL     1     -45.272  89.202  78.543  0.00  0.00    -0.283 N 
ATOM     36  H   UNL     1     -46.179  89.648  78.679  0.00  0.00    +0.155 HD
ATOM     37  N   UNL     1     -46.272  87.124  78.971  0.00  0.00    -0.214 NA
BRANCH   4   3
ATOM      1  C   UNL     1     -49.645  84.884  80.849  0.00  0.00    +0.020 A 
ATOM      2  C   UNL     1     -48.402  85.557  80.552  0.00  0.00    +0.013 A 
ATOM      3  C   UNL     1     -47.546  85.095  79.467  0.00  0.00    +0.019 A 
ATOM     38  C   UNL     1     -47.981  83.941  78.695  0.00  0.00    +0.120 A 
ATOM     39  N   UNL     1     -49.183  83.312  79.005  0.00  0.00    -0.263 NA
ATOM     40  C   UNL     1     -50.014  83.747  80.048  0.00  0.00    +0.111 A 
ENDBRANCH   4   3
ENDBRANCH  10   9
BRANCH  12  13
ATOM     13  N   UNL     1     -41.233  91.665  80.083  0.00  0.00    -0.281 N 
ATOM     14  C   UNL     1     -41.438  92.668  81.016  0.00  0.00    +0.248 C 
ATOM     30  O   UNL     1     -42.348  93.483  80.965  0.00  0.00    -0.270 OA
ATOM     31  H   UNL     1     -40.335  91.182  80.134  0.00  0.00    +0.155 HD
BRANCH  14  15
ATOM     15  C   UNL     1     -40.487  92.794  82.162  0.00  0.00    +0.037 A 
ATOM     16  C   UNL     1     -40.705  93.778  83.225  0.00  0.00    +0.013 A 
ATOM     17  C   UNL     1     -39.764  93.890  84.311  0.00  0.00    +0.005 A 
ATOM     18  C   UNL     1     -38.595  93.014  84.339  0.00  0.00    -0.033 A 
ATOM     28  C   UNL     1     -38.406  92.043  83.273  0.00  0.00    +0.005 A 
ATOM     29  C   UNL     1     -39.326  91.931  82.207  0.00  0.00    +0.013 A 
BRANCH  18  19
ATOM     19  C   UNL     1     -37.527  93.079  85.447  0.00  0.00    +0.119 C 
BRANCH  19  20
ATOM     20  N   UNL     1     -36.582  94.235  85.419  0.00  0.00    -0.302 NA
ATOM     21  C   UNL     1     -35.617  94.160  84.233  0.00  0.00    +0.066 C 
ATOM     22  C   UNL     1     -34.651  95.388  84.207  0.00  0.00    -0.064 C 
ATOM     23  N   UNL     1     -33.881  95.457  85.527  0.00  0.00    +0.379 N 
ATOM     24  C   UNL     1     -32.930  96.577  85.483  0.00  0.00    -0.096 C 
ATOM     25  H   UNL     1     -33.292  94.515  85.623  0.00  0.00    -0.082 HD
ATOM     26  C   UNL     1     -34.833  95.529  86.712  0.00  0.00    -0.064 C 
ATOM     27  C   UNL     1     -35.809  94.318  86.712  0.00  0.00    +0.066 C 
ENDBRANCH  19  20
ENDBRANCH  18  19
ENDBRANCH  14  15
ENDBRANCH  12  13
TORSDOF 6
ENDMDL
