MODEL 1
REMARK VINA RESULT:      -9.8      0.000      0.000
REMARK  Name = C:\Users\Docking\Desktop\test protocol\1iep_ligandH.pdb
REMARK  8 active torsions:
REMARK  status: ('A' for Active; 'I' for Inactive)
REMARK    1  A    between atoms: _5  and  _11
REMARK    2  A    between atoms: _19  and  _21
REMARK    3  A    between atoms: _22  and  _66
REMARK    4  A    between atoms: _27  and  _30
REMARK    5  A    between atoms: _32  and  _33
REMARK    6  A    between atoms: _38  and  _43
REMARK    7  A    between atoms: _43  and  _46
REMARK    8  A    between atoms: _53  and  _55
REMARK                            x       y       z     vdW  Elec       q    Type
REMARK                         _______ _______ _______ _____ _____    ______ ____
ROOT
ATOM     10  C   UNL     1     -61.871  78.424 110.450  0.00  0.00    +0.038 A 
ATOM     11  C   UNL     1     -61.384  77.293 109.747  0.00  0.00    +0.047 A 
ATOM     12  C   UNL     1     -59.962  76.988 109.704  0.00  0.00    +0.035 A 
ATOM     32  C   UNL     1     -59.064  77.856 110.391  0.00  0.00    +0.024 A 
ATOM     33  C   UNL     1     -59.542  79.011 111.110  0.00  0.00    +0.007 A 
ATOM     34  C   UNL     1     -60.943  79.318 111.154  0.00  0.00    -0.029 A 
ATOM     35  C   UNL     1     -61.399  80.572 111.935  0.00  0.00    +0.045 C 
ENDROOT
BRANCH  10   9
ATOM      4  C   UNL     1     -65.913  79.941 108.353  0.00  0.00    +0.077 A 
ATOM      5  C   UNL     1     -65.223  80.301 107.149  0.00  0.00    +0.048 A 
ATOM      6  C   UNL     1     -63.827  80.087 107.112  0.00  0.00    +0.116 A 
ATOM      7  N   UNL     1     -63.180  79.551 108.204  0.00  0.00    -0.223 NA
ATOM      8  C   UNL     1     -63.875  79.216 109.351  0.00  0.00    +0.220 A 
ATOM      9  N   UNL     1     -63.246  78.669 110.459  0.00  0.00    -0.283 N 
ATOM     36  H   UNL     1     -63.793  78.442 111.289  0.00  0.00    +0.155 HD
ATOM     37  N   UNL     1     -65.209  79.412 109.412  0.00  0.00    -0.214 NA
BRANCH   4   3
ATOM      1  C   UNL     1     -69.571  81.317 108.177  0.00  0.00    +0.020 A 
ATOM      2  C   UNL     1     -68.146  81.205 107.963  0.00  0.00    +0.013 A 
ATOM      3  C   UNL     1     -67.389  80.104 108.544  0.00  0.00    +0.019 A 
ATOM     38  C   UNL     1     -68.109  79.124 109.344  0.00  0.00    +0.120 A 
ATOM     39  N   UNL     1     -69.481  79.258 109.534  0.00  0.00    -0.263 NA
ATOM     40  C   UNL     1     -70.220  80.314 108.981  0.00  0.00    +0.111 A 
ENDBRANCH   4   3
ENDBRANCH  10   9
BRANCH  12  13
ATOM     13  N   UNL     1     -59.408  75.859 108.999  0.00  0.00    -0.281 N 
ATOM     14  C   UNL     1     -59.459  74.522 109.358  0.00  0.00    +0.248 C 
ATOM     30  O   UNL     1     -59.807  74.115 110.457  0.00  0.00    -0.270 OA
ATOM     31  H   UNL     1     -58.919  76.071 108.129  0.00  0.00    +0.155 HD
BRANCH  14  15
ATOM     15  C   UNL     1     -59.052  73.489 108.358  0.00  0.00    +0.037 A 
ATOM     16  C   UNL     1     -59.025  73.789 106.924  0.00  0.00    +0.013 A 
ATOM     17  C   UNL     1     -58.644  72.769 105.979  0.00  0.00    +0.005 A 
ATOM     18  C   UNL     1     -58.285  71.439 106.466  0.00  0.00    -0.033 A 
ATOM     28  C   UNL     1     -58.316  71.171 107.895  0.00  0.00    +0.005 A 
ATOM     29  C   UNL     1     -58.689  72.168 108.824  0.00  0.00    +0.013 A 
BRANCH  18  19
ATOM     19  C   UNL     1     -57.887  70.284 105.528  0.00  0.00    +0.119 C 
BRANCH  19  20
ATOM     20  N   UNL     1     -57.526  68.982 106.163  0.00  0.00    -0.302 NA
ATOM     21  C   UNL     1     -56.010  68.784 106.246  0.00  0.00    +0.066 C 
ATOM     22  C   UNL     1     -55.649  67.427 106.933  0.00  0.00    -0.064 C 
ATOM     23  N   UNL     1     -56.304  66.279 106.162  0.00  0.00    +0.379 N 
ATOM     24  C   UNL     1     -55.919  64.997 106.772  0.00  0.00    -0.096 C 
ATOM     25  H   UNL     1     -55.898  66.295 105.124  0.00  0.00    -0.082 HD
ATOM     26  C   UNL     1     -57.811  66.469 106.073  0.00  0.00    -0.064 C 
ATOM     27  C   UNL     1     -58.158  67.834 105.415  0.00  0.00    +0.066 C 
ENDBRANCH  19  20
ENDBRANCH  18  19
ENDBRANCH  14  15
ENDBRANCH  12  13
TORSDOF 6
ENDMDL
MODEL 2
REMARK VINA RESULT:      -7.7      1.551      2.131
REMARK  Name = C:\Users\Docking\Desktop\test protocol\1iep_ligandH.pdb
REMARK  8 active torsions:
REMARK  status: ('A' for Active; 'I' for Inactive)
REMARK    1  A    between atoms: _5  and  _11
REMARK    2  A    between atoms: _19  and  _21
REMARK    3  A    between atoms: _22  and  _66
REMARK    4  A    between atoms: _27  and  _30
REMARK    5  A    between atoms: _32  and  _33
REMARK    6  A    between atoms: _38  and  _43
REMARK    7  A    between atoms: _43  and  _46
REMARK    8  A    between atoms: _53  and  _55
REMARK                            x       y       z     vdW  Elec       q    Type
REMARK                         _______ _______ _______ _____ _____    ______ ____
ROOT
ATOM     10  C   UNL     1     -61.646  78.679 111.097  0.00  0.00    +0.038 A 
ATOM     11  C   UNL     1     -61.123  77.395 110.798  0.00  0.00    +0.047 A 
ATOM     12  C   UNL     1     -59.695  77.127 110.878  0.00  0.00    +0.035 A 
ATOM     32  C   UNL     1     -58.829  78.190 111.268  0.00  0.00    +0.024 A 
ATOM     33  C   UNL     1     -59.344  79.501 111.574  0.00  0.00    +0.007 A 
ATOM     34  C   UNL     1     -60.751  79.772 111.495  0.00  0.00    -0.029 A 
ATOM     35  C   UNL     1     -61.246  81.198 111.828  0.00  0.00    +0.045 C 
ENDROOT
BRANCH  10   9
ATOM      4  C   UNL     1     -65.596  79.851 108.635  0.00  0.00    +0.077 A 
ATOM      5  C   UNL     1     -64.846  80.109 107.440  0.00  0.00    +0.048 A 
ATOM      6  C   UNL     1     -63.445  79.936 107.502  0.00  0.00    +0.116 A 
ATOM      7  N   UNL     1     -62.850  79.533 108.678  0.00  0.00    -0.223 NA
ATOM      8  C   UNL     1     -63.602  79.294 109.813  0.00  0.00    +0.220 A 
ATOM      9  N   UNL     1     -63.025  78.880 111.004  0.00  0.00    -0.283 N 
ATOM     36  H   UNL     1     -63.614  78.721 111.821  0.00  0.00    +0.155 HD
ATOM     37  N   UNL     1     -64.941  79.453 109.779  0.00  0.00    -0.214 NA
BRANCH   4   3
ATOM      1  C   UNL     1     -69.326  79.398 109.722  0.00  0.00    +0.020 A 
ATOM      2  C   UNL     1     -67.892  79.229 109.674  0.00  0.00    +0.013 A 
ATOM      3  C   UNL     1     -67.084  79.986 108.726  0.00  0.00    +0.019 A 
ATOM     38  C   UNL     1     -67.764  80.913 107.834  0.00  0.00    +0.120 A 
ATOM     39  N   UNL     1     -69.146  81.053 107.902  0.00  0.00    -0.263 NA
ATOM     40  C   UNL     1     -69.934  80.329 108.809  0.00  0.00    +0.111 A 
ENDBRANCH   4   3
ENDBRANCH  10   9
BRANCH  12  13
ATOM     13  N   UNL     1     -59.105  75.846 110.578  0.00  0.00    -0.281 N 
ATOM     14  C   UNL     1     -58.648  75.383 109.355  0.00  0.00    +0.248 C 
ATOM     30  O   UNL     1     -58.875  75.925 108.283  0.00  0.00    -0.270 OA
ATOM     31  H   UNL     1     -59.013  75.201 111.364  0.00  0.00    +0.155 HD
BRANCH  14  15
ATOM     15  C   UNL     1     -57.835  74.130 109.314  0.00  0.00    +0.037 A 
ATOM     16  C   UNL     1     -57.131  73.643 110.503  0.00  0.00    +0.013 A 
ATOM     17  C   UNL     1     -56.339  72.440 110.433  0.00  0.00    +0.005 A 
ATOM     18  C   UNL     1     -56.248  71.716 109.167  0.00  0.00    -0.033 A 
ATOM     28  C   UNL     1     -56.960  72.220 108.004  0.00  0.00    +0.005 A 
ATOM     29  C   UNL     1     -57.737  73.398 108.070  0.00  0.00    +0.013 A 
BRANCH  18  19
ATOM     19  C   UNL     1     -55.409  70.436 108.994  0.00  0.00    +0.119 C 
BRANCH  19  20
ATOM     20  N   UNL     1     -55.954  69.378 108.092  0.00  0.00    -0.302 NA
ATOM     21  C   UNL     1     -56.773  68.336 108.859  0.00  0.00    +0.066 C 
ATOM     22  C   UNL     1     -57.354  67.249 107.897  0.00  0.00    -0.064 C 
ATOM     23  N   UNL     1     -56.209  66.582 107.133  0.00  0.00    +0.379 N 
ATOM     24  C   UNL     1     -56.746  65.520 106.270  0.00  0.00    -0.096 C 
ATOM     25  H   UNL     1     -55.537  66.102 107.883  0.00  0.00    -0.082 HD
ATOM     26  C   UNL     1     -55.387  67.612 106.370  0.00  0.00    -0.064 C 
ATOM     27  C   UNL     1     -54.839  68.704 107.331  0.00  0.00    +0.066 C 
ENDBRANCH  19  20
ENDBRANCH  18  19
ENDBRANCH  14  15
ENDBRANCH  12  13
TORSDOF 6
ENDMDL
MODEL 3
REMARK VINA RESULT:      -7.5      4.501      6.631
REMARK  Name = C:\Users\Docking\Desktop\test protocol\1iep_ligandH.pdb
REMARK  8 active torsions:
REMARK  status: ('A' for Active; 'I' for Inactive)
REMARK    1  A    between atoms: _5  and  _11
REMARK    2  A    between atoms: _19  and  _21
REMARK    3  A    between atoms: _22  and  _66
REMARK    4  A    between atoms: _27  and  _30
REMARK    5  A    between atoms: _32  and  _33
REMARK    6  A    between atoms: _38  and  _43
REMARK    7  A    between atoms: _43  and  _46
REMARK    8  A    between atoms: _53  and  _55
REMARK                            x       y       z     vdW  Elec       q    Type
REMARK                         _______ _______ _______ _____ _____    ______ ____
ROOT
ATOM     10  C   UNL     1     -59.898  78.235 107.202  0.00  0.00    +0.038 A 
ATOM     11  C   UNL     1     -59.497  76.960 106.727  0.00  0.00    +0.047 A 
ATOM     12  C   UNL     1     -59.631  75.772 107.556  0.00  0.00    +0.035 A 
ATOM     32  C   UNL     1     -60.180  75.919 108.863  0.00  0.00    +0.024 A 
ATOM     33  C   UNL     1     -60.592  77.207 109.362  0.00  0.00    +0.007 A 
ATOM     34  C   UNL     1     -60.459  78.383 108.550  0.00  0.00    -0.029 A 
ATOM     35  C   UNL     1     -60.911  79.739 109.140  0.00  0.00    +0.045 C 
ENDROOT
BRANCH  10   9
ATOM      4  C   UNL     1     -57.475  82.086 105.672  0.00  0.00    +0.077 A 
ATOM      5  C   UNL     1     -56.436  81.891 106.642  0.00  0.00    +0.048 A 
ATOM      6  C   UNL     1     -56.567  80.792 107.521  0.00  0.00    +0.116 A 
ATOM      7  N   UNL     1     -57.659  79.957 107.427  0.00  0.00    -0.223 NA
ATOM      8  C   UNL     1     -58.644  80.174 106.482  0.00  0.00    +0.220 A 
ATOM      9  N   UNL     1     -59.746  79.342 106.364  0.00  0.00    -0.283 N 
ATOM     36  H   UNL     1     -60.455  79.541 105.659  0.00  0.00    +0.155 HD
ATOM     37  N   UNL     1     -58.543  81.217 105.632  0.00  0.00    -0.214 NA
BRANCH   4   3
ATOM      1  C   UNL     1     -57.801  84.113 102.343  0.00  0.00    +0.020 A 
ATOM      2  C   UNL     1     -57.813  83.003 103.267  0.00  0.00    +0.013 A 
ATOM      3  C   UNL     1     -57.479  83.200 104.672  0.00  0.00    +0.019 A 
ATOM     38  C   UNL     1     -57.135  84.544 105.113  0.00  0.00    +0.120 A 
ATOM     39  N   UNL     1     -57.131  85.593 104.199  0.00  0.00    -0.263 NA
ATOM     40  C   UNL     1     -57.450  85.415 102.845  0.00  0.00    +0.111 A 
ENDBRANCH   4   3
ENDBRANCH  10   9
BRANCH  12  13
ATOM     13  N   UNL     1     -59.234  74.453 107.130  0.00  0.00    -0.281 N 
ATOM     14  C   UNL     1     -58.229  73.656 107.654  0.00  0.00    +0.248 C 
ATOM     30  O   UNL     1     -57.373  74.046 108.434  0.00  0.00    -0.270 OA
ATOM     31  H   UNL     1     -59.757  74.059 106.348  0.00  0.00    +0.155 HD
BRANCH  14  15
ATOM     15  C   UNL     1     -58.155  72.222 107.239  0.00  0.00    +0.037 A 
ATOM     16  C   UNL     1     -58.114  71.841 105.825  0.00  0.00    +0.013 A 
ATOM     17  C   UNL     1     -58.060  70.449 105.452  0.00  0.00    +0.005 A 
ATOM     18  C   UNL     1     -58.046  69.428 106.497  0.00  0.00    -0.033 A 
ATOM     28  C   UNL     1     -58.082  69.834 107.892  0.00  0.00    +0.005 A 
ATOM     29  C   UNL     1     -58.136  71.197 108.261  0.00  0.00    +0.013 A 
BRANCH  18  19
ATOM     19  C   UNL     1     -58.011  67.919 106.191  0.00  0.00    +0.119 C 
BRANCH  19  20
ATOM     20  N   UNL     1     -58.251  66.984 107.330  0.00  0.00    -0.302 NA
ATOM     21  C   UNL     1     -57.243  65.832 107.350  0.00  0.00    +0.066 C 
ATOM     22  C   UNL     1     -57.495  64.876 108.562  0.00  0.00    -0.064 C 
ATOM     23  N   UNL     1     -58.927  64.342 108.497  0.00  0.00    +0.379 N 
ATOM     24  C   UNL     1     -59.149  63.399 109.602  0.00  0.00    -0.096 C 
ATOM     25  H   UNL     1     -59.035  63.777 107.543  0.00  0.00    -0.082 HD
ATOM     26  C   UNL     1     -59.936  65.482 108.474  0.00  0.00    -0.064 C 
ATOM     27  C   UNL     1     -59.658  66.442 107.284  0.00  0.00    +0.066 C 
ENDBRANCH  19  20
ENDBRANCH  18  19
ENDBRANCH  14  15
ENDBRANCH  12  13
TORSDOF 6
ENDMDL
MODEL 4
REMARK VINA RESULT:      -7.3     23.519     28.708
REMARK  Name = C:\Users\Docking\Desktop\test protocol\1iep_ligandH.pdb
REMARK  8 active torsions:
REMARK  status: ('A' for Active; 'I' for Inactive)
REMARK    1  A    between atoms: _5  and  _11
REMARK    2  A    between atoms: _19  and  _21
REMARK    3  A    between atoms: _22  and  _66
REMARK    4  A    between atoms: _27  and  _30
REMARK    5  A    between atoms: _32  and  _33
REMARK    6  A    between atoms: _38  and  _43
REMARK    7  A    between atoms: _43  and  _46
REMARK    8  A    between atoms: _53  and  _55
REMARK                            x       y       z     vdW  Elec       q    Type
REMARK                         _______ _______ _______ _____ _____    ______ ____
ROOT
ATOM     10  C   UNL     1     -61.721  90.627  90.484  0.00  0.00    +0.038 A 
ATOM     11  C   UNL     1     -62.533  91.034  89.395  0.00  0.00    +0.047 A 
ATOM     12  C   UNL     1     -63.657  91.937  89.591  0.00  0.00    +0.035 A 
ATOM     32  C   UNL     1     -63.923  92.409  90.909  0.00  0.00    +0.024 A 
ATOM     33  C   UNL     1     -63.108  92.004  92.028  0.00  0.00    +0.007 A 
ATOM     34  C   UNL     1     -62.000  91.111  91.841  0.00  0.00    -0.029 A 
ATOM     35  C   UNL     1     -61.165  90.705  93.078  0.00  0.00    +0.045 C 
ENDROOT
BRANCH  10   9
ATOM      4  C   UNL     1     -59.937  86.257  89.611  0.00  0.00    +0.077 A 
ATOM      5  C   UNL     1     -61.235  85.649  89.676  0.00  0.00    +0.048 A 
ATOM      6  C   UNL     1     -62.335  86.495  89.943  0.00  0.00    +0.116 A 
ATOM      7  N   UNL     1     -62.139  87.847  90.129  0.00  0.00    -0.223 NA
ATOM      8  C   UNL     1     -60.874  88.400  90.062  0.00  0.00    +0.220 A 
ATOM      9  N   UNL     1     -60.655  89.758  90.239  0.00  0.00    -0.283 N 
ATOM     36  H   UNL     1     -59.706  90.126  90.189  0.00  0.00    +0.155 HD
ATOM     37  N   UNL     1     -59.807  87.614  89.810  0.00  0.00    -0.214 NA
BRANCH   4   3
ATOM      1  C   UNL     1     -56.326  85.314  88.438  0.00  0.00    +0.020 A 
ATOM      2  C   UNL     1     -57.519  86.093  88.682  0.00  0.00    +0.013 A 
ATOM      3  C   UNL     1     -58.677  85.496  89.334  0.00  0.00    +0.019 A 
ATOM     38  C   UNL     1     -58.596  84.099  89.732  0.00  0.00    +0.120 A 
ATOM     39  N   UNL     1     -57.435  83.374  89.483  0.00  0.00    -0.263 NA
ATOM     40  C   UNL     1     -56.314  83.937  88.854  0.00  0.00    +0.111 A 
ENDBRANCH   4   3
ENDBRANCH  10   9
BRANCH  12  13
ATOM     13  N   UNL     1     -64.521  92.379  88.525  0.00  0.00    -0.281 N 
ATOM     14  C   UNL     1     -64.161  92.975  87.327  0.00  0.00    +0.248 C 
ATOM     30  O   UNL     1     -63.047  93.415  87.082  0.00  0.00    -0.270 OA
ATOM     31  H   UNL     1     -65.521  92.235  88.670  0.00  0.00    +0.155 HD
BRANCH  14  15
ATOM     15  C   UNL     1     -65.189  93.115  86.252  0.00  0.00    +0.037 A 
ATOM     16  C   UNL     1     -64.913  93.876  85.030  0.00  0.00    +0.013 A 
ATOM     17  C   UNL     1     -65.928  94.009  84.016  0.00  0.00    +0.005 A 
ATOM     18  C   UNL     1     -67.231  93.379  84.219  0.00  0.00    -0.033 A 
ATOM     28  C   UNL     1     -67.476  92.626  85.438  0.00  0.00    +0.005 A 
ATOM     29  C   UNL     1     -66.483  92.493  86.435  0.00  0.00    +0.013 A 
BRANCH  18  19
ATOM     19  C   UNL     1     -68.380  93.488  83.200  0.00  0.00    +0.119 C 
BRANCH  19  20
ATOM     20  N   UNL     1     -69.250  94.699  83.277  0.00  0.00    -0.302 NA
ATOM     21  C   UNL     1     -70.192  94.655  84.484  0.00  0.00    +0.066 C 
ATOM     22  C   UNL     1     -71.078  95.940  84.561  0.00  0.00    -0.064 C 
ATOM     23  N   UNL     1     -71.871  96.089  83.261  0.00  0.00    +0.379 N 
ATOM     24  C   UNL     1     -72.749  97.265  83.354  0.00  0.00    -0.096 C 
ATOM     25  H   UNL     1     -72.520  95.189  83.156  0.00  0.00    -0.082 HD
ATOM     26  C   UNL     1     -70.942  96.131  82.056  0.00  0.00    -0.064 C 
ATOM     27  C   UNL     1     -70.045  94.863  82.005  0.00  0.00    +0.066 C 
ENDBRANCH  19  20
ENDBRANCH  18  19
ENDBRANCH  14  15
ENDBRANCH  12  13
TORSDOF 6
ENDMDL
MODEL 5
REMARK VINA RESULT:      -7.3     17.437     20.284
REMARK  Name = C:\Users\Docking\Desktop\test protocol\1iep_ligandH.pdb
REMARK  8 active torsions:
REMARK  status: ('A' for Active; 'I' for Inactive)
REMARK    1  A    between atoms: _5  and  _11
REMARK    2  A    between atoms: _19  and  _21
REMARK    3  A    between atoms: _22  and  _66
REMARK    4  A    between atoms: _27  and  _30
REMARK    5  A    between atoms: _32  and  _33
REMARK    6  A    between atoms: _38  and  _43
REMARK    7  A    between atoms: _43  and  _46
REMARK    8  A    between atoms: _53  and  _55
REMARK                            x       y       z     vdW  Elec       q    Type
REMARK                         _______ _______ _______ _____ _____    ______ ____
ROOT
ATOM     10  C   UNL     1     -77.878  65.002 102.064  0.00  0.00    +0.038 A 
ATOM     11  C   UNL     1     -77.154  65.368 103.227  0.00  0.00    +0.047 A 
ATOM     12  C   UNL     1     -76.036  64.567 103.700  0.00  0.00    +0.035 A 
ATOM     32  C   UNL     1     -75.680  63.401 102.962  0.00  0.00    +0.024 A 
ATOM     33  C   UNL     1     -76.406  63.013 101.778  0.00  0.00    +0.007 A 
ATOM     34  C   UNL     1     -77.512  63.798 101.308  0.00  0.00    -0.029 A 
ATOM     35  C   UNL     1     -78.258  63.332 100.036  0.00  0.00    +0.045 C 
ENDROOT
BRANCH  10   9
ATOM      4  C   UNL     1     -82.527  66.198 102.072  0.00  0.00    +0.077 A 
ATOM      5  C   UNL     1     -82.866  65.110 102.944  0.00  0.00    +0.048 A 
ATOM      6  C   UNL     1     -81.816  64.262 103.362  0.00  0.00    +0.116 A 
ATOM      7  N   UNL     1     -80.527  64.494 102.934  0.00  0.00    -0.223 NA
ATOM      8  C   UNL     1     -80.234  65.551 102.092  0.00  0.00    +0.220 A 
ATOM      9  N   UNL     1     -78.944  65.807 101.655  0.00  0.00    -0.283 N 
ATOM     36  H   UNL     1     -78.770  66.593 101.028  0.00  0.00    +0.155 HD
ATOM     37  N   UNL     1     -81.219  66.375 101.677  0.00  0.00    -0.214 NA
BRANCH   4   3
ATOM      1  C   UNL     1     -85.299  68.949 101.858  0.00  0.00    +0.020 A 
ATOM      2  C   UNL     1     -84.351  68.013 102.416  0.00  0.00    +0.013 A 
ATOM      3  C   UNL     1     -83.525  67.183 101.548  0.00  0.00    +0.019 A 
ATOM     38  C   UNL     1     -83.683  67.327 100.108  0.00  0.00    +0.120 A 
ATOM     39  N   UNL     1     -84.606  68.236  99.600  0.00  0.00    -0.263 NA
ATOM     40  C   UNL     1     -85.408  69.038 100.426  0.00  0.00    +0.111 A 
ENDBRANCH   4   3
ENDBRANCH  10   9
BRANCH  12  13
ATOM     13  N   UNL     1     -75.268  64.884 104.879  0.00  0.00    -0.281 N 
ATOM     14  C   UNL     1     -75.577  64.597 106.198  0.00  0.00    +0.248 C 
ATOM     30  O   UNL     1     -76.669  64.209 106.584  0.00  0.00    -0.270 OA
ATOM     31  H   UNL     1     -74.391  65.381 104.721  0.00  0.00    +0.155 HD
BRANCH  14  15
ATOM     15  C   UNL     1     -74.523  64.781 107.242  0.00  0.00    +0.037 A 
ATOM     16  C   UNL     1     -73.155  64.300 107.035  0.00  0.00    +0.013 A 
ATOM     17  C   UNL     1     -72.162  64.475 108.065  0.00  0.00    +0.005 A 
ATOM     18  C   UNL     1     -72.534  65.136 109.313  0.00  0.00    -0.033 A 
ATOM     28  C   UNL     1     -73.897  65.609 109.491  0.00  0.00    +0.005 A 
ATOM     29  C   UNL     1     -74.873  65.438 108.484  0.00  0.00    +0.013 A 
BRANCH  18  19
ATOM     19  C   UNL     1     -71.546  65.347 110.475  0.00  0.00    +0.119 C 
BRANCH  19  20
ATOM     20  N   UNL     1     -71.760  66.540 111.347  0.00  0.00    -0.302 NA
ATOM     21  C   UNL     1     -70.721  67.635 111.088  0.00  0.00    +0.066 C 
ATOM     22  C   UNL     1     -70.973  68.885 111.993  0.00  0.00    -0.064 C 
ATOM     23  N   UNL     1     -70.957  68.459 113.462  0.00  0.00    +0.379 N 
ATOM     24  C   UNL     1     -71.136  69.641 114.317  0.00  0.00    -0.096 C 
ATOM     25  H   UNL     1     -69.950  68.034 113.680  0.00  0.00    -0.082 HD
ATOM     26  C   UNL     1     -71.986  67.369 113.728  0.00  0.00    -0.064 C 
ATOM     27  C   UNL     1     -71.744  66.144 112.803  0.00  0.00    +0.066 C 
ENDBRANCH  19  20
ENDBRANCH  18  19
ENDBRANCH  14  15
ENDBRANCH  12  13
TORSDOF 6
ENDMDL
