MODEL 1
REMARK VINA RESULT:      -7.1      0.000      0.000
REMARK  Name = C:\Users\Docking\Desktop\test protocol\1iep_ligandH.pdb
REMARK  8 active torsions:
REMARK  status: ('A' for Active; 'I' for Inactive)
REMARK    1  A    between atoms: _5  and  _11
REMARK    2  A    between atoms: _19  and  _21
REMARK    3  A    between atoms: _22  and  _66
REMARK    4  A    between atoms: _27  and  _30
REMARK    5  A    between atoms: _32  and  _33
REMARK    6  A    between atoms: _38  and  _43
REMARK    7  A    between atoms: _43  and  _46
REMARK    8  A    between atoms: _53  and  _55
REMARK                            x       y       z     vdW  Elec       q    Type
REMARK                         _______ _______ _______ _____ _____    ______ ____
ROOT
ATOM     10  C   UNL     1     -19.601  12.288 -15.358  0.00  0.00    +0.038 A 
ATOM     11  C   UNL     1     -20.285  11.148 -15.853  0.00  0.00    +0.047 A 
ATOM     12  C   UNL     1     -19.705  10.316 -16.895  0.00  0.00    +0.035 A 
ATOM     32  C   UNL     1     -18.425  10.673 -17.410  0.00  0.00    +0.024 A 
ATOM     33  C   UNL     1     -17.716  11.829 -16.920  0.00  0.00    +0.007 A 
ATOM     34  C   UNL     1     -18.285  12.655 -15.893  0.00  0.00    -0.029 A 
ATOM     35  C   UNL     1     -17.483  13.886 -15.410  0.00  0.00    +0.045 C 
ENDROOT
BRANCH  10   9
ATOM      4  C   UNL     1     -22.535  15.795 -13.896  0.00  0.00    +0.077 A 
ATOM      5  C   UNL     1     -22.873  16.154 -15.243  0.00  0.00    +0.048 A 
ATOM      6  C   UNL     1     -22.264  15.417 -16.284  0.00  0.00    +0.116 A 
ATOM      7  N   UNL     1     -21.386  14.397 -15.988  0.00  0.00    -0.223 NA
ATOM      8  C   UNL     1     -21.080  14.078 -14.677  0.00  0.00    +0.220 A 
ATOM      9  N   UNL     1     -20.205  13.051 -14.356  0.00  0.00    -0.283 N 
ATOM     36  H   UNL     1     -20.000  12.851 -13.378  0.00  0.00    +0.155 HD
ATOM     37  N   UNL     1     -21.646  14.768 -13.666  0.00  0.00    -0.214 NA
BRANCH   4   3
ATOM      1  C   UNL     1     -23.361  16.755 -10.195  0.00  0.00    +0.020 A 
ATOM      2  C   UNL     1     -22.791  16.060 -11.327  0.00  0.00    +0.013 A 
ATOM      3  C   UNL     1     -23.097  16.478 -12.689  0.00  0.00    +0.019 A 
ATOM     38  C   UNL     1     -23.989  17.613 -12.873  0.00  0.00    +0.120 A 
ATOM     39  N   UNL     1     -24.524  18.262 -11.765  0.00  0.00    -0.263 NA
ATOM     40  C   UNL     1     -24.238  17.867 -10.449  0.00  0.00    +0.111 A 
ENDBRANCH   4   3
ENDBRANCH  10   9
BRANCH  12  13
ATOM     13  N   UNL     1     -20.356   9.152 -17.442  0.00  0.00    -0.281 N 
ATOM     14  C   UNL     1     -20.996   9.029 -18.665  0.00  0.00    +0.248 C 
ATOM     30  O   UNL     1     -21.291   9.969 -19.388  0.00  0.00    -0.270 OA
ATOM     31  H   UNL     1     -20.345   8.316 -16.857  0.00  0.00    +0.155 HD
BRANCH  14  15
ATOM     15  C   UNL     1     -21.373   7.666 -19.149  0.00  0.00    +0.037 A 
ATOM     16  C   UNL     1     -21.993   7.470 -20.462  0.00  0.00    +0.013 A 
ATOM     17  C   UNL     1     -22.364   6.147 -20.896  0.00  0.00    +0.005 A 
ATOM     18  C   UNL     1     -22.113   5.007 -20.017  0.00  0.00    -0.033 A 
ATOM     28  C   UNL     1     -21.492   5.230 -18.722  0.00  0.00    +0.005 A 
ATOM     29  C   UNL     1     -21.129   6.525 -18.291  0.00  0.00    +0.013 A 
BRANCH  18  19
ATOM     19  C   UNL     1     -22.495   3.563 -20.390  0.00  0.00    +0.119 C 
BRANCH  19  20
ATOM     20  N   UNL     1     -21.404   2.676 -20.895  0.00  0.00    -0.302 NA
ATOM     21  C   UNL     1     -20.675   1.957 -19.756  0.00  0.00    +0.066 C 
ATOM     22  C   UNL     1     -19.553   1.017 -20.303  0.00  0.00    -0.064 C 
ATOM     23  N   UNL     1     -18.571   1.835 -21.144  0.00  0.00    +0.379 N 
ATOM     24  C   UNL     1     -17.482   0.964 -21.612  0.00  0.00    -0.096 C 
ATOM     25  H   UNL     1     -18.123   2.610 -20.481  0.00  0.00    -0.082 HD
ATOM     26  C   UNL     1     -19.288   2.555 -22.277  0.00  0.00    -0.064 C 
ATOM     27  C   UNL     1     -20.421   3.464 -21.724  0.00  0.00    +0.066 C 
ENDBRANCH  19  20
ENDBRANCH  18  19
ENDBRANCH  14  15
ENDBRANCH  12  13
TORSDOF 6
ENDMDL
MODEL 2
REMARK VINA RESULT:      -7.1      1.045      1.599
REMARK  Name = C:\Users\Docking\Desktop\test protocol\1iep_ligandH.pdb
REMARK  8 active torsions:
REMARK  status: ('A' for Active; 'I' for Inactive)
REMARK    1  A    between atoms: _5  and  _11
REMARK    2  A    between atoms: _19  and  _21
REMARK    3  A    between atoms: _22  and  _66
REMARK    4  A    between atoms: _27  and  _30
REMARK    5  A    between atoms: _32  and  _33
REMARK    6  A    between atoms: _38  and  _43
REMARK    7  A    between atoms: _43  and  _46
REMARK    8  A    between atoms: _53  and  _55
REMARK                            x       y       z     vdW  Elec       q    Type
REMARK                         _______ _______ _______ _____ _____    ______ ____
ROOT
ATOM     10  C   UNL     1     -19.536  12.500 -15.219  0.00  0.00    +0.038 A 
ATOM     11  C   UNL     1     -20.176  11.354 -15.755  0.00  0.00    +0.047 A 
ATOM     12  C   UNL     1     -19.551  10.564 -16.805  0.00  0.00    +0.035 A 
ATOM     32  C   UNL     1     -18.270  10.969 -17.283  0.00  0.00    +0.024 A 
ATOM     33  C   UNL     1     -17.606  12.132 -16.750  0.00  0.00    +0.007 A 
ATOM     34  C   UNL     1     -18.219  12.916 -15.716  0.00  0.00    -0.029 A 
ATOM     35  C   UNL     1     -17.463  14.157 -15.186  0.00  0.00    +0.045 C 
ENDROOT
BRANCH  10   9
ATOM      4  C   UNL     1     -22.564  15.917 -13.738  0.00  0.00    +0.077 A 
ATOM      5  C   UNL     1     -22.864  16.317 -15.083  0.00  0.00    +0.048 A 
ATOM      6  C   UNL     1     -22.212  15.623 -16.127  0.00  0.00    +0.116 A 
ATOM      7  N   UNL     1     -21.329  14.606 -15.836  0.00  0.00    -0.223 NA
ATOM      8  C   UNL     1     -21.061  14.246 -14.528  0.00  0.00    +0.220 A 
ATOM      9  N   UNL     1     -20.182  13.221 -14.212  0.00  0.00    -0.283 N 
ATOM     36  H   UNL     1     -20.006  12.991 -13.235  0.00  0.00    +0.155 HD
ATOM     37  N   UNL     1     -21.669  14.895 -13.513  0.00  0.00    -0.214 NA
BRANCH   4   3
ATOM      1  C   UNL     1     -23.554  16.716 -10.039  0.00  0.00    +0.020 A 
ATOM      2  C   UNL     1     -22.940  16.066 -11.174  0.00  0.00    +0.013 A 
ATOM      3  C   UNL     1     -23.175  16.552 -12.528  0.00  0.00    +0.019 A 
ATOM     38  C   UNL     1     -24.042  17.708 -12.700  0.00  0.00    +0.120 A 
ATOM     39  N   UNL     1     -24.621  18.312 -11.589  0.00  0.00    -0.263 NA
ATOM     40  C   UNL     1     -24.403  17.853 -10.281  0.00  0.00    +0.111 A 
ENDBRANCH   4   3
ENDBRANCH  10   9
BRANCH  12  13
ATOM     13  N   UNL     1     -20.157   9.396 -17.393  0.00  0.00    -0.281 N 
ATOM     14  C   UNL     1     -21.059   9.342 -18.443  0.00  0.00    +0.248 C 
ATOM     30  O   UNL     1     -21.650  10.310 -18.897  0.00  0.00    -0.270 OA
ATOM     31  H   UNL     1     -19.887   8.500 -16.987  0.00  0.00    +0.155 HD
BRANCH  14  15
ATOM     15  C   UNL     1     -21.361   8.018 -19.068  0.00  0.00    +0.037 A 
ATOM     16  C   UNL     1     -20.941   6.765 -18.435  0.00  0.00    +0.013 A 
ATOM     17  C   UNL     1     -21.230   5.503 -19.069  0.00  0.00    +0.005 A 
ATOM     18  C   UNL     1     -21.944   5.488 -20.343  0.00  0.00    -0.033 A 
ATOM     28  C   UNL     1     -22.354   6.745 -20.946  0.00  0.00    +0.005 A 
ATOM     29  C   UNL     1     -22.072   7.984 -20.329  0.00  0.00    +0.013 A 
BRANCH  18  19
ATOM     19  C   UNL     1     -22.276   4.188 -21.100  0.00  0.00    +0.119 C 
BRANCH  19  20
ATOM     20  N   UNL     1     -21.382   3.811 -22.235  0.00  0.00    -0.302 NA
ATOM     21  C   UNL     1     -22.100   2.934 -23.265  0.00  0.00    +0.066 C 
ATOM     22  C   UNL     1     -21.157   2.568 -24.457  0.00  0.00    -0.064 C 
ATOM     23  N   UNL     1     -19.911   1.861 -23.919  0.00  0.00    +0.379 N 
ATOM     24  C   UNL     1     -19.049   1.463 -25.041  0.00  0.00    -0.096 C 
ATOM     25  H   UNL     1     -20.247   0.931 -23.403  0.00  0.00    -0.082 HD
ATOM     26  C   UNL     1     -19.193   2.724 -22.891  0.00  0.00    -0.064 C 
ATOM     27  C   UNL     1     -20.148   3.108 -21.727  0.00  0.00    +0.066 C 
ENDBRANCH  19  20
ENDBRANCH  18  19
ENDBRANCH  14  15
ENDBRANCH  12  13
TORSDOF 6
ENDMDL
MODEL 3
REMARK VINA RESULT:      -7.0     10.957     13.243
REMARK  Name = C:\Users\Docking\Desktop\test protocol\1iep_ligandH.pdb
REMARK  8 active torsions:
REMARK  status: ('A' for Active; 'I' for Inactive)
REMARK    1  A    between atoms: _5  and  _11
REMARK    2  A    between atoms: _19  and  _21
REMARK    3  A    between atoms: _22  and  _66
REMARK    4  A    between atoms: _27  and  _30
REMARK    5  A    between atoms: _32  and  _33
REMARK    6  A    between atoms: _38  and  _43
REMARK    7  A    between atoms: _43  and  _46
REMARK    8  A    between atoms: _53  and  _55
REMARK                            x       y       z     vdW  Elec       q    Type
REMARK                         _______ _______ _______ _____ _____    ______ ____
ROOT
ATOM     10  C   UNL     1     -15.023  13.615  -5.359  0.00  0.00    +0.038 A 
ATOM     11  C   UNL     1     -15.416  12.517  -6.167  0.00  0.00    +0.047 A 
ATOM     12  C   UNL     1     -16.815  12.142  -6.298  0.00  0.00    +0.035 A 
ATOM     32  C   UNL     1     -17.789  12.909  -5.594  0.00  0.00    +0.024 A 
ATOM     33  C   UNL     1     -17.407  14.027  -4.767  0.00  0.00    +0.007 A 
ATOM     34  C   UNL     1     -16.028  14.400  -4.632  0.00  0.00    -0.029 A 
ATOM     35  C   UNL     1     -15.676  15.604  -3.727  0.00  0.00    +0.045 C 
ENDROOT
BRANCH  10   9
ATOM      4  C   UNL     1     -10.667  13.058  -3.423  0.00  0.00    +0.077 A 
ATOM      5  C   UNL     1     -11.141  12.073  -2.493  0.00  0.00    +0.048 A 
ATOM      6  C   UNL     1     -12.514  11.744  -2.541  0.00  0.00    +0.116 A 
ATOM      7  N   UNL     1     -13.342  12.359  -3.455  0.00  0.00    -0.223 NA
ATOM      8  C   UNL     1     -12.853  13.305  -4.336  0.00  0.00    +0.220 A 
ATOM      9  N   UNL     1     -13.666  13.931  -5.269  0.00  0.00    -0.283 N 
ATOM     36  H   UNL     1     -13.268  14.629  -5.897  0.00  0.00    +0.155 HD
ATOM     37  N   UNL     1     -11.546  13.639  -4.310  0.00  0.00    -0.214 NA
BRANCH   4   3
ATOM      1  C   UNL     1      -6.787  13.107  -3.917  0.00  0.00    +0.020 A 
ATOM      2  C   UNL     1      -8.146  12.620  -3.859  0.00  0.00    +0.013 A 
ATOM      3  C   UNL     1      -9.241  13.510  -3.497  0.00  0.00    +0.019 A 
ATOM     38  C   UNL     1      -8.926  14.899  -3.198  0.00  0.00    +0.120 A 
ATOM     39  N   UNL     1      -7.608  15.340  -3.261  0.00  0.00    -0.263 NA
ATOM     40  C   UNL     1      -6.545  14.492  -3.606  0.00  0.00    +0.111 A 
ENDBRANCH   4   3
ENDBRANCH  10   9
BRANCH  12  13
ATOM     13  N   UNL     1     -17.273  11.033  -7.097  0.00  0.00    -0.281 N 
ATOM     14  C   UNL     1     -17.785   9.822  -6.660  0.00  0.00    +0.248 C 
ATOM     30  O   UNL     1     -17.729   9.424  -5.506  0.00  0.00    -0.270 OA
ATOM     31  H   UNL     1     -17.212  11.155  -8.108  0.00  0.00    +0.155 HD
BRANCH  14  15
ATOM     15  C   UNL     1     -18.443   8.916  -7.650  0.00  0.00    +0.037 A 
ATOM     16  C   UNL     1     -18.552   9.287  -9.064  0.00  0.00    +0.013 A 
ATOM     17  C   UNL     1     -19.206   8.403  -9.995  0.00  0.00    +0.005 A 
ATOM     18  C   UNL     1     -19.756   7.137  -9.515  0.00  0.00    -0.033 A 
ATOM     28  C   UNL     1     -19.629   6.792  -8.109  0.00  0.00    +0.005 A 
ATOM     29  C   UNL     1     -18.990   7.657  -7.193  0.00  0.00    +0.013 A 
BRANCH  18  19
ATOM     19  C   UNL     1     -20.489   6.142 -10.434  0.00  0.00    +0.119 C 
BRANCH  19  20
ATOM     20  N   UNL     1     -19.655   5.130 -11.149  0.00  0.00    -0.302 NA
ATOM     21  C   UNL     1     -20.073   4.973 -12.614  0.00  0.00    +0.066 C 
ATOM     22  C   UNL     1     -19.176   3.928 -13.353  0.00  0.00    -0.064 C 
ATOM     23  N   UNL     1     -19.253   2.586 -12.622  0.00  0.00    +0.379 N 
ATOM     24  C   UNL     1     -18.457   1.585 -13.347  0.00  0.00    -0.096 C 
ATOM     25  H   UNL     1     -20.316   2.252 -12.641  0.00  0.00    -0.082 HD
ATOM     26  C   UNL     1     -18.842   2.733 -11.164  0.00  0.00    -0.064 C 
ATOM     27  C   UNL     1     -19.721   3.796 -10.446  0.00  0.00    +0.066 C 
ENDBRANCH  19  20
ENDBRANCH  18  19
ENDBRANCH  14  15
ENDBRANCH  12  13
TORSDOF 6
ENDMDL
MODEL 4
REMARK VINA RESULT:      -6.9     21.528     24.895
REMARK  Name = C:\Users\Docking\Desktop\test protocol\1iep_ligandH.pdb
REMARK  8 active torsions:
REMARK  status: ('A' for Active; 'I' for Inactive)
REMARK    1  A    between atoms: _5  and  _11
REMARK    2  A    between atoms: _19  and  _21
REMARK    3  A    between atoms: _22  and  _66
REMARK    4  A    between atoms: _27  and  _30
REMARK    5  A    between atoms: _32  and  _33
REMARK    6  A    between atoms: _38  and  _43
REMARK    7  A    between atoms: _43  and  _46
REMARK    8  A    between atoms: _53  and  _55
REMARK                            x       y       z     vdW  Elec       q    Type
REMARK                         _______ _______ _______ _____ _____    ______ ____
ROOT
ATOM     10  C   UNL     1      -5.920   0.864  -4.854  0.00  0.00    +0.038 A 
ATOM     11  C   UNL     1      -5.166   2.042  -4.622  0.00  0.00    +0.047 A 
ATOM     12  C   UNL     1      -3.732   2.078  -4.861  0.00  0.00    +0.035 A 
ATOM     32  C   UNL     1      -3.097   0.895  -5.340  0.00  0.00    +0.024 A 
ATOM     33  C   UNL     1      -3.848  -0.313  -5.581  0.00  0.00    +0.007 A 
ATOM     34  C   UNL     1      -5.263  -0.354  -5.344  0.00  0.00    -0.029 A 
ATOM     35  C   UNL     1      -6.016  -1.678  -5.613  0.00  0.00    +0.045 C 
ENDROOT
BRANCH  10   9
ATOM      4  C   UNL     1      -9.703   0.433  -1.932  0.00  0.00    +0.077 A 
ATOM      5  C   UNL     1      -8.873   0.110  -0.808  0.00  0.00    +0.048 A 
ATOM      6  C   UNL     1      -7.478   0.058  -1.025  0.00  0.00    +0.116 A 
ATOM      7  N   UNL     1      -6.962   0.312  -2.278  0.00  0.00    -0.223 NA
ATOM      8  C   UNL     1      -7.791   0.619  -3.341  0.00  0.00    +0.220 A 
ATOM      9  N   UNL     1      -7.294   0.886  -4.608  0.00  0.00    -0.283 N 
ATOM     36  H   UNL     1      -7.939   1.101  -5.367  0.00  0.00    +0.155 HD
ATOM     37  N   UNL     1      -9.127   0.673  -3.160  0.00  0.00    -0.214 NA
BRANCH   4   3
ATOM      1  C   UNL     1     -13.514  -0.037  -2.677  0.00  0.00    +0.020 A 
ATOM      2  C   UNL     1     -12.079  -0.163  -2.790  0.00  0.00    +0.013 A 
ATOM      3  C   UNL     1     -11.195   0.529  -1.861  0.00  0.00    +0.019 A 
ATOM     38  C   UNL     1     -11.800   1.348  -0.821  0.00  0.00    +0.120 A 
ATOM     39  N   UNL     1     -13.185   1.452  -0.737  0.00  0.00    -0.263 NA
ATOM     40  C   UNL     1     -14.046   0.791  -1.627  0.00  0.00    +0.111 A 
ENDBRANCH   4   3
ENDBRANCH  10   9
BRANCH  12  13
ATOM     13  N   UNL     1      -2.913   3.243  -4.635  0.00  0.00    -0.281 N 
ATOM     14  C   UNL     1      -1.686   3.311  -3.996  0.00  0.00    +0.248 C 
ATOM     30  O   UNL     1      -1.203   2.408  -3.330  0.00  0.00    -0.270 OA
ATOM     31  H   UNL     1      -3.283   4.125  -4.990  0.00  0.00    +0.155 HD
BRANCH  14  15
ATOM     15  C   UNL     1      -0.886   4.569  -4.101  0.00  0.00    +0.037 A 
ATOM     16  C   UNL     1       0.409   4.592  -4.786  0.00  0.00    +0.013 A 
ATOM     17  C   UNL     1       1.168   5.815  -4.857  0.00  0.00    +0.005 A 
ATOM     18  C   UNL     1       0.632   7.027  -4.242  0.00  0.00    -0.033 A 
ATOM     28  C   UNL     1      -0.657   6.978  -3.573  0.00  0.00    +0.005 A 
ATOM     29  C   UNL     1      -1.403   5.780  -3.500  0.00  0.00    +0.013 A 
BRANCH  18  19
ATOM     19  C   UNL     1       1.384   8.372  -4.252  0.00  0.00    +0.119 C 
BRANCH  19  20
ATOM     20  N   UNL     1       0.790   9.492  -3.463  0.00  0.00    -0.302 NA
ATOM     21  C   UNL     1       0.752  10.799  -4.260  0.00  0.00    +0.066 C 
ATOM     22  C   UNL     1       0.108  11.955  -3.427  0.00  0.00    -0.064 C 
ATOM     23  N   UNL     1       0.887  12.138  -2.124  0.00  0.00    +0.379 N 
ATOM     24  C   UNL     1       0.319  13.262  -1.366  0.00  0.00    -0.096 C 
ATOM     25  H   UNL     1       1.936  12.406  -2.392  0.00  0.00    -0.082 HD
ATOM     26  C   UNL     1       0.932  10.842  -1.327  0.00  0.00    -0.064 C 
ATOM     27  C   UNL     1       1.547   9.693  -2.173  0.00  0.00    +0.066 C 
ENDBRANCH  19  20
ENDBRANCH  18  19
ENDBRANCH  14  15
ENDBRANCH  12  13
TORSDOF 6
ENDMDL
MODEL 5
REMARK VINA RESULT:      -6.8      4.258     12.386
REMARK  Name = C:\Users\Docking\Desktop\test protocol\1iep_ligandH.pdb
REMARK  8 active torsions:
REMARK  status: ('A' for Active; 'I' for Inactive)
REMARK    1  A    between atoms: _5  and  _11
REMARK    2  A    between atoms: _19  and  _21
REMARK    3  A    between atoms: _22  and  _66
REMARK    4  A    between atoms: _27  and  _30
REMARK    5  A    between atoms: _32  and  _33
REMARK    6  A    between atoms: _38  and  _43
REMARK    7  A    between atoms: _43  and  _46
REMARK    8  A    between atoms: _53  and  _55
REMARK                            x       y       z     vdW  Elec       q    Type
REMARK                         _______ _______ _______ _____ _____    ______ ____
ROOT
ATOM     10  C   UNL     1     -21.799   5.297 -17.551  0.00  0.00    +0.038 A 
ATOM     11  C   UNL     1     -21.217   6.530 -17.163  0.00  0.00    +0.047 A 
ATOM     12  C   UNL     1     -21.083   7.629 -18.107  0.00  0.00    +0.035 A 
ATOM     32  C   UNL     1     -21.556   7.437 -19.438  0.00  0.00    +0.024 A 
ATOM     33  C   UNL     1     -22.150   6.190 -19.849  0.00  0.00    +0.007 A 
ATOM     34  C   UNL     1     -22.282   5.101 -18.923  0.00  0.00    -0.029 A 
ATOM     35  C   UNL     1     -22.920   3.784 -19.421  0.00  0.00    +0.045 C 
ENDROOT
BRANCH  10   9
ATOM      4  C   UNL     1     -19.879   1.855 -14.811  0.00  0.00    +0.077 A 
ATOM      5  C   UNL     1     -18.564   2.093 -15.330  0.00  0.00    +0.048 A 
ATOM      6  C   UNL     1     -18.425   3.105 -16.306  0.00  0.00    +0.116 A 
ATOM      7  N   UNL     1     -19.526   3.820 -16.724  0.00  0.00    -0.223 NA
ATOM      8  C   UNL     1     -20.782   3.564 -16.204  0.00  0.00    +0.220 A 
ATOM      9  N   UNL     1     -21.902   4.276 -16.603  0.00  0.00    -0.283 N 
ATOM     36  H   UNL     1     -22.812   4.051 -16.201  0.00  0.00    +0.155 HD
ATOM     37  N   UNL     1     -20.941   2.601 -15.271  0.00  0.00    -0.214 NA
BRANCH   4   3
ATOM      1  C   UNL     1     -19.506  -0.956 -12.116  0.00  0.00    +0.020 A 
ATOM      2  C   UNL     1     -19.156   0.029 -13.113  0.00  0.00    +0.013 A 
ATOM      3  C   UNL     1     -20.187   0.821 -13.772  0.00  0.00    +0.019 A 
ATOM     38  C   UNL     1     -21.574   0.591 -13.396  0.00  0.00    +0.120 A 
ATOM     39  N   UNL     1     -21.881  -0.366 -12.433  0.00  0.00    -0.263 NA
ATOM     40  C   UNL     1     -20.898  -1.135 -11.794  0.00  0.00    +0.111 A 
ENDBRANCH   4   3
ENDBRANCH  10   9
BRANCH  12  13
ATOM     13  N   UNL     1     -20.493   8.902 -17.773  0.00  0.00    -0.281 N 
ATOM     14  C   UNL     1     -20.773   9.711 -16.684  0.00  0.00    +0.248 C 
ATOM     30  O   UNL     1     -21.732   9.562 -15.941  0.00  0.00    -0.270 OA
ATOM     31  H   UNL     1     -19.783   9.248 -18.418  0.00  0.00    +0.155 HD
BRANCH  14  15
ATOM     15  C   UNL     1     -19.865  10.859 -16.385  0.00  0.00    +0.037 A 
ATOM     16  C   UNL     1     -20.253  11.909 -15.439  0.00  0.00    +0.013 A 
ATOM     17  C   UNL     1     -19.365  13.015 -15.182  0.00  0.00    +0.005 A 
ATOM     18  C   UNL     1     -18.078  13.075 -15.871  0.00  0.00    -0.033 A 
ATOM     28  C   UNL     1     -17.716  12.018 -16.800  0.00  0.00    +0.005 A 
ATOM     29  C   UNL     1     -18.584  10.933 -17.056  0.00  0.00    +0.013 A 
BRANCH  18  19
ATOM     19  C   UNL     1     -17.077  14.229 -15.674  0.00  0.00    +0.119 C 
BRANCH  19  20
ATOM     20  N   UNL     1     -17.501  15.587 -16.128  0.00  0.00    -0.302 NA
ATOM     21  C   UNL     1     -17.765  15.632 -17.636  0.00  0.00    +0.066 C 
ATOM     22  C   UNL     1     -18.228  17.054 -18.091  0.00  0.00    -0.064 C 
ATOM     23  N   UNL     1     -17.168  18.083 -17.696  0.00  0.00    +0.379 N 
ATOM     24  C   UNL     1     -17.574  19.413 -18.174  0.00  0.00    -0.096 C 
ATOM     25  H   UNL     1     -16.221  17.811 -18.218  0.00  0.00    -0.082 HD
ATOM     26  C   UNL     1     -16.897  18.044 -16.199  0.00  0.00    -0.064 C 
ATOM     27  C   UNL     1     -16.466  16.619 -15.752  0.00  0.00    +0.066 C 
ENDBRANCH  19  20
ENDBRANCH  18  19
ENDBRANCH  14  15
ENDBRANCH  12  13
TORSDOF 6
ENDMDL
