MODEL 1
REMARK VINA RESULT:      -8.4      0.000      0.000
REMARK  Name = C:\Users\Docking\Desktop\test protocol\1iep_ligandH.pdb
REMARK  8 active torsions:
REMARK  status: ('A' for Active; 'I' for Inactive)
REMARK    1  A    between atoms: _5  and  _11
REMARK    2  A    between atoms: _19  and  _21
REMARK    3  A    between atoms: _22  and  _66
REMARK    4  A    between atoms: _27  and  _30
REMARK    5  A    between atoms: _32  and  _33
REMARK    6  A    between atoms: _38  and  _43
REMARK    7  A    between atoms: _43  and  _46
REMARK    8  A    between atoms: _53  and  _55
REMARK                            x       y       z     vdW  Elec       q    Type
REMARK                         _______ _______ _______ _____ _____    ______ ____
ROOT
ATOM     10  C   UNL     1      21.320   9.687  19.609  0.00  0.00    +0.038 A 
ATOM     11  C   UNL     1      20.511   8.785  20.346  0.00  0.00    +0.047 A 
ATOM     12  C   UNL     1      20.584   8.723  21.798  0.00  0.00    +0.035 A 
ATOM     32  C   UNL     1      21.489   9.597  22.467  0.00  0.00    +0.024 A 
ATOM     33  C   UNL     1      22.319  10.520  21.733  0.00  0.00    +0.007 A 
ATOM     34  C   UNL     1      22.254  10.584  20.301  0.00  0.00    -0.029 A 
ATOM     35  C   UNL     1      23.172  11.588  19.566  0.00  0.00    +0.045 C 
ENDROOT
BRANCH  10   9
ATOM      4  C   UNL     1      19.287  11.228  15.543  0.00  0.00    +0.077 A 
ATOM      5  C   UNL     1      18.348  12.047  16.253  0.00  0.00    +0.048 A 
ATOM      6  C   UNL     1      18.417  12.038  17.665  0.00  0.00    +0.116 A 
ATOM      7  N   UNL     1      19.359  11.264  18.307  0.00  0.00    -0.223 NA
ATOM      8  C   UNL     1      20.249  10.484  17.592  0.00  0.00    +0.220 A 
ATOM      9  N   UNL     1      21.210   9.705  18.217  0.00  0.00    -0.283 N 
ATOM     36  H   UNL     1      21.843   9.137  17.654  0.00  0.00    +0.155 HD
ATOM     37  N   UNL     1      20.203  10.474  16.243  0.00  0.00    -0.214 NA
BRANCH   4   3
ATOM      1  C   UNL     1      18.263  10.879  11.784  0.00  0.00    +0.020 A 
ATOM      2  C   UNL     1      18.155  10.964  13.222  0.00  0.00    +0.013 A 
ATOM      3  C   UNL     1      19.343  11.133  14.050  0.00  0.00    +0.019 A 
ATOM     38  C   UNL     1      20.635  11.214  13.386  0.00  0.00    +0.120 A 
ATOM     39  N   UNL     1      20.709  11.127  11.999  0.00  0.00    -0.263 NA
ATOM     40  C   UNL     1      19.573  10.962  11.192  0.00  0.00    +0.111 A 
ENDBRANCH   4   3
ENDBRANCH  10   9
BRANCH  12  13
ATOM     13  N   UNL     1      19.793   7.822  22.599  0.00  0.00    -0.281 N 
ATOM     14  C   UNL     1      20.062   7.360  23.877  0.00  0.00    +0.248 C 
ATOM     30  O   UNL     1      21.136   7.486  24.446  0.00  0.00    -0.270 OA
ATOM     31  H   UNL     1      18.931   7.482  22.172  0.00  0.00    +0.155 HD
BRANCH  14  15
ATOM     15  C   UNL     1      18.986   6.642  24.626  0.00  0.00    +0.037 A 
ATOM     16  C   UNL     1      18.651   7.003  26.006  0.00  0.00    +0.013 A 
ATOM     17  C   UNL     1      17.620   6.283  26.712  0.00  0.00    +0.005 A 
ATOM     18  C   UNL     1      16.916   5.196  26.037  0.00  0.00    -0.033 A 
ATOM     28  C   UNL     1      17.265   4.862  24.666  0.00  0.00    +0.005 A 
ATOM     29  C   UNL     1      18.275   5.565  23.972  0.00  0.00    +0.013 A 
BRANCH  18  19
ATOM     19  C   UNL     1      15.818   4.360  26.720  0.00  0.00    +0.119 C 
BRANCH  19  20
ATOM     20  N   UNL     1      14.400   4.709  26.409  0.00  0.00    -0.302 NA
ATOM     21  C   UNL     1      14.185   4.961  24.914  0.00  0.00    +0.066 C 
ATOM     22  C   UNL     1      12.691   5.303  24.603  0.00  0.00    -0.064 C 
ATOM     23  N   UNL     1      12.269   6.523  25.424  0.00  0.00    +0.379 N 
ATOM     24  C   UNL     1      10.883   6.882  25.090  0.00  0.00    -0.096 C 
ATOM     25  H   UNL     1      12.922   7.375  25.123  0.00  0.00    -0.082 HD
ATOM     26  C   UNL     1      12.482   6.282  26.911  0.00  0.00    -0.064 C 
ATOM     27  C   UNL     1      13.963   5.914  27.206  0.00  0.00    +0.066 C 
ENDBRANCH  19  20
ENDBRANCH  18  19
ENDBRANCH  14  15
ENDBRANCH  12  13
TORSDOF 6
ENDMDL
MODEL 2
REMARK VINA RESULT:      -8.3      4.372     11.152
REMARK  Name = C:\Users\Docking\Desktop\test protocol\1iep_ligandH.pdb
REMARK  8 active torsions:
REMARK  status: ('A' for Active; 'I' for Inactive)
REMARK    1  A    between atoms: _5  and  _11
REMARK    2  A    between atoms: _19  and  _21
REMARK    3  A    between atoms: _22  and  _66
REMARK    4  A    between atoms: _27  and  _30
REMARK    5  A    between atoms: _32  and  _33
REMARK    6  A    between atoms: _38  and  _43
REMARK    7  A    between atoms: _43  and  _46
REMARK    8  A    between atoms: _53  and  _55
REMARK                            x       y       z     vdW  Elec       q    Type
REMARK                         _______ _______ _______ _____ _____    ______ ____
ROOT
ATOM     10  C   UNL     1      10.816   4.473  24.165  0.00  0.00    +0.038 A 
ATOM     11  C   UNL     1      12.151   4.946  24.091  0.00  0.00    +0.047 A 
ATOM     12  C   UNL     1      12.944   5.154  25.293  0.00  0.00    +0.035 A 
ATOM     32  C   UNL     1      12.346   4.866  26.554  0.00  0.00    +0.024 A 
ATOM     33  C   UNL     1      10.990   4.386  26.648  0.00  0.00    +0.007 A 
ATOM     34  C   UNL     1      10.202   4.182  25.466  0.00  0.00    -0.029 A 
ATOM     35  C   UNL     1       8.752   3.671  25.626  0.00  0.00    +0.045 C 
ENDROOT
BRANCH  10   9
ATOM      4  C   UNL     1       7.740   5.983  20.804  0.00  0.00    +0.077 A 
ATOM      5  C   UNL     1       7.518   7.227  21.483  0.00  0.00    +0.048 A 
ATOM      6  C   UNL     1       8.209   7.437  22.697  0.00  0.00    +0.116 A 
ATOM      7  N   UNL     1       9.057   6.467  23.187  0.00  0.00    -0.223 NA
ATOM      8  C   UNL     1       9.247   5.277  22.509  0.00  0.00    +0.220 A 
ATOM      9  N   UNL     1      10.101   4.292  22.979  0.00  0.00    -0.283 N 
ATOM     36  H   UNL     1      10.209   3.425  22.453  0.00  0.00    +0.155 HD
ATOM     37  N   UNL     1       8.598   5.053  21.348  0.00  0.00    -0.214 NA
BRANCH   4   3
ATOM      1  C   UNL     1       6.859   4.183  17.445  0.00  0.00    +0.020 A 
ATOM      2  C   UNL     1       7.527   4.496  18.687  0.00  0.00    +0.013 A 
ATOM      3  C   UNL     1       7.085   5.615  19.509  0.00  0.00    +0.019 A 
ATOM     38  C   UNL     1       5.955   6.404  19.042  0.00  0.00    +0.120 A 
ATOM     39  N   UNL     1       5.332   6.080  17.841  0.00  0.00    -0.263 NA
ATOM     40  C   UNL     1       5.750   5.006  17.041  0.00  0.00    +0.111 A 
ENDBRANCH   4   3
ENDBRANCH  10   9
BRANCH  12  13
ATOM     13  N   UNL     1      14.301   5.640  25.280  0.00  0.00    -0.281 N 
ATOM     14  C   UNL     1      15.423   5.049  25.840  0.00  0.00    +0.248 C 
ATOM     30  O   UNL     1      15.392   4.113  26.624  0.00  0.00    -0.270 OA
ATOM     31  H   UNL     1      14.454   6.527  24.801  0.00  0.00    +0.155 HD
BRANCH  14  15
ATOM     15  C   UNL     1      16.773   5.585  25.487  0.00  0.00    +0.037 A 
ATOM     16  C   UNL     1      17.461   5.165  24.264  0.00  0.00    +0.013 A 
ATOM     17  C   UNL     1      18.770   5.685  23.957  0.00  0.00    +0.005 A 
ATOM     18  C   UNL     1      19.399   6.632  24.875  0.00  0.00    -0.033 A 
ATOM     28  C   UNL     1      18.691   7.035  26.078  0.00  0.00    +0.005 A 
ATOM     29  C   UNL     1      17.408   6.527  26.383  0.00  0.00    +0.013 A 
BRANCH  18  19
ATOM     19  C   UNL     1      20.802   7.221  24.637  0.00  0.00    +0.119 C 
BRANCH  19  20
ATOM     20  N   UNL     1      20.922   8.316  23.629  0.00  0.00    -0.302 NA
ATOM     21  C   UNL     1      20.431   9.658  24.177  0.00  0.00    +0.066 C 
ATOM     22  C   UNL     1      20.585  10.797  23.116  0.00  0.00    -0.064 C 
ATOM     23  N   UNL     1      19.818  10.416  21.849  0.00  0.00    +0.379 N 
ATOM     24  C   UNL     1      19.913  11.510  20.871  0.00  0.00    -0.096 C 
ATOM     25  H   UNL     1      18.745  10.301  22.125  0.00  0.00    -0.082 HD
ATOM     26  C   UNL     1      20.299   9.081  21.298  0.00  0.00    -0.064 C 
ATOM     27  C   UNL     1      20.169   7.962  22.370  0.00  0.00    +0.066 C 
ENDBRANCH  19  20
ENDBRANCH  18  19
ENDBRANCH  14  15
ENDBRANCH  12  13
TORSDOF 6
ENDMDL
MODEL 3
REMARK VINA RESULT:      -7.9      4.849     11.532
REMARK  Name = C:\Users\Docking\Desktop\test protocol\1iep_ligandH.pdb
REMARK  8 active torsions:
REMARK  status: ('A' for Active; 'I' for Inactive)
REMARK    1  A    between atoms: _5  and  _11
REMARK    2  A    between atoms: _19  and  _21
REMARK    3  A    between atoms: _22  and  _66
REMARK    4  A    between atoms: _27  and  _30
REMARK    5  A    between atoms: _32  and  _33
REMARK    6  A    between atoms: _38  and  _43
REMARK    7  A    between atoms: _43  and  _46
REMARK    8  A    between atoms: _53  and  _55
REMARK                            x       y       z     vdW  Elec       q    Type
REMARK                         _______ _______ _______ _____ _____    ______ ____
ROOT
ATOM     10  C   UNL     1       9.626   6.674  24.146  0.00  0.00    +0.038 A 
ATOM     11  C   UNL     1      11.004   6.342  24.191  0.00  0.00    +0.047 A 
ATOM     12  C   UNL     1      11.722   6.277  25.454  0.00  0.00    +0.035 A 
ATOM     32  C   UNL     1      11.004   6.554  26.654  0.00  0.00    +0.024 A 
ATOM     33  C   UNL     1       9.603   6.894  26.627  0.00  0.00    +0.007 A 
ATOM     34  C   UNL     1       8.891   6.962  25.383  0.00  0.00    -0.029 A 
ATOM     35  C   UNL     1       7.391   7.338  25.414  0.00  0.00    +0.045 C 
ENDROOT
BRANCH  10   9
ATOM      4  C   UNL     1       7.180   4.620  20.564  0.00  0.00    +0.077 A 
ATOM      5  C   UNL     1       7.201   3.337  21.206  0.00  0.00    +0.048 A 
ATOM      6  C   UNL     1       7.858   3.247  22.454  0.00  0.00    +0.116 A 
ATOM      7  N   UNL     1       8.446   4.363  23.009  0.00  0.00    -0.223 NA
ATOM      8  C   UNL     1       8.409   5.584  22.362  0.00  0.00    +0.220 A 
ATOM      9  N   UNL     1       8.986   6.721  22.905  0.00  0.00    -0.283 N 
ATOM     36  H   UNL     1       8.944   7.602  22.394  0.00  0.00    +0.155 HD
ATOM     37  N   UNL     1       7.789   5.696  21.169  0.00  0.00    -0.214 NA
BRANCH   4   3
ATOM      1  C   UNL     1       6.287   4.523  16.757  0.00  0.00    +0.020 A 
ATOM      2  C   UNL     1       6.957   4.241  18.006  0.00  0.00    +0.013 A 
ATOM      3  C   UNL     1       6.522   4.876  19.244  0.00  0.00    +0.019 A 
ATOM     38  C   UNL     1       5.396   5.796  19.184  0.00  0.00    +0.120 A 
ATOM     39  N   UNL     1       4.771   6.049  17.966  0.00  0.00    -0.263 NA
ATOM     40  C   UNL     1       5.182   5.446  16.768  0.00  0.00    +0.111 A 
ENDBRANCH   4   3
ENDBRANCH  10   9
BRANCH  12  13
ATOM     13  N   UNL     1      13.123   5.954  25.561  0.00  0.00    -0.281 N 
ATOM     14  C   UNL     1      13.771   4.816  25.108  0.00  0.00    +0.248 C 
ATOM     30  O   UNL     1      13.204   3.802  24.729  0.00  0.00    -0.270 OA
ATOM     31  H   UNL     1      13.708   6.648  26.026  0.00  0.00    +0.155 HD
BRANCH  14  15
ATOM     15  C   UNL     1      15.266   4.797  25.086  0.00  0.00    +0.037 A 
ATOM     16  C   UNL     1      16.050   5.680  25.953  0.00  0.00    +0.013 A 
ATOM     17  C   UNL     1      17.490   5.654  25.900  0.00  0.00    +0.005 A 
ATOM     18  C   UNL     1      18.156   4.739  24.976  0.00  0.00    -0.033 A 
ATOM     28  C   UNL     1      17.354   3.870  24.130  0.00  0.00    +0.005 A 
ATOM     29  C   UNL     1      15.942   3.894  24.179  0.00  0.00    +0.013 A 
BRANCH  18  19
ATOM     19  C   UNL     1      19.688   4.658  24.837  0.00  0.00    +0.119 C 
BRANCH  19  20
ATOM     20  N   UNL     1      20.310   5.394  23.696  0.00  0.00    -0.302 NA
ATOM     21  C   UNL     1      19.512   6.644  23.314  0.00  0.00    +0.066 C 
ATOM     22  C   UNL     1      20.190   7.413  22.134  0.00  0.00    -0.064 C 
ATOM     23  N   UNL     1      20.334   6.476  20.934  0.00  0.00    +0.379 N 
ATOM     24  C   UNL     1      20.918   7.213  19.803  0.00  0.00    -0.096 C 
ATOM     25  H   UNL     1      19.311   6.151  20.634  0.00  0.00    -0.082 HD
ATOM     26  C   UNL     1      21.124   5.229  21.305  0.00  0.00    -0.064 C 
ATOM     27  C   UNL     1      20.458   4.488  22.498  0.00  0.00    +0.066 C 
ENDBRANCH  19  20
ENDBRANCH  18  19
ENDBRANCH  14  15
ENDBRANCH  12  13
TORSDOF 6
ENDMDL
MODEL 4
REMARK VINA RESULT:      -7.8      6.764     12.509
REMARK  Name = C:\Users\Docking\Desktop\test protocol\1iep_ligandH.pdb
REMARK  8 active torsions:
REMARK  status: ('A' for Active; 'I' for Inactive)
REMARK    1  A    between atoms: _5  and  _11
REMARK    2  A    between atoms: _19  and  _21
REMARK    3  A    between atoms: _22  and  _66
REMARK    4  A    between atoms: _27  and  _30
REMARK    5  A    between atoms: _32  and  _33
REMARK    6  A    between atoms: _38  and  _43
REMARK    7  A    between atoms: _43  and  _46
REMARK    8  A    between atoms: _53  and  _55
REMARK                            x       y       z     vdW  Elec       q    Type
REMARK                         _______ _______ _______ _____ _____    ______ ____
ROOT
ATOM     10  C   UNL     1      12.648   4.691  25.079  0.00  0.00    +0.038 A 
ATOM     11  C   UNL     1      11.763   4.854  23.983  0.00  0.00    +0.047 A 
ATOM     12  C   UNL     1      10.521   4.102  23.899  0.00  0.00    +0.035 A 
ATOM     32  C   UNL     1      10.210   3.193  24.953  0.00  0.00    +0.024 A 
ATOM     33  C   UNL     1      11.098   3.015  26.074  0.00  0.00    +0.007 A 
ATOM     34  C   UNL     1      12.326   3.752  26.161  0.00  0.00    -0.029 A 
ATOM     35  C   UNL     1      13.243   3.515  27.383  0.00  0.00    +0.045 C 
ENDROOT
BRANCH  10   9
ATOM      4  C   UNL     1      17.371   5.177  24.375  0.00  0.00    +0.077 A 
ATOM      5  C   UNL     1      17.505   3.817  23.938  0.00  0.00    +0.048 A 
ATOM      6  C   UNL     1      16.336   3.024  23.916  0.00  0.00    +0.116 A 
ATOM      7  N   UNL     1      15.128   3.561  24.304  0.00  0.00    -0.223 NA
ATOM      8  C   UNL     1      15.033   4.876  24.721  0.00  0.00    +0.220 A 
ATOM      9  N   UNL     1      13.827   5.439  25.108  0.00  0.00    -0.283 N 
ATOM     36  H   UNL     1      13.800   6.411  25.417  0.00  0.00    +0.155 HD
ATOM     37  N   UNL     1      16.135   5.653  24.753  0.00  0.00    -0.214 NA
BRANCH   4   3
ATOM      1  C   UNL     1      20.423   7.430  23.422  0.00  0.00    +0.020 A 
ATOM      2  C   UNL     1      19.330   6.493  23.296  0.00  0.00    +0.013 A 
ATOM      3  C   UNL     1      18.514   6.141  24.450  0.00  0.00    +0.019 A 
ATOM     38  C   UNL     1      18.831   6.760  25.729  0.00  0.00    +0.120 A 
ATOM     39  N   UNL     1      19.889   7.658  25.821  0.00  0.00    -0.263 NA
ATOM     40  C   UNL     1      20.683   8.003  24.717  0.00  0.00    +0.111 A 
ENDBRANCH   4   3
ENDBRANCH  10   9
BRANCH  12  13
ATOM     13  N   UNL     1       9.588   4.219  22.806  0.00  0.00    -0.281 N 
ATOM     14  C   UNL     1       8.510   5.082  22.696  0.00  0.00    +0.248 C 
ATOM     30  O   UNL     1       8.055   5.741  23.619  0.00  0.00    -0.270 OA
ATOM     31  H   UNL     1       9.741   3.590  22.018  0.00  0.00    +0.155 HD
BRANCH  14  15
ATOM     15  C   UNL     1       7.830   5.223  21.372  0.00  0.00    +0.037 A 
ATOM     16  C   UNL     1       7.416   6.534  20.867  0.00  0.00    +0.013 A 
ATOM     17  C   UNL     1       6.747   6.640  19.594  0.00  0.00    +0.005 A 
ATOM     18  C   UNL     1       6.489   5.430  18.818  0.00  0.00    -0.033 A 
ATOM     28  C   UNL     1       6.915   4.142  19.341  0.00  0.00    +0.005 A 
ATOM     29  C   UNL     1       7.570   4.035  20.588  0.00  0.00    +0.013 A 
BRANCH  18  19
ATOM     19  C   UNL     1       5.762   5.446  17.460  0.00  0.00    +0.119 C 
BRANCH  19  20
ATOM     20  N   UNL     1       4.307   5.781  17.467  0.00  0.00    -0.302 NA
ATOM     21  C   UNL     1       3.474   4.742  16.712  0.00  0.00    +0.066 C 
ATOM     22  C   UNL     1       1.952   5.097  16.749  0.00  0.00    -0.064 C 
ATOM     23  N   UNL     1       1.741   6.493  16.159  0.00  0.00    +0.379 N 
ATOM     24  C   UNL     1       0.305   6.805  16.139  0.00  0.00    -0.096 C 
ATOM     25  H   UNL     1       2.098   6.470  15.103  0.00  0.00    -0.082 HD
ATOM     26  C   UNL     1       2.568   7.532  16.903  0.00  0.00    -0.064 C 
ATOM     27  C   UNL     1       4.076   7.154  16.885  0.00  0.00    +0.066 C 
ENDBRANCH  19  20
ENDBRANCH  18  19
ENDBRANCH  14  15
ENDBRANCH  12  13
TORSDOF 6
ENDMDL
MODEL 5
REMARK VINA RESULT:      -7.7      4.231     11.215
REMARK  Name = C:\Users\Docking\Desktop\test protocol\1iep_ligandH.pdb
REMARK  8 active torsions:
REMARK  status: ('A' for Active; 'I' for Inactive)
REMARK    1  A    between atoms: _5  and  _11
REMARK    2  A    between atoms: _19  and  _21
REMARK    3  A    between atoms: _22  and  _66
REMARK    4  A    between atoms: _27  and  _30
REMARK    5  A    between atoms: _32  and  _33
REMARK    6  A    between atoms: _38  and  _43
REMARK    7  A    between atoms: _43  and  _46
REMARK    8  A    between atoms: _53  and  _55
REMARK                            x       y       z     vdW  Elec       q    Type
REMARK                         _______ _______ _______ _____ _____    ______ ____
ROOT
ATOM     10  C   UNL     1      11.131   4.582  23.750  0.00  0.00    +0.038 A 
ATOM     11  C   UNL     1      12.386   5.241  23.761  0.00  0.00    +0.047 A 
ATOM     12  C   UNL     1      13.417   4.882  24.723  0.00  0.00    +0.035 A 
ATOM     32  C   UNL     1      13.135   3.844  25.659  0.00  0.00    +0.024 A 
ATOM     33  C   UNL     1      11.863   3.164  25.663  0.00  0.00    +0.007 A 
ATOM     34  C   UNL     1      10.842   3.516  24.718  0.00  0.00    -0.029 A 
ATOM     35  C   UNL     1       9.495   2.758  24.772  0.00  0.00    +0.045 C 
ENDROOT
BRANCH  10   9
ATOM      4  C   UNL     1       7.521   7.380  22.276  0.00  0.00    +0.077 A 
ATOM      5  C   UNL     1       7.514   8.121  23.504  0.00  0.00    +0.048 A 
ATOM      6  C   UNL     1       8.451   7.745  24.493  0.00  0.00    +0.116 A 
ATOM      7  N   UNL     1       9.325   6.705  24.259  0.00  0.00    -0.223 NA
ATOM      8  C   UNL     1       9.303   6.011  23.064  0.00  0.00    +0.220 A 
ATOM      9  N   UNL     1      10.178   4.967  22.804  0.00  0.00    -0.283 N 
ATOM     36  H   UNL     1      10.125   4.475  21.913  0.00  0.00    +0.155 HD
ATOM     37  N   UNL     1       8.417   6.349  22.104  0.00  0.00    -0.214 NA
BRANCH   4   3
ATOM      1  C   UNL     1       4.836   9.044  19.968  0.00  0.00    +0.020 A 
ATOM      2  C   UNL     1       5.712   8.819  21.095  0.00  0.00    +0.013 A 
ATOM      3  C   UNL     1       6.594   7.660  21.134  0.00  0.00    +0.019 A 
ATOM     38  C   UNL     1       6.566   6.740  20.007  0.00  0.00    +0.120 A 
ATOM     39  N   UNL     1       5.710   6.980  18.936  0.00  0.00    -0.263 NA
ATOM     40  C   UNL     1       4.856   8.092  18.889  0.00  0.00    +0.111 A 
ENDBRANCH   4   3
ENDBRANCH  10   9
BRANCH  12  13
ATOM     13  N   UNL     1      14.707   5.521  24.787  0.00  0.00    -0.281 N 
ATOM     14  C   UNL     1      15.722   5.301  25.704  0.00  0.00    +0.248 C 
ATOM     30  O   UNL     1      15.591   4.669  26.742  0.00  0.00    -0.270 OA
ATOM     31  H   UNL     1      14.896   6.221  24.069  0.00  0.00    +0.155 HD
BRANCH  14  15
ATOM     15  C   UNL     1      17.075   5.877  25.435  0.00  0.00    +0.037 A 
ATOM     16  C   UNL     1      17.737   6.748  26.411  0.00  0.00    +0.013 A 
ATOM     17  C   UNL     1      19.035   7.304  26.120  0.00  0.00    +0.005 A 
ATOM     18  C   UNL     1      19.679   6.990  24.847  0.00  0.00    -0.033 A 
ATOM     28  C   UNL     1      19.002   6.120  23.900  0.00  0.00    +0.005 A 
ATOM     29  C   UNL     1      17.730   5.573  24.181  0.00  0.00    +0.013 A 
BRANCH  18  19
ATOM     19  C   UNL     1      21.054   7.557  24.443  0.00  0.00    +0.119 C 
BRANCH  19  20
ATOM     20  N   UNL     1      21.072   8.641  23.416  0.00  0.00    -0.302 NA
ATOM     21  C   UNL     1      20.496   9.953  23.955  0.00  0.00    +0.066 C 
ATOM     22  C   UNL     1      20.543  11.082  22.875  0.00  0.00    -0.064 C 
ATOM     23  N   UNL     1      19.779  10.625  21.631  0.00  0.00    +0.379 N 
ATOM     24  C   UNL     1      19.772  11.707  20.635  0.00  0.00    -0.096 C 
ATOM     25  H   UNL     1      18.722  10.437  21.933  0.00  0.00    -0.082 HD
ATOM     26  C   UNL     1      20.344   9.320  21.089  0.00  0.00    -0.064 C 
ATOM     27  C   UNL     1      20.319   8.213  22.180  0.00  0.00    +0.066 C 
ENDBRANCH  19  20
ENDBRANCH  18  19
ENDBRANCH  14  15
ENDBRANCH  12  13
TORSDOF 6
ENDMDL
