MODEL 1
REMARK VINA RESULT:      -8.1      0.000      0.000
REMARK  Name = C:\Users\Docking\Desktop\test protocol\1iep_ligandH.pdb
REMARK  8 active torsions:
REMARK  status: ('A' for Active; 'I' for Inactive)
REMARK    1  A    between atoms: _5  and  _11
REMARK    2  A    between atoms: _19  and  _21
REMARK    3  A    between atoms: _22  and  _66
REMARK    4  A    between atoms: _27  and  _30
REMARK    5  A    between atoms: _32  and  _33
REMARK    6  A    between atoms: _38  and  _43
REMARK    7  A    between atoms: _43  and  _46
REMARK    8  A    between atoms: _53  and  _55
REMARK                            x       y       z     vdW  Elec       q    Type
REMARK                         _______ _______ _______ _____ _____    ______ ____
ROOT
ATOM     10  C   UNL     1      -3.672  -7.389   2.261  0.00  0.00    +0.038 A 
ATOM     11  C   UNL     1      -2.384  -7.360   2.854  0.00  0.00    +0.047 A 
ATOM     12  C   UNL     1      -1.250  -8.020   2.225  0.00  0.00    +0.035 A 
ATOM     32  C   UNL     1      -1.464  -8.698   0.990  0.00  0.00    +0.024 A 
ATOM     33  C   UNL     1      -2.767  -8.739   0.373  0.00  0.00    +0.007 A 
ATOM     34  C   UNL     1      -3.889  -8.092   0.991  0.00  0.00    -0.029 A 
ATOM     35  C   UNL     1      -5.264  -8.173   0.288  0.00  0.00    +0.045 C 
ENDROOT
BRANCH  10   9
ATOM      4  C   UNL     1      -7.339  -7.319   5.357  0.00  0.00    +0.077 A 
ATOM      5  C   UNL     1      -7.159  -8.702   5.693  0.00  0.00    +0.048 A 
ATOM      6  C   UNL     1      -6.116  -9.397   5.041  0.00  0.00    +0.116 A 
ATOM      7  N   UNL     1      -5.318  -8.748   4.124  0.00  0.00    -0.223 NA
ATOM      8  C   UNL     1      -5.520  -7.414   3.822  0.00  0.00    +0.220 A 
ATOM      9  N   UNL     1      -4.725  -6.739   2.909  0.00  0.00    -0.283 N 
ATOM     36  H   UNL     1      -4.910  -5.757   2.708  0.00  0.00    +0.155 HD
ATOM     37  N   UNL     1      -6.510  -6.728   4.430  0.00  0.00    -0.214 NA
BRANCH   4   3
ATOM      1  C   UNL     1      -9.196  -4.742   7.640  0.00  0.00    +0.020 A 
ATOM      2  C   UNL     1      -8.141  -5.562   7.092  0.00  0.00    +0.013 A 
ATOM      3  C   UNL     1      -8.396  -6.448   5.963  0.00  0.00    +0.019 A 
ATOM     38  C   UNL     1      -9.740  -6.480   5.407  0.00  0.00    +0.120 A 
ATOM     39  N   UNL     1     -10.737  -5.680   5.956  0.00  0.00    -0.263 NA
ATOM     40  C   UNL     1     -10.504  -4.825   7.043  0.00  0.00    +0.111 A 
ENDBRANCH   4   3
ENDBRANCH  10   9
BRANCH  12  13
ATOM     13  N   UNL     1       0.079  -8.031   2.785  0.00  0.00    -0.281 N 
ATOM     14  C   UNL     1       1.166  -7.259   2.411  0.00  0.00    +0.248 C 
ATOM     30  O   UNL     1       1.220  -6.589   1.390  0.00  0.00    -0.270 OA
ATOM     31  H   UNL     1       0.236  -8.687   3.549  0.00  0.00    +0.155 HD
BRANCH  14  15
ATOM     15  C   UNL     1       2.375  -7.240   3.290  0.00  0.00    +0.037 A 
ATOM     16  C   UNL     1       3.066  -8.478   3.659  0.00  0.00    +0.013 A 
ATOM     17  C   UNL     1       4.219  -8.433   4.523  0.00  0.00    +0.005 A 
ATOM     18  C   UNL     1       4.689  -7.143   5.023  0.00  0.00    -0.033 A 
ATOM     28  C   UNL     1       3.988  -5.930   4.637  0.00  0.00    +0.005 A 
ATOM     29  C   UNL     1       2.857  -5.970   3.791  0.00  0.00    +0.013 A 
BRANCH  18  19
ATOM     19  C   UNL     1       5.898  -7.002   5.966  0.00  0.00    +0.119 C 
BRANCH  19  20
ATOM     20  N   UNL     1       5.703  -6.207   7.215  0.00  0.00    -0.302 NA
ATOM     21  C   UNL     1       6.932  -6.257   8.127  0.00  0.00    +0.066 C 
ATOM     22  C   UNL     1       6.718  -5.402   9.418  0.00  0.00    -0.064 C 
ATOM     23  N   UNL     1       5.475  -5.900  10.156  0.00  0.00    +0.379 N 
ATOM     24  C   UNL     1       5.304  -5.135  11.401  0.00  0.00    -0.096 C 
ATOM     25  H   UNL     1       5.651  -6.965  10.435  0.00  0.00    -0.082 HD
ATOM     26  C   UNL     1       4.248  -5.855   9.256  0.00  0.00    -0.064 C 
ATOM     27  C   UNL     1       4.482  -6.685   7.962  0.00  0.00    +0.066 C 
ENDBRANCH  19  20
ENDBRANCH  18  19
ENDBRANCH  14  15
ENDBRANCH  12  13
TORSDOF 6
ENDMDL
MODEL 2
REMARK VINA RESULT:      -8.0      1.574      2.103
REMARK  Name = C:\Users\Docking\Desktop\test protocol\1iep_ligandH.pdb
REMARK  8 active torsions:
REMARK  status: ('A' for Active; 'I' for Inactive)
REMARK    1  A    between atoms: _5  and  _11
REMARK    2  A    between atoms: _19  and  _21
REMARK    3  A    between atoms: _22  and  _66
REMARK    4  A    between atoms: _27  and  _30
REMARK    5  A    between atoms: _32  and  _33
REMARK    6  A    between atoms: _38  and  _43
REMARK    7  A    between atoms: _43  and  _46
REMARK    8  A    between atoms: _53  and  _55
REMARK                            x       y       z     vdW  Elec       q    Type
REMARK                         _______ _______ _______ _____ _____    ______ ____
ROOT
ATOM     10  C   UNL     1      -2.652  -8.191   2.785  0.00  0.00    +0.038 A 
ATOM     11  C   UNL     1      -1.426  -8.159   3.496  0.00  0.00    +0.047 A 
ATOM     12  C   UNL     1      -0.150  -8.235   2.801  0.00  0.00    +0.035 A 
ATOM     32  C   UNL     1      -0.161  -8.342   1.379  0.00  0.00    +0.024 A 
ATOM     33  C   UNL     1      -1.399  -8.377   0.640  0.00  0.00    +0.007 A 
ATOM     34  C   UNL     1      -2.660  -8.304   1.321  0.00  0.00    -0.029 A 
ATOM     35  C   UNL     1      -3.956  -8.353   0.478  0.00  0.00    +0.045 C 
ENDROOT
BRANCH  10   9
ATOM      4  C   UNL     1      -6.111  -5.701   4.993  0.00  0.00    +0.077 A 
ATOM      5  C   UNL     1      -5.468  -4.449   4.715  0.00  0.00    +0.048 A 
ATOM      6  C   UNL     1      -4.246  -4.490   4.008  0.00  0.00    +0.116 A 
ATOM      7  N   UNL     1      -3.715  -5.698   3.612  0.00  0.00    -0.223 NA
ATOM      8  C   UNL     1      -4.359  -6.888   3.898  0.00  0.00    +0.220 A 
ATOM      9  N   UNL     1      -3.848  -8.114   3.503  0.00  0.00    -0.283 N 
ATOM     36  H   UNL     1      -4.350  -8.970   3.740  0.00  0.00    +0.155 HD
ATOM     37  N   UNL     1      -5.527  -6.876   4.573  0.00  0.00    -0.214 NA
BRANCH   4   3
ATOM      1  C   UNL     1      -8.956  -5.264   7.641  0.00  0.00    +0.020 A 
ATOM      2  C   UNL     1      -7.685  -5.112   6.970  0.00  0.00    +0.013 A 
ATOM      3  C   UNL     1      -7.409  -5.822   5.728  0.00  0.00    +0.019 A 
ATOM     38  C   UNL     1      -8.449  -6.684   5.185  0.00  0.00    +0.120 A 
ATOM     39  N   UNL     1      -9.663  -6.811   5.853  0.00  0.00    -0.263 NA
ATOM     40  C   UNL     1      -9.939  -6.134   7.051  0.00  0.00    +0.111 A 
ENDBRANCH   4   3
ENDBRANCH  10   9
BRANCH  12  13
ATOM     13  N   UNL     1       1.127  -8.215   3.470  0.00  0.00    -0.281 N 
ATOM     14  C   UNL     1       2.022  -7.162   3.565  0.00  0.00    +0.248 C 
ATOM     30  O   UNL     1       1.956  -6.137   2.904  0.00  0.00    -0.270 OA
ATOM     31  H   UNL     1       1.404  -9.083   3.930  0.00  0.00    +0.155 HD
BRANCH  14  15
ATOM     15  C   UNL     1       3.164  -7.270   4.524  0.00  0.00    +0.037 A 
ATOM     16  C   UNL     1       4.210  -8.281   4.349  0.00  0.00    +0.013 A 
ATOM     17  C   UNL     1       5.291  -8.374   5.297  0.00  0.00    +0.005 A 
ATOM     18  C   UNL     1       5.332  -7.451   6.429  0.00  0.00    -0.033 A 
ATOM     28  C   UNL     1       4.284  -6.455   6.576  0.00  0.00    +0.005 A 
ATOM     29  C   UNL     1       3.222  -6.361   5.649  0.00  0.00    +0.013 A 
BRANCH  18  19
ATOM     19  C   UNL     1       6.437  -7.492   7.502  0.00  0.00    +0.119 C 
BRANCH  19  20
ATOM     20  N   UNL     1       6.810  -6.198   8.148  0.00  0.00    -0.302 NA
ATOM     21  C   UNL     1       8.328  -6.021   8.244  0.00  0.00    +0.066 C 
ATOM     22  C   UNL     1       8.701  -4.653   8.903  0.00  0.00    -0.064 C 
ATOM     23  N   UNL     1       8.057  -4.564  10.287  0.00  0.00    +0.379 N 
ATOM     24  C   UNL     1       8.453  -3.304  10.932  0.00  0.00    -0.096 C 
ATOM     25  H   UNL     1       8.461  -5.401  10.902  0.00  0.00    -0.082 HD
ATOM     26  C   UNL     1       6.548  -4.742  10.201  0.00  0.00    -0.064 C 
ATOM     27  C   UNL     1       6.188  -6.091   9.519  0.00  0.00    +0.066 C 
ENDBRANCH  19  20
ENDBRANCH  18  19
ENDBRANCH  14  15
ENDBRANCH  12  13
TORSDOF 6
ENDMDL
MODEL 3
REMARK VINA RESULT:      -7.7      5.290     14.642
REMARK  Name = C:\Users\Docking\Desktop\test protocol\1iep_ligandH.pdb
REMARK  8 active torsions:
REMARK  status: ('A' for Active; 'I' for Inactive)
REMARK    1  A    between atoms: _5  and  _11
REMARK    2  A    between atoms: _19  and  _21
REMARK    3  A    between atoms: _22  and  _66
REMARK    4  A    between atoms: _27  and  _30
REMARK    5  A    between atoms: _32  and  _33
REMARK    6  A    between atoms: _38  and  _43
REMARK    7  A    between atoms: _43  and  _46
REMARK    8  A    between atoms: _53  and  _55
REMARK                            x       y       z     vdW  Elec       q    Type
REMARK                         _______ _______ _______ _____ _____    ______ ____
ROOT
ATOM     10  C   UNL     1      -5.371  -7.727   5.804  0.00  0.00    +0.038 A 
ATOM     11  C   UNL     1      -6.696  -8.133   5.500  0.00  0.00    +0.047 A 
ATOM     12  C   UNL     1      -7.815  -7.214   5.637  0.00  0.00    +0.035 A 
ATOM     32  C   UNL     1      -7.548  -5.887   6.085  0.00  0.00    +0.024 A 
ATOM     33  C   UNL     1      -6.208  -5.458   6.399  0.00  0.00    +0.007 A 
ATOM     34  C   UNL     1      -5.100  -6.361   6.268  0.00  0.00    -0.029 A 
ATOM     35  C   UNL     1      -3.686  -5.849   6.626  0.00  0.00    +0.045 C 
ENDROOT
BRANCH  10   9
ATOM      4  C   UNL     1      -1.939  -9.854   3.208  0.00  0.00    +0.077 A 
ATOM      5  C   UNL     1      -2.256  -9.077   2.044  0.00  0.00    +0.048 A 
ATOM      6  C   UNL     1      -3.314  -8.147   2.153  0.00  0.00    +0.116 A 
ATOM      7  N   UNL     1      -3.996  -8.011   3.343  0.00  0.00    -0.223 NA
ATOM      8  C   UNL     1      -3.667  -8.777   4.446  0.00  0.00    +0.220 A 
ATOM      9  N   UNL     1      -4.335  -8.651   5.654  0.00  0.00    -0.283 N 
ATOM     36  H   UNL     1      -4.066  -9.240   6.442  0.00  0.00    +0.155 HD
ATOM     37  N   UNL     1      -2.662  -9.674   4.367  0.00  0.00    -0.214 NA
BRANCH   4   3
ATOM      1  C   UNL     1       1.563 -11.562   3.548  0.00  0.00    +0.020 A 
ATOM      2  C   UNL     1       0.546 -10.537   3.517  0.00  0.00    +0.013 A 
ATOM      3  C   UNL     1      -0.846 -10.876   3.251  0.00  0.00    +0.019 A 
ATOM     38  C   UNL     1      -1.179 -12.274   3.020  0.00  0.00    +0.120 A 
ATOM     39  N   UNL     1      -0.177 -13.240   3.055  0.00  0.00    -0.263 NA
ATOM     40  C   UNL     1       1.166 -12.924   3.308  0.00  0.00    +0.111 A 
ENDBRANCH   4   3
ENDBRANCH  10   9
BRANCH  12  13
ATOM     13  N   UNL     1      -9.182  -7.571   5.351  0.00  0.00    -0.281 N 
ATOM     14  C   UNL     1     -10.335  -7.042   5.907  0.00  0.00    +0.248 C 
ATOM     30  O   UNL     1     -10.359  -6.326   6.897  0.00  0.00    -0.270 OA
ATOM     31  H   UNL     1      -9.316  -8.303   4.653  0.00  0.00    +0.155 HD
BRANCH  14  15
ATOM     15  C   UNL     1     -11.653  -7.368   5.282  0.00  0.00    +0.037 A 
ATOM     16  C   UNL     1     -12.881  -6.689   5.703  0.00  0.00    +0.013 A 
ATOM     17  C   UNL     1     -14.143  -7.034   5.096  0.00  0.00    +0.005 A 
ATOM     18  C   UNL     1     -14.181  -8.063   4.060  0.00  0.00    -0.033 A 
ATOM     28  C   UNL     1     -12.946  -8.717   3.658  0.00  0.00    +0.005 A 
ATOM     29  C   UNL     1     -11.709  -8.382   4.251  0.00  0.00    +0.013 A 
BRANCH  18  19
ATOM     19  C   UNL     1     -15.485  -8.510   3.372  0.00  0.00    +0.119 C 
BRANCH  19  20
ATOM     20  N   UNL     1     -15.810  -7.888   2.054  0.00  0.00    -0.302 NA
ATOM     21  C   UNL     1     -17.314  -7.648   1.888  0.00  0.00    +0.066 C 
ATOM     22  C   UNL     1     -17.634  -6.976   0.513  0.00  0.00    -0.064 C 
ATOM     23  N   UNL     1     -17.098  -7.856  -0.618  0.00  0.00    +0.379 N 
ATOM     24  C   UNL     1     -17.449  -7.256  -1.914  0.00  0.00    -0.096 C 
ATOM     25  H   UNL     1     -17.612  -8.843  -0.551  0.00  0.00    -0.082 HD
ATOM     26  C   UNL     1     -15.605  -8.102  -0.459  0.00  0.00    -0.064 C 
ATOM     27  C   UNL     1     -15.294  -8.742   0.922  0.00  0.00    +0.066 C 
ENDBRANCH  19  20
ENDBRANCH  18  19
ENDBRANCH  14  15
ENDBRANCH  12  13
TORSDOF 6
ENDMDL
MODEL 4
REMARK VINA RESULT:      -7.7      3.772      7.864
REMARK  Name = C:\Users\Docking\Desktop\test protocol\1iep_ligandH.pdb
REMARK  8 active torsions:
REMARK  status: ('A' for Active; 'I' for Inactive)
REMARK    1  A    between atoms: _5  and  _11
REMARK    2  A    between atoms: _19  and  _21
REMARK    3  A    between atoms: _22  and  _66
REMARK    4  A    between atoms: _27  and  _30
REMARK    5  A    between atoms: _32  and  _33
REMARK    6  A    between atoms: _38  and  _43
REMARK    7  A    between atoms: _43  and  _46
REMARK    8  A    between atoms: _53  and  _55
REMARK                            x       y       z     vdW  Elec       q    Type
REMARK                         _______ _______ _______ _____ _____    ______ ____
ROOT
ATOM     10  C   UNL     1     -10.277  -5.741   6.283  0.00  0.00    +0.038 A 
ATOM     11  C   UNL     1      -9.221  -6.462   5.670  0.00  0.00    +0.047 A 
ATOM     12  C   UNL     1      -7.853  -6.346   6.150  0.00  0.00    +0.035 A 
ATOM     32  C   UNL     1      -7.596  -5.489   7.259  0.00  0.00    +0.024 A 
ATOM     33  C   UNL     1      -8.657  -4.747   7.893  0.00  0.00    +0.007 A 
ATOM     34  C   UNL     1     -10.008  -4.855   7.423  0.00  0.00    -0.029 A 
ATOM     35  C   UNL     1     -11.105  -4.032   8.137  0.00  0.00    +0.045 C 
ENDROOT
BRANCH  10   9
ATOM      4  C   UNL     1     -13.704  -8.298   4.102  0.00  0.00    +0.077 A 
ATOM      5  C   UNL     1     -12.832  -9.423   3.923  0.00  0.00    +0.048 A 
ATOM      6  C   UNL     1     -11.508  -9.301   4.400  0.00  0.00    +0.116 A 
ATOM      7  N   UNL     1     -11.097  -8.135   5.009  0.00  0.00    -0.223 NA
ATOM      8  C   UNL     1     -11.962  -7.068   5.165  0.00  0.00    +0.220 A 
ATOM      9  N   UNL     1     -11.572  -5.889   5.782  0.00  0.00    -0.283 N 
ATOM     36  H   UNL     1     -12.238  -5.122   5.871  0.00  0.00    +0.155 HD
ATOM     37  N   UNL     1     -13.232  -7.159   4.717  0.00  0.00    -0.214 NA
BRANCH   4   3
ATOM      1  C   UNL     1     -16.920  -8.032   1.892  0.00  0.00    +0.020 A 
ATOM      2  C   UNL     1     -15.526  -8.043   2.271  0.00  0.00    +0.013 A 
ATOM      3  C   UNL     1     -15.133  -8.275   3.655  0.00  0.00    +0.019 A 
ATOM     38  C   UNL     1     -16.183  -8.494   4.638  0.00  0.00    +0.120 A 
ATOM     39  N   UNL     1     -17.517  -8.476   4.244  0.00  0.00    -0.263 NA
ATOM     40  C   UNL     1     -17.907  -8.252   2.915  0.00  0.00    +0.111 A 
ENDBRANCH   4   3
ENDBRANCH  10   9
BRANCH  12  13
ATOM     13  N   UNL     1      -6.739  -7.048   5.562  0.00  0.00    -0.281 N 
ATOM     14  C   UNL     1      -5.934  -6.640   4.511  0.00  0.00    +0.248 C 
ATOM     30  O   UNL     1      -6.186  -5.699   3.773  0.00  0.00    -0.270 OA
ATOM     31  H   UNL     1      -6.516  -7.956   5.970  0.00  0.00    +0.155 HD
BRANCH  14  15
ATOM     15  C   UNL     1      -4.675  -7.395   4.230  0.00  0.00    +0.037 A 
ATOM     16  C   UNL     1      -3.660  -7.592   5.267  0.00  0.00    +0.013 A 
ATOM     17  C   UNL     1      -2.446  -8.310   4.965  0.00  0.00    +0.005 A 
ATOM     18  C   UNL     1      -2.243  -8.837   3.618  0.00  0.00    -0.033 A 
ATOM     28  C   UNL     1      -3.269  -8.631   2.609  0.00  0.00    +0.005 A 
ATOM     29  C   UNL     1      -4.459  -7.927   2.901  0.00  0.00    +0.013 A 
BRANCH  18  19
ATOM     19  C   UNL     1      -0.970  -9.596   3.200  0.00  0.00    +0.119 C 
BRANCH  19  20
ATOM     20  N   UNL     1       0.335  -8.889   3.370  0.00  0.00    -0.302 NA
ATOM     21  C   UNL     1       0.413  -7.616   2.523  0.00  0.00    +0.066 C 
ATOM     22  C   UNL     1       1.776  -6.878   2.730  0.00  0.00    -0.064 C 
ATOM     23  N   UNL     1       2.925  -7.828   2.389  0.00  0.00    +0.379 N 
ATOM     24  C   UNL     1       4.205  -7.118   2.527  0.00  0.00    -0.096 C 
ATOM     25  H   UNL     1       2.814  -8.121   1.319  0.00  0.00    -0.082 HD
ATOM     26  C   UNL     1       2.853  -9.097   3.225  0.00  0.00    -0.064 C 
ATOM     27  C   UNL     1       1.484  -9.808   3.034  0.00  0.00    +0.066 C 
ENDBRANCH  19  20
ENDBRANCH  18  19
ENDBRANCH  14  15
ENDBRANCH  12  13
TORSDOF 6
ENDMDL
MODEL 5
REMARK VINA RESULT:      -7.6      5.680     14.646
REMARK  Name = C:\Users\Docking\Desktop\test protocol\1iep_ligandH.pdb
REMARK  8 active torsions:
REMARK  status: ('A' for Active; 'I' for Inactive)
REMARK    1  A    between atoms: _5  and  _11
REMARK    2  A    between atoms: _19  and  _21
REMARK    3  A    between atoms: _22  and  _66
REMARK    4  A    between atoms: _27  and  _30
REMARK    5  A    between atoms: _32  and  _33
REMARK    6  A    between atoms: _38  and  _43
REMARK    7  A    between atoms: _43  and  _46
REMARK    8  A    between atoms: _53  and  _55
REMARK                            x       y       z     vdW  Elec       q    Type
REMARK                         _______ _______ _______ _____ _____    ______ ____
ROOT
ATOM     10  C   UNL     1      -5.965  -6.911   5.045  0.00  0.00    +0.038 A 
ATOM     11  C   UNL     1      -7.236  -7.496   4.814  0.00  0.00    +0.047 A 
ATOM     12  C   UNL     1      -8.430  -6.987   5.472  0.00  0.00    +0.035 A 
ATOM     32  C   UNL     1      -8.292  -5.879   6.357  0.00  0.00    +0.024 A 
ATOM     33  C   UNL     1      -7.007  -5.272   6.605  0.00  0.00    +0.007 A 
ATOM     34  C   UNL     1      -5.826  -5.772   5.961  0.00  0.00    -0.029 A 
ATOM     35  C   UNL     1      -4.474  -5.087   6.268  0.00  0.00    +0.045 C 
ENDROOT
BRANCH  10   9
ATOM      4  C   UNL     1      -2.393 -10.094   4.658  0.00  0.00    +0.077 A 
ATOM      5  C   UNL     1      -2.758 -10.741   5.885  0.00  0.00    +0.048 A 
ATOM      6  C   UNL     1      -3.866 -10.220   6.589  0.00  0.00    +0.116 A 
ATOM      7  N   UNL     1      -4.552  -9.132   6.094  0.00  0.00    -0.223 NA
ATOM      8  C   UNL     1      -4.173  -8.530   4.908  0.00  0.00    +0.220 A 
ATOM      9  N   UNL     1      -4.852  -7.440   4.387  0.00  0.00    -0.283 N 
ATOM     36  H   UNL     1      -4.537  -7.020   3.513  0.00  0.00    +0.155 HD
ATOM     37  N   UNL     1      -3.117  -9.008   4.218  0.00  0.00    -0.214 NA
BRANCH   4   3
ATOM      1  C   UNL     1       0.585 -12.144   3.165  0.00  0.00    +0.020 A 
ATOM      2  C   UNL     1      -0.514 -11.769   4.025  0.00  0.00    +0.013 A 
ATOM      3  C   UNL     1      -1.247 -10.530   3.799  0.00  0.00    +0.019 A 
ATOM     38  C   UNL     1      -0.840  -9.686   2.685  0.00  0.00    +0.120 A 
ATOM     39  N   UNL     1       0.223 -10.072   1.875  0.00  0.00    -0.263 NA
ATOM     40  C   UNL     1       0.937 -11.262   2.083  0.00  0.00    +0.111 A 
ENDBRANCH   4   3
ENDBRANCH  10   9
BRANCH  12  13
ATOM     13  N   UNL     1      -9.745  -7.545   5.282  0.00  0.00    -0.281 N 
ATOM     14  C   UNL     1     -10.969  -6.929   5.486  0.00  0.00    +0.248 C 
ATOM     30  O   UNL     1     -11.119  -5.866   6.070  0.00  0.00    -0.270 OA
ATOM     31  H   UNL     1      -9.779  -8.512   4.958  0.00  0.00    +0.155 HD
BRANCH  14  15
ATOM     15  C   UNL     1     -12.207  -7.597   4.981  0.00  0.00    +0.037 A 
ATOM     16  C   UNL     1     -12.138  -8.839   4.207  0.00  0.00    +0.013 A 
ATOM     17  C   UNL     1     -13.346  -9.454   3.717  0.00  0.00    +0.005 A 
ATOM     18  C   UNL     1     -14.635  -8.827   4.000  0.00  0.00    -0.033 A 
ATOM     28  C   UNL     1     -14.675  -7.597   4.775  0.00  0.00    +0.005 A 
ATOM     29  C   UNL     1     -13.493  -6.992   5.256  0.00  0.00    +0.013 A 
BRANCH  18  19
ATOM     19  C   UNL     1     -15.973  -9.401   3.499  0.00  0.00    +0.119 C 
BRANCH  19  20
ATOM     20  N   UNL     1     -16.436  -8.975   2.145  0.00  0.00    -0.302 NA
ATOM     21  C   UNL     1     -15.271  -8.541   1.250  0.00  0.00    +0.066 C 
ATOM     22  C   UNL     1     -15.771  -8.119  -0.170  0.00  0.00    -0.064 C 
ATOM     23  N   UNL     1     -16.797  -6.993  -0.033  0.00  0.00    +0.379 N 
ATOM     24  C   UNL     1     -17.226  -6.555  -1.369  0.00  0.00    -0.096 C 
ATOM     25  H   UNL     1     -16.290  -6.131   0.459  0.00  0.00    -0.082 HD
ATOM     26  C   UNL     1     -17.958  -7.415   0.857  0.00  0.00    -0.064 C 
ATOM     27  C   UNL     1     -17.447  -7.860   2.256  0.00  0.00    +0.066 C 
ENDBRANCH  19  20
ENDBRANCH  18  19
ENDBRANCH  14  15
ENDBRANCH  12  13
TORSDOF 6
ENDMDL
