MODEL 1
REMARK VINA RESULT:     -11.4      0.000      0.000
REMARK  Name = C:\Users\Docking\Desktop\test protocol\1iep_ligandH.pdb
REMARK  8 active torsions:
REMARK  status: ('A' for Active; 'I' for Inactive)
REMARK    1  A    between atoms: _5  and  _11
REMARK    2  A    between atoms: _19  and  _21
REMARK    3  A    between atoms: _22  and  _66
REMARK    4  A    between atoms: _27  and  _30
REMARK    5  A    between atoms: _32  and  _33
REMARK    6  A    between atoms: _38  and  _43
REMARK    7  A    between atoms: _43  and  _46
REMARK    8  A    between atoms: _53  and  _55
REMARK                            x       y       z     vdW  Elec       q    Type
REMARK                         _______ _______ _______ _____ _____    ______ ____
ROOT
ATOM     10  C   UNL     1       2.005   6.299  26.559  0.00  0.00    +0.038 A 
ATOM     11  C   UNL     1       3.222   6.449  25.846  0.00  0.00    +0.047 A 
ATOM     12  C   UNL     1       3.230   6.667  24.408  0.00  0.00    +0.035 A 
ATOM     32  C   UNL     1       1.979   6.729  23.727  0.00  0.00    +0.024 A 
ATOM     33  C   UNL     1       0.733   6.578  24.436  0.00  0.00    +0.007 A 
ATOM     34  C   UNL     1       0.719   6.360  25.854  0.00  0.00    -0.029 A 
ATOM     35  C   UNL     1      -0.647   6.198  26.561  0.00  0.00    +0.045 C 
ENDROOT
BRANCH  10   9
ATOM      4  C   UNL     1       2.598   7.870  31.055  0.00  0.00    +0.077 A 
ATOM      5  C   UNL     1       2.854   9.212  30.616  0.00  0.00    +0.048 A 
ATOM      6  C   UNL     1       2.832   9.454  29.224  0.00  0.00    +0.116 A 
ATOM      7  N   UNL     1       2.570   8.424  28.346  0.00  0.00    -0.223 NA
ATOM      8  C   UNL     1       2.328   7.142  28.803  0.00  0.00    +0.220 A 
ATOM      9  N   UNL     1       2.056   6.092  27.939  0.00  0.00    -0.283 N 
ATOM     36  H   UNL     1       1.890   5.159  28.316  0.00  0.00    +0.155 HD
ATOM     37  N   UNL     1       2.346   6.884  30.128  0.00  0.00    -0.214 NA
BRANCH   4   3
ATOM      1  C   UNL     1       2.325   5.742  34.326  0.00  0.00    +0.020 A 
ATOM      2  C   UNL     1       2.327   6.088  32.923  0.00  0.00    +0.013 A 
ATOM      3  C   UNL     1       2.584   7.457  32.494  0.00  0.00    +0.019 A 
ATOM     38  C   UNL     1       2.838   8.460  33.518  0.00  0.00    +0.120 A 
ATOM     39  N   UNL     1       2.829   8.097  34.861  0.00  0.00    -0.263 NA
ATOM     40  C   UNL     1       2.581   6.783  35.286  0.00  0.00    +0.111 A 
ENDBRANCH   4   3
ENDBRANCH  10   9
BRANCH  12  13
ATOM     13  N   UNL     1       4.435   6.818  23.630  0.00  0.00    -0.281 N 
ATOM     14  C   UNL     1       5.381   7.826  23.714  0.00  0.00    +0.248 C 
ATOM     30  O   UNL     1       5.225   8.872  24.327  0.00  0.00    -0.270 OA
ATOM     31  H   UNL     1       4.611   6.094  22.934  0.00  0.00    +0.155 HD
BRANCH  14  15
ATOM     15  C   UNL     1       6.683   7.655  23.000  0.00  0.00    +0.037 A 
ATOM     16  C   UNL     1       7.331   8.779  22.320  0.00  0.00    +0.013 A 
ATOM     17  C   UNL     1       8.578   8.582  21.625  0.00  0.00    +0.005 A 
ATOM     18  C   UNL     1       9.187   7.254  21.608  0.00  0.00    -0.033 A 
ATOM     28  C   UNL     1       8.526   6.158  22.296  0.00  0.00    +0.005 A 
ATOM     29  C   UNL     1       7.303   6.347  22.978  0.00  0.00    +0.013 A 
BRANCH  18  19
ATOM     19  C   UNL     1      10.506   6.948  20.874  0.00  0.00    +0.119 C 
BRANCH  19  20
ATOM     20  N   UNL     1      11.280   8.110  20.345  0.00  0.00    -0.302 NA
ATOM     21  C   UNL     1      10.813   8.523  18.947  0.00  0.00    +0.066 C 
ATOM     22  C   UNL     1      11.618   9.755  18.418  0.00  0.00    -0.064 C 
ATOM     23  N   UNL     1      13.111   9.421  18.414  0.00  0.00    +0.379 N 
ATOM     24  C   UNL     1      13.866  10.556  17.863  0.00  0.00    -0.096 C 
ATOM     25  H   UNL     1      13.261   8.552  17.732  0.00  0.00    -0.082 HD
ATOM     26  C   UNL     1      13.583   9.007  19.800  0.00  0.00    -0.064 C 
ATOM     27  C   UNL     1      12.757   7.801  20.328  0.00  0.00    +0.066 C 
ENDBRANCH  19  20
ENDBRANCH  18  19
ENDBRANCH  14  15
ENDBRANCH  12  13
TORSDOF 6
ENDMDL
MODEL 2
REMARK VINA RESULT:     -11.1      1.700      1.861
REMARK  Name = C:\Users\Docking\Desktop\test protocol\1iep_ligandH.pdb
REMARK  8 active torsions:
REMARK  status: ('A' for Active; 'I' for Inactive)
REMARK    1  A    between atoms: _5  and  _11
REMARK    2  A    between atoms: _19  and  _21
REMARK    3  A    between atoms: _22  and  _66
REMARK    4  A    between atoms: _27  and  _30
REMARK    5  A    between atoms: _32  and  _33
REMARK    6  A    between atoms: _38  and  _43
REMARK    7  A    between atoms: _43  and  _46
REMARK    8  A    between atoms: _53  and  _55
REMARK                            x       y       z     vdW  Elec       q    Type
REMARK                         _______ _______ _______ _____ _____    ______ ____
ROOT
ATOM     10  C   UNL     1       2.154   8.814  26.265  0.00  0.00    +0.038 A 
ATOM     11  C   UNL     1       3.460   8.516  25.800  0.00  0.00    +0.047 A 
ATOM     12  C   UNL     1       3.930   9.001  24.512  0.00  0.00    +0.035 A 
ATOM     32  C   UNL     1       3.044   9.791  23.724  0.00  0.00    +0.024 A 
ATOM     33  C   UNL     1       1.712  10.104  24.180  0.00  0.00    +0.007 A 
ATOM     34  C   UNL     1       1.242   9.625  25.449  0.00  0.00    -0.029 A 
ATOM     35  C   UNL     1      -0.197   9.985  25.884  0.00  0.00    +0.045 C 
ENDROOT
BRANCH  10   9
ATOM      4  C   UNL     1       2.602   8.498  31.033  0.00  0.00    +0.077 A 
ATOM      5  C   UNL     1       3.745   9.365  31.043  0.00  0.00    +0.048 A 
ATOM      6  C   UNL     1       4.190   9.865  29.798  0.00  0.00    +0.116 A 
ATOM      7  N   UNL     1       3.533   9.518  28.638  0.00  0.00    -0.223 NA
ATOM      8  C   UNL     1       2.435   8.678  28.664  0.00  0.00    +0.220 A 
ATOM      9  N   UNL     1       1.755   8.322  27.509  0.00  0.00    -0.283 N 
ATOM     36  H   UNL     1       0.954   7.694  27.570  0.00  0.00    +0.155 HD
ATOM     37  N   UNL     1       1.991   8.186  29.839  0.00  0.00    -0.214 NA
BRANCH   4   3
ATOM      1  C   UNL     1       1.963   7.484  34.757  0.00  0.00    +0.020 A 
ATOM      2  C   UNL     1       2.574   8.092  33.597  0.00  0.00    +0.013 A 
ATOM      3  C   UNL     1       2.010   7.891  32.267  0.00  0.00    +0.019 A 
ATOM     38  C   UNL     1       0.819   7.064  32.145  0.00  0.00    +0.120 A 
ATOM     39  N   UNL     1       0.254   6.490  33.280  0.00  0.00    -0.263 NA
ATOM     40  C   UNL     1       0.789   6.675  34.564  0.00  0.00    +0.111 A 
ENDBRANCH   4   3
ENDBRANCH  10   9
BRANCH  12  13
ATOM     13  N   UNL     1       5.243   8.723  23.985  0.00  0.00    -0.281 N 
ATOM     14  C   UNL     1       5.789   7.491  23.665  0.00  0.00    +0.248 C 
ATOM     30  O   UNL     1       5.305   6.416  23.987  0.00  0.00    -0.270 OA
ATOM     31  H   UNL     1       5.842   9.534  23.828  0.00  0.00    +0.155 HD
BRANCH  14  15
ATOM     15  C   UNL     1       7.065   7.446  22.888  0.00  0.00    +0.037 A 
ATOM     16  C   UNL     1       7.652   8.662  22.320  0.00  0.00    +0.013 A 
ATOM     17  C   UNL     1       8.875   8.589  21.561  0.00  0.00    +0.005 A 
ATOM     18  C   UNL     1       9.520   7.292  21.366  0.00  0.00    -0.033 A 
ATOM     28  C   UNL     1       8.919   6.102  21.944  0.00  0.00    +0.005 A 
ATOM     29  C   UNL     1       7.720   6.171  22.689  0.00  0.00    +0.013 A 
BRANCH  18  19
ATOM     19  C   UNL     1      10.815   7.117  20.551  0.00  0.00    +0.119 C 
BRANCH  19  20
ATOM     20  N   UNL     1      11.485   8.356  20.056  0.00  0.00    -0.302 NA
ATOM     21  C   UNL     1      10.937   8.802  18.698  0.00  0.00    +0.066 C 
ATOM     22  C   UNL     1      11.633  10.113  18.206  0.00  0.00    -0.064 C 
ATOM     23  N   UNL     1      13.144   9.888  18.133  0.00  0.00    +0.379 N 
ATOM     24  C   UNL     1      13.796  11.100  17.615  0.00  0.00    -0.096 C 
ATOM     25  H   UNL     1      13.328   9.066  17.402  0.00  0.00    -0.082 HD
ATOM     26  C   UNL     1      13.697   9.441  19.479  0.00  0.00    -0.064 C 
ATOM     27  C   UNL     1      12.978   8.155  19.972  0.00  0.00    +0.066 C 
ENDBRANCH  19  20
ENDBRANCH  18  19
ENDBRANCH  14  15
ENDBRANCH  12  13
TORSDOF 6
ENDMDL
MODEL 3
REMARK VINA RESULT:      -9.6      3.036     13.265
REMARK  Name = C:\Users\Docking\Desktop\test protocol\1iep_ligandH.pdb
REMARK  8 active torsions:
REMARK  status: ('A' for Active; 'I' for Inactive)
REMARK    1  A    between atoms: _5  and  _11
REMARK    2  A    between atoms: _19  and  _21
REMARK    3  A    between atoms: _22  and  _66
REMARK    4  A    between atoms: _27  and  _30
REMARK    5  A    between atoms: _32  and  _33
REMARK    6  A    between atoms: _38  and  _43
REMARK    7  A    between atoms: _43  and  _46
REMARK    8  A    between atoms: _53  and  _55
REMARK                            x       y       z     vdW  Elec       q    Type
REMARK                         _______ _______ _______ _____ _____    ______ ____
ROOT
ATOM     10  C   UNL     1       3.321  10.383  27.104  0.00  0.00    +0.038 A 
ATOM     11  C   UNL     1       3.248   9.709  28.349  0.00  0.00    +0.047 A 
ATOM     12  C   UNL     1       2.156   9.957  29.277  0.00  0.00    +0.035 A 
ATOM     32  C   UNL     1       1.152  10.897  28.903  0.00  0.00    +0.024 A 
ATOM     33  C   UNL     1       1.210  11.593  27.641  0.00  0.00    +0.007 A 
ATOM     34  C   UNL     1       2.287  11.354  26.723  0.00  0.00    -0.029 A 
ATOM     35  C   UNL     1       2.302  12.133  25.387  0.00  0.00    +0.045 C 
ENDROOT
BRANCH  10   9
ATOM      4  C   UNL     1       5.469   7.730  23.730  0.00  0.00    +0.077 A 
ATOM      5  C   UNL     1       4.377   6.801  23.681  0.00  0.00    +0.048 A 
ATOM      6  C   UNL     1       3.284   7.038  24.546  0.00  0.00    +0.116 A 
ATOM      7  N   UNL     1       3.294   8.126  25.391  0.00  0.00    -0.223 NA
ATOM      8  C   UNL     1       4.364   9.002  25.415  0.00  0.00    +0.220 A 
ATOM      9  N   UNL     1       4.392  10.107  26.251  0.00  0.00    -0.283 N 
ATOM     36  H   UNL     1       5.203  10.724  26.244  0.00  0.00    +0.155 HD
ATOM     37  N   UNL     1       5.420   8.796  24.600  0.00  0.00    -0.214 NA
BRANCH   4   3
ATOM      1  C   UNL     1       8.467   8.591  21.370  0.00  0.00    +0.020 A 
ATOM      2  C   UNL     1       7.283   8.754  22.182  0.00  0.00    +0.013 A 
ATOM      3  C   UNL     1       6.693   7.616  22.876  0.00  0.00    +0.019 A 
ATOM     38  C   UNL     1       7.331   6.317  22.727  0.00  0.00    +0.120 A 
ATOM     39  N   UNL     1       8.469   6.190  21.937  0.00  0.00    -0.263 NA
ATOM     40  C   UNL     1       9.045   7.277  21.263  0.00  0.00    +0.111 A 
ENDBRANCH   4   3
ENDBRANCH  10   9
BRANCH  12  13
ATOM     13  N   UNL     1       2.034   9.308  30.559  0.00  0.00    -0.281 N 
ATOM     14  C   UNL     1       1.833   7.962  30.816  0.00  0.00    +0.248 C 
ATOM     30  O   UNL     1       1.513   7.137  29.973  0.00  0.00    -0.270 OA
ATOM     31  H   UNL     1       2.104   9.915  31.376  0.00  0.00    +0.155 HD
BRANCH  14  15
ATOM     15  C   UNL     1       1.998   7.462  32.215  0.00  0.00    +0.037 A 
ATOM     16  C   UNL     1       2.574   8.309  33.262  0.00  0.00    +0.013 A 
ATOM     17  C   UNL     1       2.738   7.796  34.599  0.00  0.00    +0.005 A 
ATOM     18  C   UNL     1       2.322   6.427  34.897  0.00  0.00    -0.033 A 
ATOM     28  C   UNL     1       1.748   5.610  33.841  0.00  0.00    +0.005 A 
ATOM     29  C   UNL     1       1.588   6.109  32.529  0.00  0.00    +0.013 A 
BRANCH  18  19
ATOM     19  C   UNL     1       2.479   5.790  36.291  0.00  0.00    +0.119 C 
BRANCH  19  20
ATOM     20  N   UNL     1       1.743   4.516  36.547  0.00  0.00    -0.302 NA
ATOM     21  C   UNL     1       0.970   4.555  37.868  0.00  0.00    +0.066 C 
ATOM     22  C   UNL     1       0.188   3.223  38.109  0.00  0.00    -0.064 C 
ATOM     23  N   UNL     1       1.168   2.048  38.089  0.00  0.00    +0.379 N 
ATOM     24  C   UNL     1       0.444   0.800  38.372  0.00  0.00    -0.096 C 
ATOM     25  H   UNL     1       1.903   2.208  38.911  0.00  0.00    -0.082 HD
ATOM     26  C   UNL     1       1.942   2.004  36.779  0.00  0.00    -0.064 C 
ATOM     27  C   UNL     1       2.692   3.344  36.535  0.00  0.00    +0.066 C 
ENDBRANCH  19  20
ENDBRANCH  18  19
ENDBRANCH  14  15
ENDBRANCH  12  13
TORSDOF 6
ENDMDL
MODEL 4
REMARK VINA RESULT:      -9.1      2.386     12.791
REMARK  Name = C:\Users\Docking\Desktop\test protocol\1iep_ligandH.pdb
REMARK  8 active torsions:
REMARK  status: ('A' for Active; 'I' for Inactive)
REMARK    1  A    between atoms: _5  and  _11
REMARK    2  A    between atoms: _19  and  _21
REMARK    3  A    between atoms: _22  and  _66
REMARK    4  A    between atoms: _27  and  _30
REMARK    5  A    between atoms: _32  and  _33
REMARK    6  A    between atoms: _38  and  _43
REMARK    7  A    between atoms: _43  and  _46
REMARK    8  A    between atoms: _53  and  _55
REMARK                            x       y       z     vdW  Elec       q    Type
REMARK                         _______ _______ _______ _____ _____    ______ ____
ROOT
ATOM     10  C   UNL     1       3.172   8.866  24.897  0.00  0.00    +0.038 A 
ATOM     11  C   UNL     1       3.368   8.584  26.273  0.00  0.00    +0.047 A 
ATOM     12  C   UNL     1       2.249   8.252  27.140  0.00  0.00    +0.035 A 
ATOM     32  C   UNL     1       0.942   8.215  26.572  0.00  0.00    +0.024 A 
ATOM     33  C   UNL     1       0.724   8.501  25.176  0.00  0.00    +0.007 A 
ATOM     34  C   UNL     1       1.824   8.831  24.316  0.00  0.00    -0.029 A 
ATOM     35  C   UNL     1       1.531   9.134  22.828  0.00  0.00    +0.045 C 
ENDROOT
BRANCH  10   9
ATOM      4  C   UNL     1       7.202   7.649  22.591  0.00  0.00    +0.077 A 
ATOM      5  C   UNL     1       7.100   6.282  23.012  0.00  0.00    +0.048 A 
ATOM      6  C   UNL     1       5.999   5.934  23.827  0.00  0.00    +0.116 A 
ATOM      7  N   UNL     1       5.075   6.891  24.187  0.00  0.00    -0.223 NA
ATOM      8  C   UNL     1       5.204   8.201  23.766  0.00  0.00    +0.220 A 
ATOM      9  N   UNL     1       4.283   9.178  24.110  0.00  0.00    -0.283 N 
ATOM     36  H   UNL     1       4.417  10.135  23.785  0.00  0.00    +0.155 HD
ATOM     37  N   UNL     1       6.247   8.559  22.988  0.00  0.00    -0.214 NA
BRANCH   4   3
ATOM      1  C   UNL     1       9.382   9.960  20.309  0.00  0.00    +0.020 A 
ATOM      2  C   UNL     1       8.290   9.505  21.138  0.00  0.00    +0.013 A 
ATOM      3  C   UNL     1       8.306   8.171  21.725  0.00  0.00    +0.019 A 
ATOM     38  C   UNL     1       9.451   7.316  21.451  0.00  0.00    +0.120 A 
ATOM     39  N   UNL     1      10.487   7.780  20.648  0.00  0.00    -0.263 NA
ATOM     40  C   UNL     1      10.482   9.062  20.076  0.00  0.00    +0.111 A 
ENDBRANCH   4   3
ENDBRANCH  10   9
BRANCH  12  13
ATOM     13  N   UNL     1       2.386   7.964  28.547  0.00  0.00    -0.281 N 
ATOM     14  C   UNL     1       2.363   8.858  29.605  0.00  0.00    +0.248 C 
ATOM     30  O   UNL     1       2.435  10.072  29.486  0.00  0.00    -0.270 OA
ATOM     31  H   UNL     1       2.516   6.983  28.791  0.00  0.00    +0.155 HD
BRANCH  14  15
ATOM     15  C   UNL     1       2.260   8.324  30.998  0.00  0.00    +0.037 A 
ATOM     16  C   UNL     1       3.302   8.592  31.993  0.00  0.00    +0.013 A 
ATOM     17  C   UNL     1       3.186   8.051  33.324  0.00  0.00    +0.005 A 
ATOM     18  C   UNL     1       2.022   7.239  33.668  0.00  0.00    -0.033 A 
ATOM     28  C   UNL     1       1.001   6.993  32.663  0.00  0.00    +0.005 A 
ATOM     29  C   UNL     1       1.112   7.521  31.357  0.00  0.00    +0.013 A 
BRANCH  18  19
ATOM     19  C   UNL     1       1.827   6.604  35.058  0.00  0.00    +0.119 C 
BRANCH  19  20
ATOM     20  N   UNL     1       2.058   5.133  35.177  0.00  0.00    -0.302 NA
ATOM     21  C   UNL     1       0.745   4.344  35.178  0.00  0.00    +0.066 C 
ATOM     22  C   UNL     1       1.006   2.806  35.280  0.00  0.00    -0.064 C 
ATOM     23  N   UNL     1       1.816   2.512  36.544  0.00  0.00    +0.379 N 
ATOM     24  C   UNL     1       2.013   1.061  36.673  0.00  0.00    -0.096 C 
ATOM     25  H   UNL     1       1.213   2.851  37.418  0.00  0.00    -0.082 HD
ATOM     26  C   UNL     1       3.121   3.295  36.552  0.00  0.00    -0.064 C 
ATOM     27  C   UNL     1       2.852   4.820  36.421  0.00  0.00    +0.066 C 
ENDBRANCH  19  20
ENDBRANCH  18  19
ENDBRANCH  14  15
ENDBRANCH  12  13
TORSDOF 6
ENDMDL
MODEL 5
REMARK VINA RESULT:      -9.1      9.769     17.700
REMARK  Name = C:\Users\Docking\Desktop\test protocol\1iep_ligandH.pdb
REMARK  8 active torsions:
REMARK  status: ('A' for Active; 'I' for Inactive)
REMARK    1  A    between atoms: _5  and  _11
REMARK    2  A    between atoms: _19  and  _21
REMARK    3  A    between atoms: _22  and  _66
REMARK    4  A    between atoms: _27  and  _30
REMARK    5  A    between atoms: _32  and  _33
REMARK    6  A    between atoms: _38  and  _43
REMARK    7  A    between atoms: _43  and  _46
REMARK    8  A    between atoms: _53  and  _55
REMARK                            x       y       z     vdW  Elec       q    Type
REMARK                         _______ _______ _______ _____ _____    ______ ____
ROOT
ATOM     10  C   UNL     1      18.184   9.982  19.539  0.00  0.00    +0.038 A 
ATOM     11  C   UNL     1      18.639  11.025  18.693  0.00  0.00    +0.047 A 
ATOM     12  C   UNL     1      20.024  11.087  18.253  0.00  0.00    +0.035 A 
ATOM     32  C   UNL     1      20.919  10.068  18.693  0.00  0.00    +0.024 A 
ATOM     33  C   UNL     1      20.473   9.001  19.554  0.00  0.00    +0.007 A 
ATOM     34  C   UNL     1      19.109   8.936  19.993  0.00  0.00    -0.029 A 
ATOM     35  C   UNL     1      18.688   7.773  20.921  0.00  0.00    +0.045 C 
ENDROOT
BRANCH  10   9
ATOM      4  C   UNL     1      13.525   9.227  18.666  0.00  0.00    +0.077 A 
ATOM      5  C   UNL     1      13.781   8.847  17.306  0.00  0.00    +0.048 A 
ATOM      6  C   UNL     1      15.124   8.866  16.869  0.00  0.00    +0.116 A 
ATOM      7  N   UNL     1      16.129   9.238  17.735  0.00  0.00    -0.223 NA
ATOM      8  C   UNL     1      15.848   9.601  19.040  0.00  0.00    +0.220 A 
ATOM      9  N   UNL     1      16.843   9.971  19.931  0.00  0.00    -0.283 N 
ATOM     36  H   UNL     1      16.594  10.239  20.883  0.00  0.00    +0.155 HD
ATOM     37  N   UNL     1      14.573   9.592  19.481  0.00  0.00    -0.214 NA
BRANCH   4   3
ATOM      1  C   UNL     1       9.876  10.277  19.606  0.00  0.00    +0.020 A 
ATOM      2  C   UNL     1      11.183  10.297  18.989  0.00  0.00    +0.013 A 
ATOM      3  C   UNL     1      12.158   9.254  19.277  0.00  0.00    +0.019 A 
ATOM     38  C   UNL     1      11.777   8.194  20.199  0.00  0.00    +0.120 A 
ATOM     39  N   UNL     1      10.512   8.201  20.778  0.00  0.00    -0.263 NA
ATOM     40  C   UNL     1       9.566   9.201  20.511  0.00  0.00    +0.111 A 
ENDBRANCH   4   3
ENDBRANCH  10   9
BRANCH  12  13
ATOM     13  N   UNL     1      20.546  12.126  17.401  0.00  0.00    -0.281 N 
ATOM     14  C   UNL     1      21.408  13.155  17.742  0.00  0.00    +0.248 C 
ATOM     30  O   UNL     1      21.696  13.464  18.889  0.00  0.00    -0.270 OA
ATOM     31  H   UNL     1      20.242  12.101  16.427  0.00  0.00    +0.155 HD
BRANCH  14  15
ATOM     15  C   UNL     1      22.030  13.967  16.653  0.00  0.00    +0.037 A 
ATOM     16  C   UNL     1      21.213  14.595  15.611  0.00  0.00    +0.013 A 
ATOM     17  C   UNL     1      21.840  15.359  14.562  0.00  0.00    +0.005 A 
ATOM     18  C   UNL     1      23.294  15.501  14.550  0.00  0.00    -0.033 A 
ATOM     28  C   UNL     1      24.080  14.873  15.599  0.00  0.00    +0.005 A 
ATOM     29  C   UNL     1      23.469  14.122  16.628  0.00  0.00    +0.013 A 
BRANCH  18  19
ATOM     19  C   UNL     1      24.049  16.281  13.458  0.00  0.00    +0.119 C 
BRANCH  19  20
ATOM     20  N   UNL     1      24.929  17.402  13.902  0.00  0.00    -0.302 NA
ATOM     21  C   UNL     1      24.121  18.608  14.389  0.00  0.00    +0.066 C 
ATOM     22  C   UNL     1      25.057  19.764  14.872  0.00  0.00    -0.064 C 
ATOM     23  N   UNL     1      25.995  20.165  13.733  0.00  0.00    +0.379 N 
ATOM     24  C   UNL     1      26.837  21.291  14.165  0.00  0.00    -0.096 C 
ATOM     25  H   UNL     1      25.365  20.520  12.885  0.00  0.00    -0.082 HD
ATOM     26  C   UNL     1      26.801  18.971  13.241  0.00  0.00    -0.064 C 
ATOM     27  C   UNL     1      25.862  17.818  12.791  0.00  0.00    +0.066 C 
ENDBRANCH  19  20
ENDBRANCH  18  19
ENDBRANCH  14  15
ENDBRANCH  12  13
TORSDOF 6
ENDMDL
