MODEL 1
REMARK VINA RESULT:     -12.1      0.000      0.000
REMARK  Name = C:\Users\Docking\Desktop\test protocol\1iep_ligandH.pdb
REMARK  8 active torsions:
REMARK  status: ('A' for Active; 'I' for Inactive)
REMARK    1  A    between atoms: _5  and  _11
REMARK    2  A    between atoms: _19  and  _21
REMARK    3  A    between atoms: _22  and  _66
REMARK    4  A    between atoms: _27  and  _30
REMARK    5  A    between atoms: _32  and  _33
REMARK    6  A    between atoms: _38  and  _43
REMARK    7  A    between atoms: _43  and  _46
REMARK    8  A    between atoms: _53  and  _55
REMARK                            x       y       z     vdW  Elec       q    Type
REMARK                         _______ _______ _______ _____ _____    ______ ____
ROOT
ATOM     10  C   UNL     1      19.844  -2.764 -21.252  0.00  0.00    +0.038 A 
ATOM     11  C   UNL     1      18.745  -3.365 -20.586  0.00  0.00    +0.047 A 
ATOM     12  C   UNL     1      18.938  -4.479 -19.670  0.00  0.00    +0.035 A 
ATOM     32  C   UNL     1      20.264  -4.954 -19.454  0.00  0.00    +0.024 A 
ATOM     33  C   UNL     1      21.392  -4.356 -20.124  0.00  0.00    +0.007 A 
ATOM     34  C   UNL     1      21.208  -3.259 -21.030  0.00  0.00    -0.029 A 
ATOM     35  C   UNL     1      22.454  -2.661 -21.725  0.00  0.00    +0.045 C 
ENDROOT
BRANCH  10   9
ATOM      4  C   UNL     1      19.006   1.881 -22.119  0.00  0.00    +0.077 A 
ATOM      5  C   UNL     1      19.026   2.206 -20.722  0.00  0.00    +0.048 A 
ATOM      6  C   UNL     1      19.248   1.148 -19.812  0.00  0.00    +0.116 A 
ATOM      7  N   UNL     1      19.435  -0.136 -20.277  0.00  0.00    -0.223 NA
ATOM      8  C   UNL     1      19.408  -0.415 -21.631  0.00  0.00    +0.220 A 
ATOM      9  N   UNL     1      19.602  -1.698 -22.120  0.00  0.00    -0.283 N 
ATOM     36  H   UNL     1      19.567  -1.864 -23.126  0.00  0.00    +0.155 HD
ATOM     37  N   UNL     1      19.196   0.578 -22.519  0.00  0.00    -0.214 NA
BRANCH   4   3
ATOM      1  C   UNL     1      18.124   5.182 -24.023  0.00  0.00    +0.020 A 
ATOM      2  C   UNL     1      18.320   4.246 -22.940  0.00  0.00    +0.013 A 
ATOM      3  C   UNL     1      18.786   2.891 -23.203  0.00  0.00    +0.019 A 
ATOM     38  C   UNL     1      19.048   2.511 -24.583  0.00  0.00    +0.120 A 
ATOM     39  N   UNL     1      18.849   3.434 -25.605  0.00  0.00    -0.263 NA
ATOM     40  C   UNL     1      18.399   4.741 -25.365  0.00  0.00    +0.111 A 
ENDBRANCH   4   3
ENDBRANCH  10   9
BRANCH  12  13
ATOM     13  N   UNL     1      17.860  -5.134 -18.971  0.00  0.00    -0.281 N 
ATOM     14  C   UNL     1      16.614  -5.484 -19.465  0.00  0.00    +0.248 C 
ATOM     30  O   UNL     1      16.157  -5.093 -20.529  0.00  0.00    -0.270 OA
ATOM     31  H   UNL     1      18.037  -5.367 -17.994  0.00  0.00    +0.155 HD
BRANCH  14  15
ATOM     15  C   UNL     1      15.743  -6.387 -18.653  0.00  0.00    +0.037 A 
ATOM     16  C   UNL     1      16.099  -6.752 -17.279  0.00  0.00    +0.013 A 
ATOM     17  C   UNL     1      15.250  -7.639 -16.523  0.00  0.00    +0.005 A 
ATOM     18  C   UNL     1      14.036  -8.167 -17.141  0.00  0.00    -0.033 A 
ATOM     28  C   UNL     1      13.705  -7.785 -18.503  0.00  0.00    +0.005 A 
ATOM     29  C   UNL     1      14.534  -6.916 -19.247  0.00  0.00    +0.013 A 
BRANCH  18  19
ATOM     19  C   UNL     1      13.083  -9.136 -16.416  0.00  0.00    +0.119 C 
BRANCH  19  20
ATOM     20  N   UNL     1      12.887  -8.934 -14.950  0.00  0.00    -0.302 NA
ATOM     21  C   UNL     1      12.162 -10.115 -14.299  0.00  0.00    +0.066 C 
ATOM     22  C   UNL     1      11.985  -9.897 -12.761  0.00  0.00    -0.064 C 
ATOM     23  N   UNL     1      11.223  -8.594 -12.518  0.00  0.00    +0.379 N 
ATOM     24  C   UNL     1      11.004  -8.415 -11.075  0.00  0.00    -0.096 C 
ATOM     25  H   UNL     1      10.223  -8.691 -13.002  0.00  0.00    -0.082 HD
ATOM     26  C   UNL     1      11.935  -7.414 -13.164  0.00  0.00    -0.064 C 
ATOM     27  C   UNL     1      12.132  -7.654 -14.687  0.00  0.00    +0.066 C 
ENDBRANCH  19  20
ENDBRANCH  18  19
ENDBRANCH  14  15
ENDBRANCH  12  13
TORSDOF 6
ENDMDL
MODEL 2
REMARK VINA RESULT:      -9.5      2.700     12.683
REMARK  Name = C:\Users\Docking\Desktop\test protocol\1iep_ligandH.pdb
REMARK  8 active torsions:
REMARK  status: ('A' for Active; 'I' for Inactive)
REMARK    1  A    between atoms: _5  and  _11
REMARK    2  A    between atoms: _19  and  _21
REMARK    3  A    between atoms: _22  and  _66
REMARK    4  A    between atoms: _27  and  _30
REMARK    5  A    between atoms: _32  and  _33
REMARK    6  A    between atoms: _38  and  _43
REMARK    7  A    between atoms: _43  and  _46
REMARK    8  A    between atoms: _53  and  _55
REMARK                            x       y       z     vdW  Elec       q    Type
REMARK                         _______ _______ _______ _____ _____    ______ ____
ROOT
ATOM     10  C   UNL     1      18.937  -3.563 -19.455  0.00  0.00    +0.038 A 
ATOM     11  C   UNL     1      18.347  -2.402 -20.017  0.00  0.00    +0.047 A 
ATOM     12  C   UNL     1      18.968  -1.706 -21.133  0.00  0.00    +0.035 A 
ATOM     32  C   UNL     1      20.190  -2.222 -21.654  0.00  0.00    +0.024 A 
ATOM     33  C   UNL     1      20.805  -3.400 -21.095  0.00  0.00    +0.007 A 
ATOM     34  C   UNL     1      20.198  -4.089 -19.992  0.00  0.00    -0.029 A 
ATOM     35  C   UNL     1      20.905  -5.344 -19.428  0.00  0.00    +0.045 C 
ENDROOT
BRANCH  10   9
ATOM      4  C   UNL     1      15.651  -6.565 -17.660  0.00  0.00    +0.077 A 
ATOM      5  C   UNL     1      15.149  -6.889 -18.964  0.00  0.00    +0.048 A 
ATOM      6  C   UNL     1      15.759  -6.256 -20.070  0.00  0.00    +0.116 A 
ATOM      7  N   UNL     1      16.793  -5.367 -19.875  0.00  0.00    -0.223 NA
ATOM      8  C   UNL     1      17.253  -5.076 -18.604  0.00  0.00    +0.220 A 
ATOM      9  N   UNL     1      18.297  -4.191 -18.384  0.00  0.00    -0.283 N 
ATOM     36  H   UNL     1      18.602  -3.997 -17.431  0.00  0.00    +0.155 HD
ATOM     37  N   UNL     1      16.686  -5.666 -17.531  0.00  0.00    -0.214 NA
BRANCH   4   3
ATOM      1  C   UNL     1      15.298  -7.752 -13.949  0.00  0.00    +0.020 A 
ATOM      2  C   UNL     1      15.864  -7.171 -15.145  0.00  0.00    +0.013 A 
ATOM      3  C   UNL     1      15.112  -7.154 -16.393  0.00  0.00    +0.019 A 
ATOM     38  C   UNL     1      13.779  -7.738 -16.398  0.00  0.00    +0.120 A 
ATOM     39  N   UNL     1      13.260  -8.291 -15.232  0.00  0.00    -0.263 NA
ATOM     40  C   UNL     1      13.976  -8.315 -14.025  0.00  0.00    +0.111 A 
ENDBRANCH   4   3
ENDBRANCH  10   9
BRANCH  12  13
ATOM     13  N   UNL     1      18.419  -0.519 -21.739  0.00  0.00    -0.281 N 
ATOM     14  C   UNL     1      18.770   0.800 -21.500  0.00  0.00    +0.248 C 
ATOM     30  O   UNL     1      19.467   1.171 -20.567  0.00  0.00    -0.270 OA
ATOM     31  H   UNL     1      17.681  -0.668 -22.428  0.00  0.00    +0.155 HD
BRANCH  14  15
ATOM     15  C   UNL     1      18.263   1.861 -22.423  0.00  0.00    +0.037 A 
ATOM     16  C   UNL     1      18.846   3.205 -22.428  0.00  0.00    +0.013 A 
ATOM     17  C   UNL     1      18.327   4.215 -23.316  0.00  0.00    +0.005 A 
ATOM     18  C   UNL     1      17.218   3.883 -24.208  0.00  0.00    -0.033 A 
ATOM     28  C   UNL     1      16.663   2.540 -24.186  0.00  0.00    +0.005 A 
ATOM     29  C   UNL     1      17.168   1.548 -23.316  0.00  0.00    +0.013 A 
BRANCH  18  19
ATOM     19  C   UNL     1      16.587   4.903 -25.174  0.00  0.00    +0.119 C 
BRANCH  19  20
ATOM     20  N   UNL     1      16.155   6.212 -24.599  0.00  0.00    -0.302 NA
ATOM     21  C   UNL     1      15.127   6.036 -23.478  0.00  0.00    +0.066 C 
ATOM     22  C   UNL     1      14.704   7.414 -22.873  0.00  0.00    -0.064 C 
ATOM     23  N   UNL     1      14.147   8.306 -23.984  0.00  0.00    +0.379 N 
ATOM     24  C   UNL     1      13.694   9.581 -23.408  0.00  0.00    -0.096 C 
ATOM     25  H   UNL     1      13.255   7.793 -24.414  0.00  0.00    -0.082 HD
ATOM     26  C   UNL     1      15.162   8.484 -25.104  0.00  0.00    -0.064 C 
ATOM     27  C   UNL     1      15.598   7.107 -25.678  0.00  0.00    +0.066 C 
ENDBRANCH  19  20
ENDBRANCH  18  19
ENDBRANCH  14  15
ENDBRANCH  12  13
TORSDOF 6
ENDMDL
MODEL 3
REMARK VINA RESULT:      -9.3      8.143     15.339
REMARK  Name = C:\Users\Docking\Desktop\test protocol\1iep_ligandH.pdb
REMARK  8 active torsions:
REMARK  status: ('A' for Active; 'I' for Inactive)
REMARK    1  A    between atoms: _5  and  _11
REMARK    2  A    between atoms: _19  and  _21
REMARK    3  A    between atoms: _22  and  _66
REMARK    4  A    between atoms: _27  and  _30
REMARK    5  A    between atoms: _32  and  _33
REMARK    6  A    between atoms: _38  and  _43
REMARK    7  A    between atoms: _43  and  _46
REMARK    8  A    between atoms: _53  and  _55
REMARK                            x       y       z     vdW  Elec       q    Type
REMARK                         _______ _______ _______ _____ _____    ______ ____
ROOT
ATOM     10  C   UNL     1      12.591  -8.757 -13.414  0.00  0.00    +0.038 A 
ATOM     11  C   UNL     1      13.591  -8.097 -12.655  0.00  0.00    +0.047 A 
ATOM     12  C   UNL     1      14.633  -7.316 -13.303  0.00  0.00    +0.035 A 
ATOM     32  C   UNL     1      14.625  -7.225 -14.725  0.00  0.00    +0.024 A 
ATOM     33  C   UNL     1      13.616  -7.890 -15.512  0.00  0.00    +0.007 A 
ATOM     34  C   UNL     1      12.587  -8.665 -14.879  0.00  0.00    -0.029 A 
ATOM     35  C   UNL     1      11.535  -9.361 -15.773  0.00  0.00    +0.045 C 
ENDROOT
BRANCH  10   9
ATOM      4  C   UNL     1      11.021 -12.775 -11.309  0.00  0.00    +0.077 A 
ATOM      5  C   UNL     1      12.240 -13.473 -11.599  0.00  0.00    +0.048 A 
ATOM      6  C   UNL     1      13.244 -12.765 -12.298  0.00  0.00    +0.116 A 
ATOM      7  N   UNL     1      13.033 -11.456 -12.673  0.00  0.00    -0.223 NA
ATOM      8  C   UNL     1      11.845 -10.812 -12.379  0.00  0.00    +0.220 A 
ATOM      9  N   UNL     1      11.614  -9.494 -12.741  0.00  0.00    -0.283 N 
ATOM     36  H   UNL     1      10.721  -9.057 -12.512  0.00  0.00    +0.155 HD
ATOM     37  N   UNL     1      10.870 -11.468 -11.714  0.00  0.00    -0.214 NA
BRANCH   4   3
ATOM      1  C   UNL     1       7.830 -14.867 -10.449  0.00  0.00    +0.020 A 
ATOM      2  C   UNL     1       8.926 -14.303 -11.203  0.00  0.00    +0.013 A 
ATOM      3  C   UNL     1       9.869 -13.387 -10.575  0.00  0.00    +0.019 A 
ATOM     38  C   UNL     1       9.674 -13.059  -9.170  0.00  0.00    +0.120 A 
ATOM     39  N   UNL     1       8.609 -13.616  -8.470  0.00  0.00    -0.263 NA
ATOM     40  C   UNL     1       7.694 -14.498  -9.065  0.00  0.00    +0.111 A 
ENDBRANCH   4   3
ENDBRANCH  10   9
BRANCH  12  13
ATOM     13  N   UNL     1      15.680  -6.630 -12.585  0.00  0.00    -0.281 N 
ATOM     14  C   UNL     1      16.942  -7.102 -12.265  0.00  0.00    +0.248 C 
ATOM     30  O   UNL     1      17.289  -8.270 -12.362  0.00  0.00    -0.270 OA
ATOM     31  H   UNL     1      15.463  -5.683 -12.276  0.00  0.00    +0.155 HD
BRANCH  14  15
ATOM     15  C   UNL     1      17.963  -6.140 -11.749  0.00  0.00    +0.037 A 
ATOM     16  C   UNL     1      19.359  -6.542 -11.559  0.00  0.00    +0.013 A 
ATOM     17  C   UNL     1      20.320  -5.599 -11.044  0.00  0.00    +0.005 A 
ATOM     18  C   UNL     1      19.886  -4.243 -10.715  0.00  0.00    -0.033 A 
ATOM     28  C   UNL     1      18.496  -3.869 -10.918  0.00  0.00    +0.005 A 
ATOM     29  C   UNL     1      17.552  -4.791 -11.422  0.00  0.00    +0.013 A 
BRANCH  18  19
ATOM     19  C   UNL     1      20.838  -3.177 -10.140  0.00  0.00    +0.119 C 
BRANCH  19  20
ATOM     20  N   UNL     1      21.379  -2.159 -11.090  0.00  0.00    -0.302 NA
ATOM     21  C   UNL     1      22.677  -2.627 -11.755  0.00  0.00    +0.066 C 
ATOM     22  C   UNL     1      23.217  -1.560 -12.762  0.00  0.00    -0.064 C 
ATOM     23  N   UNL     1      23.431  -0.234 -12.030  0.00  0.00    +0.379 N 
ATOM     24  C   UNL     1      23.993   0.755 -12.961  0.00  0.00    -0.096 C 
ATOM     25  H   UNL     1      24.184  -0.409 -11.227  0.00  0.00    -0.082 HD
ATOM     26  C   UNL     1      22.146   0.237 -11.363  0.00  0.00    -0.064 C 
ATOM     27  C   UNL     1      21.602  -0.843 -10.387  0.00  0.00    +0.066 C 
ENDBRANCH  19  20
ENDBRANCH  18  19
ENDBRANCH  14  15
ENDBRANCH  12  13
TORSDOF 6
ENDMDL
MODEL 4
REMARK VINA RESULT:      -9.1      6.315     16.620
REMARK  Name = C:\Users\Docking\Desktop\test protocol\1iep_ligandH.pdb
REMARK  8 active torsions:
REMARK  status: ('A' for Active; 'I' for Inactive)
REMARK    1  A    between atoms: _5  and  _11
REMARK    2  A    between atoms: _19  and  _21
REMARK    3  A    between atoms: _22  and  _66
REMARK    4  A    between atoms: _27  and  _30
REMARK    5  A    between atoms: _32  and  _33
REMARK    6  A    between atoms: _38  and  _43
REMARK    7  A    between atoms: _43  and  _46
REMARK    8  A    between atoms: _53  and  _55
REMARK                            x       y       z     vdW  Elec       q    Type
REMARK                         _______ _______ _______ _____ _____    ______ ____
ROOT
ATOM     10  C   UNL     1      16.345   2.835 -24.448  0.00  0.00    +0.038 A 
ATOM     11  C   UNL     1      17.295   3.707 -25.040  0.00  0.00    +0.047 A 
ATOM     12  C   UNL     1      16.919   5.042 -25.480  0.00  0.00    +0.035 A 
ATOM     32  C   UNL     1      15.567   5.457 -25.300  0.00  0.00    +0.024 A 
ATOM     33  C   UNL     1      14.589   4.583 -24.702  0.00  0.00    +0.007 A 
ATOM     34  C   UNL     1      14.953   3.265 -24.268  0.00  0.00    -0.029 A 
ATOM     35  C   UNL     1      13.861   2.368 -23.638  0.00  0.00    +0.045 C 
ENDROOT
BRANCH  10   9
ATOM      4  C   UNL     1      18.896  -0.080 -21.614  0.00  0.00    +0.077 A 
ATOM      5  C   UNL     1      19.469   1.022 -20.896  0.00  0.00    +0.048 A 
ATOM      6  C   UNL     1      19.087   2.323 -21.293  0.00  0.00    +0.116 A 
ATOM      7  N   UNL     1      18.197   2.498 -22.330  0.00  0.00    -0.223 NA
ATOM      8  C   UNL     1      17.664   1.413 -23.002  0.00  0.00    +0.220 A 
ATOM      9  N   UNL     1      16.761   1.565 -24.043  0.00  0.00    -0.283 N 
ATOM     36  H   UNL     1      16.396   0.740 -24.518  0.00  0.00    +0.155 HD
ATOM     37  N   UNL     1      18.014   0.160 -22.644  0.00  0.00    -0.214 NA
BRANCH   4   3
ATOM      1  C   UNL     1      18.509  -3.870 -20.727  0.00  0.00    +0.020 A 
ATOM      2  C   UNL     1      18.163  -2.497 -21.013  0.00  0.00    +0.013 A 
ATOM      3  C   UNL     1      19.198  -1.515 -21.311  0.00  0.00    +0.019 A 
ATOM     38  C   UNL     1      20.584  -1.959 -21.312  0.00  0.00    +0.120 A 
ATOM     39  N   UNL     1      20.887  -3.287 -21.032  0.00  0.00    -0.263 NA
ATOM     40  C   UNL     1      19.900  -4.241 -20.743  0.00  0.00    +0.111 A 
ENDBRANCH   4   3
ENDBRANCH  10   9
BRANCH  12  13
ATOM     13  N   UNL     1      17.837   5.968 -26.095  0.00  0.00    -0.281 N 
ATOM     14  C   UNL     1      19.217   5.874 -26.172  0.00  0.00    +0.248 C 
ATOM     30  O   UNL     1      19.893   5.081 -25.533  0.00  0.00    -0.270 OA
ATOM     31  H   UNL     1      17.419   6.793 -26.526  0.00  0.00    +0.155 HD
BRANCH  14  15
ATOM     15  C   UNL     1      19.955   6.806 -27.078  0.00  0.00    +0.037 A 
ATOM     16  C   UNL     1      19.242   7.672 -28.020  0.00  0.00    +0.013 A 
ATOM     17  C   UNL     1      19.979   8.550 -28.895  0.00  0.00    +0.005 A 
ATOM     18  C   UNL     1      21.438   8.565 -28.831  0.00  0.00    -0.033 A 
ATOM     28  C   UNL     1      22.119   7.699 -27.883  0.00  0.00    +0.005 A 
ATOM     29  C   UNL     1      21.401   6.838 -27.024  0.00  0.00    +0.013 A 
BRANCH  18  19
ATOM     19  C   UNL     1      22.306   9.454 -29.741  0.00  0.00    +0.119 C 
BRANCH  19  20
ATOM     20  N   UNL     1      23.215  10.434 -29.075  0.00  0.00    -0.302 NA
ATOM     21  C   UNL     1      22.452  11.390 -28.153  0.00  0.00    +0.066 C 
ATOM     22  C   UNL     1      23.421  12.394 -27.447  0.00  0.00    -0.064 C 
ATOM     23  N   UNL     1      24.205  13.172 -28.506  0.00  0.00    +0.379 N 
ATOM     24  C   UNL     1      25.074  14.157 -27.847  0.00  0.00    -0.096 C 
ATOM     25  H   UNL     1      23.468  13.733 -29.127  0.00  0.00    -0.082 HD
ATOM     26  C   UNL     1      24.964  12.229 -29.429  0.00  0.00    -0.064 C 
ATOM     27  C   UNL     1      23.995  11.217 -30.103  0.00  0.00    +0.066 C 
ENDBRANCH  19  20
ENDBRANCH  18  19
ENDBRANCH  14  15
ENDBRANCH  12  13
TORSDOF 6
ENDMDL
MODEL 5
REMARK VINA RESULT:      -9.1      6.491     17.281
REMARK  Name = C:\Users\Docking\Desktop\test protocol\1iep_ligandH.pdb
REMARK  8 active torsions:
REMARK  status: ('A' for Active; 'I' for Inactive)
REMARK    1  A    between atoms: _5  and  _11
REMARK    2  A    between atoms: _19  and  _21
REMARK    3  A    between atoms: _22  and  _66
REMARK    4  A    between atoms: _27  and  _30
REMARK    5  A    between atoms: _32  and  _33
REMARK    6  A    between atoms: _38  and  _43
REMARK    7  A    between atoms: _43  and  _46
REMARK    8  A    between atoms: _53  and  _55
REMARK                            x       y       z     vdW  Elec       q    Type
REMARK                         _______ _______ _______ _____ _____    ______ ____
ROOT
ATOM     10  C   UNL     1      18.461   2.681 -24.469  0.00  0.00    +0.038 A 
ATOM     11  C   UNL     1      19.419   3.628 -24.913  0.00  0.00    +0.047 A 
ATOM     12  C   UNL     1      19.014   4.937 -25.401  0.00  0.00    +0.035 A 
ATOM     32  C   UNL     1      17.623   5.249 -25.421  0.00  0.00    +0.024 A 
ATOM     33  C   UNL     1      16.635   4.298 -24.975  0.00  0.00    +0.007 A 
ATOM     34  C   UNL     1      17.030   3.004 -24.495  0.00  0.00    -0.029 A 
ATOM     35  C   UNL     1      15.927   2.022 -24.035  0.00  0.00    +0.045 C 
ENDROOT
BRANCH  10   9
ATOM      4  C   UNL     1      19.665  -0.346 -20.944  0.00  0.00    +0.077 A 
ATOM      5  C   UNL     1      19.411   0.638 -19.932  0.00  0.00    +0.048 A 
ATOM      6  C   UNL     1      18.979   1.913 -20.361  0.00  0.00    +0.116 A 
ATOM      7  N   UNL     1      18.816   2.173 -21.704  0.00  0.00    -0.223 NA
ATOM      8  C   UNL     1      19.071   1.202 -22.655  0.00  0.00    +0.220 A 
ATOM      9  N   UNL     1      18.907   1.439 -24.011  0.00  0.00    -0.283 N 
ATOM     36  H   UNL     1      19.113   0.698 -24.681  0.00  0.00    +0.155 HD
ATOM     37  N   UNL     1      19.487  -0.023 -22.271  0.00  0.00    -0.214 NA
BRANCH   4   3
ATOM      1  C   UNL     1      21.773  -3.640 -20.843  0.00  0.00    +0.020 A 
ATOM      2  C   UNL     1      21.375  -2.287 -21.158  0.00  0.00    +0.013 A 
ATOM      3  C   UNL     1      20.124  -1.740 -20.649  0.00  0.00    +0.019 A 
ATOM     38  C   UNL     1      19.291  -2.595 -19.817  0.00  0.00    +0.120 A 
ATOM     39  N   UNL     1      19.699  -3.895 -19.531  0.00  0.00    -0.263 NA
ATOM     40  C   UNL     1      20.900  -4.432 -20.017  0.00  0.00    +0.111 A 
ENDBRANCH   4   3
ENDBRANCH  10   9
BRANCH  12  13
ATOM     13  N   UNL     1      19.941   5.936 -25.871  0.00  0.00    -0.281 N 
ATOM     14  C   UNL     1      19.990   6.529 -27.122  0.00  0.00    +0.248 C 
ATOM     30  O   UNL     1      19.374   6.133 -28.100  0.00  0.00    -0.270 OA
ATOM     31  H   UNL     1      20.646   6.243 -25.201  0.00  0.00    +0.155 HD
BRANCH  14  15
ATOM     15  C   UNL     1      20.862   7.728 -27.318  0.00  0.00    +0.037 A 
ATOM     16  C   UNL     1      20.319   8.986 -27.836  0.00  0.00    +0.013 A 
ATOM     17  C   UNL     1      21.185  10.121 -28.032  0.00  0.00    +0.005 A 
ATOM     18  C   UNL     1      22.604  10.004 -27.708  0.00  0.00    -0.033 A 
ATOM     28  C   UNL     1      23.116   8.745 -27.191  0.00  0.00    +0.005 A 
ATOM     29  C   UNL     1      22.270   7.630 -26.999  0.00  0.00    +0.013 A 
BRANCH  18  19
ATOM     19  C   UNL     1      23.606  11.157 -27.906  0.00  0.00    +0.119 C 
BRANCH  19  20
ATOM     20  N   UNL     1      24.770  10.905 -28.806  0.00  0.00    -0.302 NA
ATOM     21  C   UNL     1      26.047  11.578 -28.295  0.00  0.00    +0.066 C 
ATOM     22  C   UNL     1      27.260  11.285 -29.237  0.00  0.00    -0.064 C 
ATOM     23  N   UNL     1      26.928  11.758 -30.654  0.00  0.00    +0.379 N 
ATOM     24  C   UNL     1      28.089  11.537 -31.529  0.00  0.00    -0.096 C 
ATOM     25  H   UNL     1      26.743  12.856 -30.608  0.00  0.00    -0.082 HD
ATOM     26  C   UNL     1      25.658  11.096 -31.168  0.00  0.00    -0.064 C 
ATOM     27  C   UNL     1      24.465  11.368 -30.210  0.00  0.00    +0.066 C 
ENDBRANCH  19  20
ENDBRANCH  18  19
ENDBRANCH  14  15
ENDBRANCH  12  13
TORSDOF 6
ENDMDL
