MODEL 1
REMARK VINA RESULT:      -8.7      0.000      0.000
REMARK  Name = C:\Users\Docking\Desktop\test protocol\1iep_ligandH.pdb
REMARK  8 active torsions:
REMARK  status: ('A' for Active; 'I' for Inactive)
REMARK    1  A    between atoms: _5  and  _11
REMARK    2  A    between atoms: _19  and  _21
REMARK    3  A    between atoms: _22  and  _66
REMARK    4  A    between atoms: _27  and  _30
REMARK    5  A    between atoms: _32  and  _33
REMARK    6  A    between atoms: _38  and  _43
REMARK    7  A    between atoms: _43  and  _46
REMARK    8  A    between atoms: _53  and  _55
REMARK                            x       y       z     vdW  Elec       q    Type
REMARK                         _______ _______ _______ _____ _____    ______ ____
ROOT
ATOM     10  C   UNL     1       6.835   7.867  19.314  0.00  0.00    +0.038 A 
ATOM     11  C   UNL     1       7.349   9.128  19.712  0.00  0.00    +0.047 A 
ATOM     12  C   UNL     1       8.782   9.376  19.756  0.00  0.00    +0.035 A 
ATOM     32  C   UNL     1       9.663   8.317  19.386  0.00  0.00    +0.024 A 
ATOM     33  C   UNL     1       9.157   7.030  18.980  0.00  0.00    +0.007 A 
ATOM     34  C   UNL     1       7.744   6.779  18.937  0.00  0.00    -0.029 A 
ATOM     35  C   UNL     1       7.258   5.377  18.500  0.00  0.00    +0.045 C 
ENDROOT
BRANCH  10   9
ATOM      4  C   UNL     1       2.481   8.744  17.493  0.00  0.00    +0.077 A 
ATOM      5  C   UNL     1       3.006   9.665  16.526  0.00  0.00    +0.048 A 
ATOM      6  C   UNL     1       4.401   9.890  16.535  0.00  0.00    +0.116 A 
ATOM      7  N   UNL     1       5.202   9.238  17.448  0.00  0.00    -0.223 NA
ATOM      8  C   UNL     1       4.663   8.358  18.368  0.00  0.00    +0.220 A 
ATOM      9  N   UNL     1       5.450   7.685  19.290  0.00  0.00    -0.283 N 
ATOM     36  H   UNL     1       5.014   7.049  19.957  0.00  0.00    +0.155 HD
ATOM     37  N   UNL     1       3.334   8.126  18.381  0.00  0.00    -0.214 NA
BRANCH   4   3
ATOM      1  C   UNL     1      -1.200   7.754  16.617  0.00  0.00    +0.020 A 
ATOM      2  C   UNL     1       0.197   8.082  16.453  0.00  0.00    +0.013 A 
ATOM      3  C   UNL     1       1.029   8.399  17.607  0.00  0.00    +0.019 A 
ATOM     38  C   UNL     1       0.411   8.375  18.924  0.00  0.00    +0.120 A 
ATOM     39  N   UNL     1      -0.937   8.057  19.052  0.00  0.00    -0.263 NA
ATOM     40  C   UNL     1      -1.748   7.752  17.948  0.00  0.00    +0.111 A 
ENDBRANCH   4   3
ENDBRANCH  10   9
BRANCH  12  13
ATOM     13  N   UNL     1       9.363  10.632  20.160  0.00  0.00    -0.281 N 
ATOM     14  C   UNL     1       9.556  11.767  19.390  0.00  0.00    +0.248 C 
ATOM     30  O   UNL     1       9.452  11.803  18.173  0.00  0.00    -0.270 OA
ATOM     31  H   UNL     1       9.669  10.692  21.131  0.00  0.00    +0.155 HD
BRANCH  14  15
ATOM     15  C   UNL     1       9.932  13.045  20.069  0.00  0.00    +0.037 A 
ATOM     16  C   UNL     1      10.658  14.099  19.356  0.00  0.00    +0.013 A 
ATOM     17  C   UNL     1      11.024  15.315  20.039  0.00  0.00    +0.005 A 
ATOM     18  C   UNL     1      10.663  15.482  21.445  0.00  0.00    -0.033 A 
ATOM     28  C   UNL     1       9.939  14.422  22.127  0.00  0.00    +0.005 A 
ATOM     29  C   UNL     1       9.580  13.229  21.461  0.00  0.00    +0.013 A 
BRANCH  18  19
ATOM     19  C   UNL     1      11.032  16.737  22.259  0.00  0.00    +0.119 C 
BRANCH  19  20
ATOM     20  N   UNL     1      11.870  16.538  23.479  0.00  0.00    -0.302 NA
ATOM     21  C   UNL     1      11.272  17.231  24.706  0.00  0.00    +0.066 C 
ATOM     22  C   UNL     1      12.150  16.995  25.978  0.00  0.00    -0.064 C 
ATOM     23  N   UNL     1      13.571  17.495  25.713  0.00  0.00    +0.379 N 
ATOM     24  C   UNL     1      14.384  17.327  26.926  0.00  0.00    -0.096 C 
ATOM     25  H   UNL     1      13.510  18.586  25.495  0.00  0.00    -0.082 HD
ATOM     26  C   UNL     1      14.173  16.813  24.492  0.00  0.00    -0.064 C 
ATOM     27  C   UNL     1      13.277  17.029  23.241  0.00  0.00    +0.066 C 
ENDBRANCH  19  20
ENDBRANCH  18  19
ENDBRANCH  14  15
ENDBRANCH  12  13
TORSDOF 6
ENDMDL
MODEL 2
REMARK VINA RESULT:      -8.6      2.484     13.279
REMARK  Name = C:\Users\Docking\Desktop\test protocol\1iep_ligandH.pdb
REMARK  8 active torsions:
REMARK  status: ('A' for Active; 'I' for Inactive)
REMARK    1  A    between atoms: _5  and  _11
REMARK    2  A    between atoms: _19  and  _21
REMARK    3  A    between atoms: _22  and  _66
REMARK    4  A    between atoms: _27  and  _30
REMARK    5  A    between atoms: _32  and  _33
REMARK    6  A    between atoms: _38  and  _43
REMARK    7  A    between atoms: _43  and  _46
REMARK    8  A    between atoms: _53  and  _55
REMARK                            x       y       z     vdW  Elec       q    Type
REMARK                         _______ _______ _______ _____ _____    ______ ____
ROOT
ATOM     10  C   UNL     1       7.696   9.193  19.634  0.00  0.00    +0.038 A 
ATOM     11  C   UNL     1       6.284   9.317  19.579  0.00  0.00    +0.047 A 
ATOM     12  C   UNL     1       5.464   8.302  18.938  0.00  0.00    +0.035 A 
ATOM     32  C   UNL     1       6.115   7.171  18.364  0.00  0.00    +0.024 A 
ATOM     33  C   UNL     1       7.549   7.029  18.410  0.00  0.00    +0.007 A 
ATOM     34  C   UNL     1       8.364   8.029  19.040  0.00  0.00    -0.029 A 
ATOM     35  C   UNL     1       9.897   7.828  19.054  0.00  0.00    +0.045 C 
ENDROOT
BRANCH  10   9
ATOM      4  C   UNL     1       9.448  13.657  19.844  0.00  0.00    +0.077 A 
ATOM      5  C   UNL     1       8.864  14.009  18.581  0.00  0.00    +0.048 A 
ATOM      6  C   UNL     1       8.127  13.010  17.907  0.00  0.00    +0.116 A 
ATOM      7  N   UNL     1       7.989  11.756  18.463  0.00  0.00    -0.223 NA
ATOM      8  C   UNL     1       8.567  11.450  19.681  0.00  0.00    +0.220 A 
ATOM      9  N   UNL     1       8.435  10.198  20.263  0.00  0.00    -0.283 N 
ATOM     36  H   UNL     1       8.882  10.009  21.160  0.00  0.00    +0.155 HD
ATOM     37  N   UNL     1       9.277  12.386  20.345  0.00  0.00    -0.214 NA
BRANCH   4   3
ATOM      1  C   UNL     1      11.006  15.546  22.894  0.00  0.00    +0.020 A 
ATOM      2  C   UNL     1      10.209  14.610  22.135  0.00  0.00    +0.013 A 
ATOM      3  C   UNL     1      10.252  14.604  20.678  0.00  0.00    +0.019 A 
ATOM     38  C   UNL     1      11.121  15.565  20.015  0.00  0.00    +0.120 A 
ATOM     39  N   UNL     1      11.876  16.455  20.772  0.00  0.00    -0.263 NA
ATOM     40  C   UNL     1      11.841  16.471  22.174  0.00  0.00    +0.111 A 
ENDBRANCH   4   3
ENDBRANCH  10   9
BRANCH  12  13
ATOM     13  N   UNL     1       4.027   8.378  18.844  0.00  0.00    -0.281 N 
ATOM     14  C   UNL     1       3.263   8.720  17.741  0.00  0.00    +0.248 C 
ATOM     30  O   UNL     1       3.708   9.223  16.720  0.00  0.00    -0.270 OA
ATOM     31  H   UNL     1       3.511   8.152  19.695  0.00  0.00    +0.155 HD
BRANCH  14  15
ATOM     15  C   UNL     1       1.787   8.483  17.783  0.00  0.00    +0.037 A 
ATOM     16  C   UNL     1       1.080   8.319  19.056  0.00  0.00    +0.013 A 
ATOM     17  C   UNL     1      -0.340   8.075  19.068  0.00  0.00    +0.005 A 
ATOM     18  C   UNL     1      -1.063   7.993  17.801  0.00  0.00    -0.033 A 
ATOM     28  C   UNL     1      -0.338   8.164  16.553  0.00  0.00    +0.005 A 
ATOM     29  C   UNL     1       1.055   8.403  16.538  0.00  0.00    +0.013 A 
BRANCH  18  19
ATOM     19  C   UNL     1      -2.576   7.714  17.718  0.00  0.00    +0.119 C 
BRANCH  19  20
ATOM     20  N   UNL     1      -3.046   6.815  16.622  0.00  0.00    -0.302 NA
ATOM     21  C   UNL     1      -3.637   7.601  15.448  0.00  0.00    +0.066 C 
ATOM     22  C   UNL     1      -4.103   6.646  14.301  0.00  0.00    -0.064 C 
ATOM     23  N   UNL     1      -5.123   5.650  14.854  0.00  0.00    +0.379 N 
ATOM     24  C   UNL     1      -5.607   4.788  13.765  0.00  0.00    -0.096 C 
ATOM     25  H   UNL     1      -5.993   6.233  15.236  0.00  0.00    -0.082 HD
ATOM     26  C   UNL     1      -4.545   4.866  16.023  0.00  0.00    -0.064 C 
ATOM     27  C   UNL     1      -4.057   5.825  17.145  0.00  0.00    +0.066 C 
ENDBRANCH  19  20
ENDBRANCH  18  19
ENDBRANCH  14  15
ENDBRANCH  12  13
TORSDOF 6
ENDMDL
MODEL 3
REMARK VINA RESULT:      -8.2      8.248     16.295
REMARK  Name = C:\Users\Docking\Desktop\test protocol\1iep_ligandH.pdb
REMARK  8 active torsions:
REMARK  status: ('A' for Active; 'I' for Inactive)
REMARK    1  A    between atoms: _5  and  _11
REMARK    2  A    between atoms: _19  and  _21
REMARK    3  A    between atoms: _22  and  _66
REMARK    4  A    between atoms: _27  and  _30
REMARK    5  A    between atoms: _32  and  _33
REMARK    6  A    between atoms: _38  and  _43
REMARK    7  A    between atoms: _43  and  _46
REMARK    8  A    between atoms: _53  and  _55
REMARK                            x       y       z     vdW  Elec       q    Type
REMARK                         _______ _______ _______ _____ _____    ______ ____
ROOT
ATOM     10  C   UNL     1       1.038   8.239  19.887  0.00  0.00    +0.038 A 
ATOM     11  C   UNL     1      -0.030   7.573  19.234  0.00  0.00    +0.047 A 
ATOM     12  C   UNL     1      -0.166   7.607  17.786  0.00  0.00    +0.035 A 
ATOM     32  C   UNL     1       0.807   8.327  17.033  0.00  0.00    +0.024 A 
ATOM     33  C   UNL     1       1.899   9.012  17.681  0.00  0.00    +0.007 A 
ATOM     34  C   UNL     1       2.036   8.984  19.109  0.00  0.00    -0.029 A 
ATOM     35  C   UNL     1       3.222   9.740  19.750  0.00  0.00    +0.045 C 
ENDROOT
BRANCH  10   9
ATOM      4  C   UNL     1      -0.494   9.430  24.277  0.00  0.00    +0.077 A 
ATOM      5  C   UNL     1      -1.527  10.275  23.752  0.00  0.00    +0.048 A 
ATOM      6  C   UNL     1      -1.626  10.382  22.347  0.00  0.00    +0.116 A 
ATOM      7  N   UNL     1      -0.752   9.690  21.537  0.00  0.00    -0.223 NA
ATOM      8  C   UNL     1       0.234   8.885  22.076  0.00  0.00    +0.220 A 
ATOM      9  N   UNL     1       1.119   8.174  21.280  0.00  0.00    -0.283 N 
ATOM     36  H   UNL     1       1.838   7.596  21.716  0.00  0.00    +0.155 HD
ATOM     37  N   UNL     1       0.351   8.767  23.415  0.00  0.00    -0.214 NA
BRANCH   4   3
ATOM      1  C   UNL     1      -0.094  10.024  28.123  0.00  0.00    +0.020 A 
ATOM      2  C   UNL     1      -0.323  10.288  26.721  0.00  0.00    +0.013 A 
ATOM      3  C   UNL     1      -0.264   9.212  25.741  0.00  0.00    +0.019 A 
ATOM     38  C   UNL     1       0.031   7.868  26.215  0.00  0.00    +0.120 A 
ATOM     39  N   UNL     1       0.249   7.644  27.571  0.00  0.00    -0.263 NA
ATOM     40  C   UNL     1       0.196   8.673  28.524  0.00  0.00    +0.111 A 
ENDBRANCH   4   3
ENDBRANCH  10   9
BRANCH  12  13
ATOM     13  N   UNL     1      -1.234   6.956  17.068  0.00  0.00    -0.281 N 
ATOM     14  C   UNL     1      -2.511   7.434  16.825  0.00  0.00    +0.248 C 
ATOM     30  O   UNL     1      -3.000   8.410  17.374  0.00  0.00    -0.270 OA
ATOM     31  H   UNL     1      -1.022   6.031  16.694  0.00  0.00    +0.155 HD
BRANCH  14  15
ATOM     15  C   UNL     1      -3.375   6.715  15.839  0.00  0.00    +0.037 A 
ATOM     16  C   UNL     1      -3.497   7.180  14.455  0.00  0.00    +0.013 A 
ATOM     17  C   UNL     1      -4.351   6.479  13.529  0.00  0.00    +0.005 A 
ATOM     18  C   UNL     1      -5.088   5.303  13.985  0.00  0.00    -0.033 A 
ATOM     28  C   UNL     1      -4.944   4.860  15.362  0.00  0.00    +0.005 A 
ATOM     29  C   UNL     1      -4.109   5.546  16.273  0.00  0.00    +0.013 A 
BRANCH  18  19
ATOM     19  C   UNL     1      -6.038   4.505  13.072  0.00  0.00    +0.119 C 
BRANCH  19  20
ATOM     20  N   UNL     1      -7.483   4.880  13.096  0.00  0.00    -0.302 NA
ATOM     21  C   UNL     1      -8.248   4.151  14.205  0.00  0.00    +0.066 C 
ATOM     22  C   UNL     1      -9.753   4.572  14.229  0.00  0.00    -0.064 C 
ATOM     23  N   UNL     1     -10.381   4.289  12.863  0.00  0.00    +0.379 N 
ATOM     24  C   UNL     1     -11.811   4.629  12.901  0.00  0.00    -0.096 C 
ATOM     25  H   UNL     1     -10.299   3.193  12.674  0.00  0.00    -0.082 HD
ATOM     26  C   UNL     1      -9.626   5.007  11.754  0.00  0.00    -0.064 C 
ATOM     27  C   UNL     1      -8.124   4.605  11.757  0.00  0.00    +0.066 C 
ENDBRANCH  19  20
ENDBRANCH  18  19
ENDBRANCH  14  15
ENDBRANCH  12  13
TORSDOF 6
ENDMDL
MODEL 4
REMARK VINA RESULT:      -8.1     14.766     19.328
REMARK  Name = C:\Users\Docking\Desktop\test protocol\1iep_ligandH.pdb
REMARK  8 active torsions:
REMARK  status: ('A' for Active; 'I' for Inactive)
REMARK    1  A    between atoms: _5  and  _11
REMARK    2  A    between atoms: _19  and  _21
REMARK    3  A    between atoms: _22  and  _66
REMARK    4  A    between atoms: _27  and  _30
REMARK    5  A    between atoms: _32  and  _33
REMARK    6  A    between atoms: _38  and  _43
REMARK    7  A    between atoms: _43  and  _46
REMARK    8  A    between atoms: _53  and  _55
REMARK                            x       y       z     vdW  Elec       q    Type
REMARK                         _______ _______ _______ _____ _____    ______ ____
ROOT
ATOM     10  C   UNL     1      -7.416   2.011  19.651  0.00  0.00    +0.038 A 
ATOM     11  C   UNL     1      -6.615   1.430  20.666  0.00  0.00    +0.047 A 
ATOM     12  C   UNL     1      -6.850   0.069  21.123  0.00  0.00    +0.035 A 
ATOM     32  C   UNL     1      -7.908  -0.673  20.521  0.00  0.00    +0.024 A 
ATOM     33  C   UNL     1      -8.733  -0.097  19.489  0.00  0.00    +0.007 A 
ATOM     34  C   UNL     1      -8.508   1.246  19.036  0.00  0.00    -0.029 A 
ATOM     35  C   UNL     1      -9.427   1.814  17.930  0.00  0.00    +0.045 C 
ENDROOT
BRANCH  10   9
ATOM      4  C   UNL     1      -5.234   5.204  16.809  0.00  0.00    +0.077 A 
ATOM      5  C   UNL     1      -4.552   4.176  16.077  0.00  0.00    +0.048 A 
ATOM      6  C   UNL     1      -4.785   2.838  16.468  0.00  0.00    +0.116 A 
ATOM      7  N   UNL     1      -5.638   2.562  17.514  0.00  0.00    -0.223 NA
ATOM      8  C   UNL     1      -6.278   3.578  18.200  0.00  0.00    +0.220 A 
ATOM      9  N   UNL     1      -7.147   3.322  19.250  0.00  0.00    -0.283 N 
ATOM     36  H   UNL     1      -7.593   4.099  19.736  0.00  0.00    +0.155 HD
ATOM     37  N   UNL     1      -6.071   4.863  17.847  0.00  0.00    -0.214 NA
BRANCH   4   3
ATOM      1  C   UNL     1      -4.122   8.601  15.219  0.00  0.00    +0.020 A 
ATOM      2  C   UNL     1      -4.221   7.181  15.465  0.00  0.00    +0.013 A 
ATOM      3  C   UNL     1      -5.093   6.665  16.513  0.00  0.00    +0.019 A 
ATOM     38  C   UNL     1      -5.857   7.621  17.300  0.00  0.00    +0.120 A 
ATOM     39  N   UNL     1      -5.740   8.983  17.042  0.00  0.00    -0.263 NA
ATOM     40  C   UNL     1      -4.903   9.491  16.037  0.00  0.00    +0.111 A 
ENDBRANCH   4   3
ENDBRANCH  10   9
BRANCH  12  13
ATOM     13  N   UNL     1      -6.074  -0.571  22.156  0.00  0.00    -0.281 N 
ATOM     14  C   UNL     1      -6.433  -0.795  23.476  0.00  0.00    +0.248 C 
ATOM     30  O   UNL     1      -7.397  -0.284  24.026  0.00  0.00    -0.270 OA
ATOM     31  H   UNL     1      -5.148  -0.900  21.882  0.00  0.00    +0.155 HD
BRANCH  14  15
ATOM     15  C   UNL     1      -5.590  -1.706  24.308  0.00  0.00    +0.037 A 
ATOM     16  C   UNL     1      -5.272  -3.065  23.863  0.00  0.00    +0.013 A 
ATOM     17  C   UNL     1      -4.471  -3.930  24.694  0.00  0.00    +0.005 A 
ATOM     18  C   UNL     1      -3.982  -3.436  25.978  0.00  0.00    -0.033 A 
ATOM     28  C   UNL     1      -4.308  -2.082  26.393  0.00  0.00    +0.005 A 
ATOM     29  C   UNL     1      -5.094  -1.232  25.582  0.00  0.00    +0.013 A 
BRANCH  18  19
ATOM     19  C   UNL     1      -3.139  -4.296  26.939  0.00  0.00    +0.119 C 
BRANCH  19  20
ATOM     20  N   UNL     1      -3.553  -4.324  28.373  0.00  0.00    -0.302 NA
ATOM     21  C   UNL     1      -2.432  -3.853  29.304  0.00  0.00    +0.066 C 
ATOM     22  C   UNL     1      -2.890  -3.868  30.799  0.00  0.00    -0.064 C 
ATOM     23  N   UNL     1      -3.349  -5.278  31.175  0.00  0.00    +0.379 N 
ATOM     24  C   UNL     1      -3.725  -5.309  32.596  0.00  0.00    -0.096 C 
ATOM     25  H   UNL     1      -2.480  -5.963  31.040  0.00  0.00    -0.082 HD
ATOM     26  C   UNL     1      -4.462  -5.755  30.252  0.00  0.00    -0.064 C 
ATOM     27  C   UNL     1      -4.006  -5.709  28.767  0.00  0.00    +0.066 C 
ENDBRANCH  19  20
ENDBRANCH  18  19
ENDBRANCH  14  15
ENDBRANCH  12  13
TORSDOF 6
ENDMDL
MODEL 5
REMARK VINA RESULT:      -8.0     27.828     33.300
REMARK  Name = C:\Users\Docking\Desktop\test protocol\1iep_ligandH.pdb
REMARK  8 active torsions:
REMARK  status: ('A' for Active; 'I' for Inactive)
REMARK    1  A    between atoms: _5  and  _11
REMARK    2  A    between atoms: _19  and  _21
REMARK    3  A    between atoms: _22  and  _66
REMARK    4  A    between atoms: _27  and  _30
REMARK    5  A    between atoms: _32  and  _33
REMARK    6  A    between atoms: _38  and  _43
REMARK    7  A    between atoms: _43  and  _46
REMARK    8  A    between atoms: _53  and  _55
REMARK                            x       y       z     vdW  Elec       q    Type
REMARK                         _______ _______ _______ _____ _____    ______ ____
ROOT
ATOM     10  C   UNL     1      14.687 -21.124  21.994  0.00  0.00    +0.038 A 
ATOM     11  C   UNL     1      13.364 -20.615  22.036  0.00  0.00    +0.047 A 
ATOM     12  C   UNL     1      12.215 -21.491  21.868  0.00  0.00    +0.035 A 
ATOM     32  C   UNL     1      12.451 -22.882  21.661  0.00  0.00    +0.024 A 
ATOM     33  C   UNL     1      13.789 -23.416  21.614  0.00  0.00    +0.007 A 
ATOM     34  C   UNL     1      14.926 -22.556  21.777  0.00  0.00    -0.029 A 
ATOM     35  C   UNL     1      16.339 -23.182  21.711  0.00  0.00    +0.045 C 
ENDROOT
BRANCH  10   9
ATOM      4  C   UNL     1      17.945 -18.888  24.718  0.00  0.00    +0.077 A 
ATOM      5  C   UNL     1      17.466 -19.520  25.914  0.00  0.00    +0.048 A 
ATOM      6  C   UNL     1      16.374 -20.408  25.785  0.00  0.00    +0.116 A 
ATOM      7  N   UNL     1      15.812 -20.640  24.549  0.00  0.00    -0.223 NA
ATOM      8  C   UNL     1      16.298 -20.013  23.416  0.00  0.00    +0.220 A 
ATOM      9  N   UNL     1      15.753 -20.237  22.161  0.00  0.00    -0.283 N 
ATOM     36  H   UNL     1      16.135 -19.749  21.351  0.00  0.00    +0.155 HD
ATOM     37  N   UNL     1      17.339 -19.159  23.512  0.00  0.00    -0.214 NA
BRANCH   4   3
ATOM      1  C   UNL     1      20.733 -16.371  25.809  0.00  0.00    +0.020 A 
ATOM      2  C   UNL     1      19.622 -17.291  25.890  0.00  0.00    +0.013 A 
ATOM      3  C   UNL     1      19.093 -17.928  24.691  0.00  0.00    +0.019 A 
ATOM     38  C   UNL     1      19.716 -17.610  23.415  0.00  0.00    +0.120 A 
ATOM     39  N   UNL     1      20.784 -16.719  23.367  0.00  0.00    -0.263 NA
ATOM     40  C   UNL     1      21.300 -16.098  24.515  0.00  0.00    +0.111 A 
ENDBRANCH   4   3
ENDBRANCH  10   9
BRANCH  12  13
ATOM     13  N   UNL     1      10.849 -21.031  21.893  0.00  0.00    -0.281 N 
ATOM     14  C   UNL     1      10.033 -20.727  20.816  0.00  0.00    +0.248 C 
ATOM     30  O   UNL     1      10.425 -20.600  19.666  0.00  0.00    -0.270 OA
ATOM     31  H   UNL     1      10.433 -20.915  22.817  0.00  0.00    +0.155 HD
BRANCH  14  15
ATOM     15  C   UNL     1       8.572 -20.519  21.053  0.00  0.00    +0.037 A 
ATOM     16  C   UNL     1       7.569 -21.377  20.417  0.00  0.00    +0.013 A 
ATOM     17  C   UNL     1       6.166 -21.145  20.649  0.00  0.00    +0.005 A 
ATOM     18  C   UNL     1       5.757 -20.049  21.524  0.00  0.00    -0.033 A 
ATOM     28  C   UNL     1       6.772 -19.216  22.147  0.00  0.00    +0.005 A 
ATOM     29  C   UNL     1       8.149 -19.441  21.921  0.00  0.00    +0.013 A 
BRANCH  18  19
ATOM     19  C   UNL     1       4.281 -19.715  21.812  0.00  0.00    +0.119 C 
BRANCH  19  20
ATOM     20  N   UNL     1       3.926 -18.273  21.978  0.00  0.00    -0.302 NA
ATOM     21  C   UNL     1       3.163 -18.016  23.281  0.00  0.00    +0.066 C 
ATOM     22  C   UNL     1       2.820 -16.500  23.450  0.00  0.00    -0.064 C 
ATOM     23  N   UNL     1       2.007 -16.027  22.244  0.00  0.00    +0.379 N 
ATOM     24  C   UNL     1       1.633 -14.617  22.427  0.00  0.00    -0.096 C 
ATOM     25  H   UNL     1       1.067 -16.625  22.214  0.00  0.00    -0.082 HD
ATOM     26  C   UNL     1       2.757 -16.281  20.944  0.00  0.00    -0.064 C 
ATOM     27  C   UNL     1       3.119 -17.786  20.800  0.00  0.00    +0.066 C 
ENDBRANCH  19  20
ENDBRANCH  18  19
ENDBRANCH  14  15
ENDBRANCH  12  13
TORSDOF 6
ENDMDL
