MODEL 1
REMARK VINA RESULT:      -7.6      0.000      0.000
REMARK  Name = C:\Users\Docking\Desktop\test protocol\1iep_ligandH.pdb
REMARK  8 active torsions:
REMARK  status: ('A' for Active; 'I' for Inactive)
REMARK    1  A    between atoms: _5  and  _11
REMARK    2  A    between atoms: _19  and  _21
REMARK    3  A    between atoms: _22  and  _66
REMARK    4  A    between atoms: _27  and  _30
REMARK    5  A    between atoms: _32  and  _33
REMARK    6  A    between atoms: _38  and  _43
REMARK    7  A    between atoms: _43  and  _46
REMARK    8  A    between atoms: _53  and  _55
REMARK                            x       y       z     vdW  Elec       q    Type
REMARK                         _______ _______ _______ _____ _____    ______ ____
ROOT
ATOM     10  C   UNL     1      -2.203 -10.904  -4.334  0.00  0.00    +0.038 A 
ATOM     11  C   UNL     1      -3.493 -11.364  -4.701  0.00  0.00    +0.047 A 
ATOM     12  C   UNL     1      -3.661 -12.481  -5.617  0.00  0.00    +0.035 A 
ATOM     32  C   UNL     1      -2.492 -13.108  -6.139  0.00  0.00    +0.024 A 
ATOM     33  C   UNL     1      -1.173 -12.653  -5.778  0.00  0.00    +0.007 A 
ATOM     34  C   UNL     1      -1.001 -11.549  -4.876  0.00  0.00    -0.029 A 
ATOM     35  C   UNL     1       0.437 -11.099  -4.529  0.00  0.00    +0.045 C 
ENDROOT
BRANCH  10   9
ATOM      4  C   UNL     1      -1.804  -6.211  -3.408  0.00  0.00    +0.077 A 
ATOM      5  C   UNL     1      -1.771  -5.878  -4.803  0.00  0.00    +0.048 A 
ATOM      6  C   UNL     1      -1.851  -6.945  -5.726  0.00  0.00    +0.116 A 
ATOM      7  N   UNL     1      -1.958  -8.243  -5.277  0.00  0.00    -0.223 NA
ATOM      8  C   UNL     1      -1.986  -8.529  -3.924  0.00  0.00    +0.220 A 
ATOM      9  N   UNL     1      -2.100  -9.827  -3.450  0.00  0.00    -0.283 N 
ATOM     36  H   UNL     1      -2.110  -9.997  -2.445  0.00  0.00    +0.155 HD
ATOM     37  N   UNL     1      -1.908  -7.529  -3.022  0.00  0.00    -0.214 NA
BRANCH   4   3
ATOM      1  C   UNL     1      -2.185  -4.410   0.044  0.00  0.00    +0.020 A 
ATOM      2  C   UNL     1      -2.282  -5.424  -0.981  0.00  0.00    +0.013 A 
ATOM      3  C   UNL     1      -1.731  -5.195  -2.311  0.00  0.00    +0.019 A 
ATOM     38  C   UNL     1      -1.083  -3.919  -2.573  0.00  0.00    +0.120 A 
ATOM     39  N   UNL     1      -1.006  -2.961  -1.567  0.00  0.00    -0.263 NA
ATOM     40  C   UNL     1      -1.534  -3.169  -0.284  0.00  0.00    +0.111 A 
ENDBRANCH   4   3
ENDBRANCH  10   9
BRANCH  12  13
ATOM     13  N   UNL     1      -4.946 -12.987  -6.032  0.00  0.00    -0.281 N 
ATOM     14  C   UNL     1      -5.743 -13.918  -5.387  0.00  0.00    +0.248 C 
ATOM     30  O   UNL     1      -5.373 -14.619  -4.457  0.00  0.00    -0.270 OA
ATOM     31  H   UNL     1      -5.312 -12.614  -6.909  0.00  0.00    +0.155 HD
BRANCH  14  15
ATOM     15  C   UNL     1      -7.152 -14.107  -5.851  0.00  0.00    +0.037 A 
ATOM     16  C   UNL     1      -8.026 -12.961  -6.112  0.00  0.00    +0.013 A 
ATOM     17  C   UNL     1      -9.386 -13.172  -6.542  0.00  0.00    +0.005 A 
ATOM     18  C   UNL     1      -9.879 -14.537  -6.715  0.00  0.00    -0.033 A 
ATOM     28  C   UNL     1      -8.988 -15.655  -6.454  0.00  0.00    +0.005 A 
ATOM     29  C   UNL     1      -7.655 -15.452  -6.032  0.00  0.00    +0.013 A 
BRANCH  18  19
ATOM     19  C   UNL     1     -11.321 -14.856  -7.151  0.00  0.00    +0.119 C 
BRANCH  19  20
ATOM     20  N   UNL     1     -11.824 -16.238  -6.889  0.00  0.00    -0.302 NA
ATOM     21  C   UNL     1     -12.023 -17.031  -8.184  0.00  0.00    +0.066 C 
ATOM     22  C   UNL     1     -12.528 -18.482  -7.891  0.00  0.00    -0.064 C 
ATOM     23  N   UNL     1     -13.831 -18.413  -7.092  0.00  0.00    +0.379 N 
ATOM     24  C   UNL     1     -14.339 -19.774  -6.864  0.00  0.00    -0.096 C 
ATOM     25  H   UNL     1     -14.581 -17.871  -7.714  0.00  0.00    -0.082 HD
ATOM     26  C   UNL     1     -13.643 -17.623  -5.804  0.00  0.00    -0.064 C 
ATOM     27  C   UNL     1     -13.112 -16.194  -6.105  0.00  0.00    +0.066 C 
ENDBRANCH  19  20
ENDBRANCH  18  19
ENDBRANCH  14  15
ENDBRANCH  12  13
TORSDOF 6
ENDMDL
MODEL 2
REMARK VINA RESULT:      -7.4      1.368      2.030
REMARK  Name = C:\Users\Docking\Desktop\test protocol\1iep_ligandH.pdb
REMARK  8 active torsions:
REMARK  status: ('A' for Active; 'I' for Inactive)
REMARK    1  A    between atoms: _5  and  _11
REMARK    2  A    between atoms: _19  and  _21
REMARK    3  A    between atoms: _22  and  _66
REMARK    4  A    between atoms: _27  and  _30
REMARK    5  A    between atoms: _32  and  _33
REMARK    6  A    between atoms: _38  and  _43
REMARK    7  A    between atoms: _43  and  _46
REMARK    8  A    between atoms: _53  and  _55
REMARK                            x       y       z     vdW  Elec       q    Type
REMARK                         _______ _______ _______ _____ _____    ______ ____
ROOT
ATOM     10  C   UNL     1      -2.120 -10.949  -4.338  0.00  0.00    +0.038 A 
ATOM     11  C   UNL     1      -3.407 -11.427  -4.693  0.00  0.00    +0.047 A 
ATOM     12  C   UNL     1      -3.569 -12.544  -5.611  0.00  0.00    +0.035 A 
ATOM     32  C   UNL     1      -2.396 -13.153  -6.147  0.00  0.00    +0.024 A 
ATOM     33  C   UNL     1      -1.080 -12.679  -5.798  0.00  0.00    +0.007 A 
ATOM     34  C   UNL     1      -0.915 -11.576  -4.895  0.00  0.00    -0.029 A 
ATOM     35  C   UNL     1       0.520 -11.106  -4.561  0.00  0.00    +0.045 C 
ENDROOT
BRANCH  10   9
ATOM      4  C   UNL     1      -1.828  -6.251  -3.400  0.00  0.00    +0.077 A 
ATOM      5  C   UNL     1      -1.842  -5.912  -4.794  0.00  0.00    +0.048 A 
ATOM      6  C   UNL     1      -1.918  -6.976  -5.720  0.00  0.00    +0.116 A 
ATOM      7  N   UNL     1      -1.976  -8.279  -5.274  0.00  0.00    -0.223 NA
ATOM      8  C   UNL     1      -1.959  -8.572  -3.923  0.00  0.00    +0.220 A 
ATOM      9  N   UNL     1      -2.023  -9.874  -3.452  0.00  0.00    -0.283 N 
ATOM     36  H   UNL     1      -2.001 -10.049  -2.448  0.00  0.00    +0.155 HD
ATOM     37  N   UNL     1      -1.885  -7.573  -3.019  0.00  0.00    -0.214 NA
BRANCH   4   3
ATOM      1  C   UNL     1      -2.246  -4.441   0.042  0.00  0.00    +0.020 A 
ATOM      2  C   UNL     1      -2.346  -5.452  -0.985  0.00  0.00    +0.013 A 
ATOM      3  C   UNL     1      -1.754  -5.238  -2.300  0.00  0.00    +0.019 A 
ATOM     38  C   UNL     1      -1.062  -3.982  -2.544  0.00  0.00    +0.120 A 
ATOM     39  N   UNL     1      -0.983  -3.026  -1.536  0.00  0.00    -0.263 NA
ATOM     40  C   UNL     1      -1.550  -3.220  -0.267  0.00  0.00    +0.111 A 
ENDBRANCH   4   3
ENDBRANCH  10   9
BRANCH  12  13
ATOM     13  N   UNL     1      -4.850 -13.068  -6.015  0.00  0.00    -0.281 N 
ATOM     14  C   UNL     1      -5.673 -13.937  -5.317  0.00  0.00    +0.248 C 
ATOM     30  O   UNL     1      -5.331 -14.567  -4.327  0.00  0.00    -0.270 OA
ATOM     31  H   UNL     1      -5.192 -12.760  -6.925  0.00  0.00    +0.155 HD
BRANCH  14  15
ATOM     15  C   UNL     1      -7.073 -14.147  -5.796  0.00  0.00    +0.037 A 
ATOM     16  C   UNL     1      -7.980 -13.017  -6.012  0.00  0.00    +0.013 A 
ATOM     17  C   UNL     1      -9.331 -13.248  -6.459  0.00  0.00    +0.005 A 
ATOM     18  C   UNL     1      -9.782 -14.618  -6.693  0.00  0.00    -0.033 A 
ATOM     28  C   UNL     1      -8.860 -15.720  -6.476  0.00  0.00    +0.005 A 
ATOM     29  C   UNL     1      -7.536 -15.497  -6.037  0.00  0.00    +0.013 A 
BRANCH  18  19
ATOM     19  C   UNL     1     -11.213 -14.960  -7.150  0.00  0.00    +0.119 C 
BRANCH  19  20
ATOM     20  N   UNL     1     -12.340 -14.374  -6.364  0.00  0.00    -0.302 NA
ATOM     21  C   UNL     1     -13.418 -15.413  -6.044  0.00  0.00    +0.066 C 
ATOM     22  C   UNL     1     -14.579 -14.788  -5.203  0.00  0.00    -0.064 C 
ATOM     23  N   UNL     1     -15.177 -13.604  -5.964  0.00  0.00    +0.379 N 
ATOM     24  C   UNL     1     -16.306 -13.050  -5.202  0.00  0.00    -0.096 C 
ATOM     25  H   UNL     1     -15.577 -13.991  -6.930  0.00  0.00    -0.082 HD
ATOM     26  C   UNL     1     -14.110 -12.567  -6.289  0.00  0.00    -0.064 C 
ATOM     27  C   UNL     1     -12.948 -13.205  -7.100  0.00  0.00    +0.066 C 
ENDBRANCH  19  20
ENDBRANCH  18  19
ENDBRANCH  14  15
ENDBRANCH  12  13
TORSDOF 6
ENDMDL
MODEL 3
REMARK VINA RESULT:      -7.0     29.395     30.638
REMARK  Name = C:\Users\Docking\Desktop\test protocol\1iep_ligandH.pdb
REMARK  8 active torsions:
REMARK  status: ('A' for Active; 'I' for Inactive)
REMARK    1  A    between atoms: _5  and  _11
REMARK    2  A    between atoms: _19  and  _21
REMARK    3  A    between atoms: _22  and  _66
REMARK    4  A    between atoms: _27  and  _30
REMARK    5  A    between atoms: _32  and  _33
REMARK    6  A    between atoms: _38  and  _43
REMARK    7  A    between atoms: _43  and  _46
REMARK    8  A    between atoms: _53  and  _55
REMARK                            x       y       z     vdW  Elec       q    Type
REMARK                         _______ _______ _______ _____ _____    ______ ____
ROOT
ATOM     10  C   UNL     1       3.089 -11.092  23.383  0.00  0.00    +0.038 A 
ATOM     11  C   UNL     1       2.415 -12.298  23.706  0.00  0.00    +0.047 A 
ATOM     12  C   UNL     1       3.110 -13.575  23.694  0.00  0.00    +0.035 A 
ATOM     32  C   UNL     1       4.494 -13.588  23.351  0.00  0.00    +0.024 A 
ATOM     33  C   UNL     1       5.194 -12.373  23.019  0.00  0.00    +0.007 A 
ATOM     34  C   UNL     1       4.513 -11.110  23.027  0.00  0.00    -0.029 A 
ATOM     35  C   UNL     1       5.313  -9.839  22.656  0.00  0.00    +0.045 C 
ENDROOT
BRANCH  10   9
ATOM      4  C   UNL     1       0.992  -7.467  25.727  0.00  0.00    +0.077 A 
ATOM      5  C   UNL     1       1.329  -8.021  27.007  0.00  0.00    +0.048 A 
ATOM      6  C   UNL     1       2.036  -9.245  27.018  0.00  0.00    +0.116 A 
ATOM      7  N   UNL     1       2.376  -9.858  25.832  0.00  0.00    -0.223 NA
ATOM      8  C   UNL     1       2.034  -9.298  24.615  0.00  0.00    +0.220 A 
ATOM      9  N   UNL     1       2.372  -9.894  23.410  0.00  0.00    -0.283 N 
ATOM     36  H   UNL     1       2.095  -9.452  22.534  0.00  0.00    +0.155 HD
ATOM     37  N   UNL     1       1.357  -8.131  24.578  0.00  0.00    -0.214 NA
BRANCH   4   3
ATOM      1  C   UNL     1      -0.094  -3.926  24.470  0.00  0.00    +0.020 A 
ATOM      2  C   UNL     1       0.659  -5.152  24.602  0.00  0.00    +0.013 A 
ATOM      3  C   UNL     1       0.249  -6.179  25.551  0.00  0.00    +0.019 A 
ATOM     38  C   UNL     1      -0.938  -5.934  26.357  0.00  0.00    +0.120 A 
ATOM     39  N   UNL     1      -1.642  -4.743  26.209  0.00  0.00    -0.263 NA
ATOM     40  C   UNL     1      -1.256  -3.746  25.301  0.00  0.00    +0.111 A 
ENDBRANCH   4   3
ENDBRANCH  10   9
BRANCH  12  13
ATOM     13  N   UNL     1       2.476 -14.832  24.005  0.00  0.00    -0.281 N 
ATOM     14  C   UNL     1       1.948 -15.242  25.218  0.00  0.00    +0.248 C 
ATOM     30  O   UNL     1       2.133 -14.669  26.282  0.00  0.00    -0.270 OA
ATOM     31  H   UNL     1       2.409 -15.501  23.238  0.00  0.00    +0.155 HD
BRANCH  14  15
ATOM     15  C   UNL     1       1.104 -16.476  25.259  0.00  0.00    +0.037 A 
ATOM     16  C   UNL     1      -0.028 -16.592  26.181  0.00  0.00    +0.013 A 
ATOM     17  C   UNL     1      -0.815 -17.799  26.211  0.00  0.00    +0.005 A 
ATOM     18  C   UNL     1      -0.473 -18.900  25.314  0.00  0.00    -0.033 A 
ATOM     28  C   UNL     1       0.652 -18.756  24.405  0.00  0.00    +0.005 A 
ATOM     29  C   UNL     1       1.427 -17.574  24.373  0.00  0.00    +0.013 A 
BRANCH  18  19
ATOM     19  C   UNL     1      -1.245 -20.233  25.293  0.00  0.00    +0.119 C 
BRANCH  19  20
ATOM     20  N   UNL     1      -2.586 -20.236  24.637  0.00  0.00    -0.302 NA
ATOM     21  C   UNL     1      -3.663 -19.609  25.528  0.00  0.00    +0.066 C 
ATOM     22  C   UNL     1      -5.055 -19.600  24.818  0.00  0.00    -0.064 C 
ATOM     23  N   UNL     1      -5.437 -21.030  24.431  0.00  0.00    +0.379 N 
ATOM     24  C   UNL     1      -6.772 -21.032  23.815  0.00  0.00    -0.096 C 
ATOM     25  H   UNL     1      -5.497 -21.629  25.369  0.00  0.00    -0.082 HD
ATOM     26  C   UNL     1      -4.371 -21.661  23.547  0.00  0.00    -0.064 C 
ATOM     27  C   UNL     1      -2.985 -21.639  24.251  0.00  0.00    +0.066 C 
ENDBRANCH  19  20
ENDBRANCH  18  19
ENDBRANCH  14  15
ENDBRANCH  12  13
TORSDOF 6
ENDMDL
MODEL 4
REMARK VINA RESULT:      -6.9     29.724     30.826
REMARK  Name = C:\Users\Docking\Desktop\test protocol\1iep_ligandH.pdb
REMARK  8 active torsions:
REMARK  status: ('A' for Active; 'I' for Inactive)
REMARK    1  A    between atoms: _5  and  _11
REMARK    2  A    between atoms: _19  and  _21
REMARK    3  A    between atoms: _22  and  _66
REMARK    4  A    between atoms: _27  and  _30
REMARK    5  A    between atoms: _32  and  _33
REMARK    6  A    between atoms: _38  and  _43
REMARK    7  A    between atoms: _43  and  _46
REMARK    8  A    between atoms: _53  and  _55
REMARK                            x       y       z     vdW  Elec       q    Type
REMARK                         _______ _______ _______ _____ _____    ______ ____
ROOT
ATOM     10  C   UNL     1       3.088 -11.033  23.380  0.00  0.00    +0.038 A 
ATOM     11  C   UNL     1       2.397 -12.237  23.670  0.00  0.00    +0.047 A 
ATOM     12  C   UNL     1       3.084 -13.519  23.669  0.00  0.00    +0.035 A 
ATOM     32  C   UNL     1       4.478 -13.537  23.372  0.00  0.00    +0.024 A 
ATOM     33  C   UNL     1       5.197 -12.323  23.074  0.00  0.00    +0.007 A 
ATOM     34  C   UNL     1       4.523 -11.056  23.070  0.00  0.00    -0.029 A 
ATOM     35  C   UNL     1       5.342  -9.788  22.737  0.00  0.00    +0.045 C 
ENDROOT
BRANCH  10   9
ATOM      4  C   UNL     1       0.989  -7.384  25.686  0.00  0.00    +0.077 A 
ATOM      5  C   UNL     1       1.311  -7.934  26.972  0.00  0.00    +0.048 A 
ATOM      6  C   UNL     1       2.011  -9.162  26.996  0.00  0.00    +0.116 A 
ATOM      7  N   UNL     1       2.359  -9.783  25.816  0.00  0.00    -0.223 NA
ATOM      8  C   UNL     1       2.032  -9.226  24.593  0.00  0.00    +0.220 A 
ATOM      9  N   UNL     1       2.379  -9.830  23.394  0.00  0.00    -0.283 N 
ATOM     36  H   UNL     1       2.112  -9.391  22.513  0.00  0.00    +0.155 HD
ATOM     37  N   UNL     1       1.362  -8.056  24.543  0.00  0.00    -0.214 NA
BRANCH   4   3
ATOM      1  C   UNL     1      -0.037  -3.823  24.436  0.00  0.00    +0.020 A 
ATOM      2  C   UNL     1       0.709  -5.052  24.583  0.00  0.00    +0.013 A 
ATOM      3  C   UNL     1       0.256  -6.093  25.496  0.00  0.00    +0.019 A 
ATOM     38  C   UNL     1      -0.966  -5.859  26.252  0.00  0.00    +0.120 A 
ATOM     39  N   UNL     1      -1.662  -4.665  26.091  0.00  0.00    -0.263 NA
ATOM     40  C   UNL     1      -1.235  -3.655  25.216  0.00  0.00    +0.111 A 
ENDBRANCH   4   3
ENDBRANCH  10   9
BRANCH  12  13
ATOM     13  N   UNL     1       2.433 -14.774  23.948  0.00  0.00    -0.281 N 
ATOM     14  C   UNL     1       2.114 -15.312  25.184  0.00  0.00    +0.248 C 
ATOM     30  O   UNL     1       2.536 -14.890  26.251  0.00  0.00    -0.270 OA
ATOM     31  H   UNL     1       2.175 -15.335  23.136  0.00  0.00    +0.155 HD
BRANCH  14  15
ATOM     15  C   UNL     1       1.208 -16.499  25.243  0.00  0.00    +0.037 A 
ATOM     16  C   UNL     1       1.432 -17.669  24.390  0.00  0.00    +0.013 A 
ATOM     17  C   UNL     1       0.533 -18.794  24.454  0.00  0.00    +0.005 A 
ATOM     18  C   UNL     1      -0.599 -18.755  25.378  0.00  0.00    -0.033 A 
ATOM     28  C   UNL     1      -0.794 -17.584  26.217  0.00  0.00    +0.005 A 
ATOM     29  C   UNL     1       0.085 -16.479  26.156  0.00  0.00    +0.013 A 
BRANCH  18  19
ATOM     19  C   UNL     1      -1.621 -19.901  25.498  0.00  0.00    +0.119 C 
BRANCH  19  20
ATOM     20  N   UNL     1      -1.360 -21.135  24.700  0.00  0.00    -0.302 NA
ATOM     21  C   UNL     1      -2.635 -21.676  24.047  0.00  0.00    +0.066 C 
ATOM     22  C   UNL     1      -2.341 -22.955  23.197  0.00  0.00    -0.064 C 
ATOM     23  N   UNL     1      -1.695 -24.018  24.087  0.00  0.00    +0.379 N 
ATOM     24  C   UNL     1      -1.470 -25.243  23.305  0.00  0.00    -0.096 C 
ATOM     25  H   UNL     1      -2.419 -24.264  24.899  0.00  0.00    -0.082 HD
ATOM     26  C   UNL     1      -0.428 -23.488  24.743  0.00  0.00    -0.064 C 
ATOM     27  C   UNL     1      -0.727 -22.200  25.561  0.00  0.00    +0.066 C 
ENDBRANCH  19  20
ENDBRANCH  18  19
ENDBRANCH  14  15
ENDBRANCH  12  13
TORSDOF 6
ENDMDL
MODEL 5
REMARK VINA RESULT:      -6.7      3.066     12.486
REMARK  Name = C:\Users\Docking\Desktop\test protocol\1iep_ligandH.pdb
REMARK  8 active torsions:
REMARK  status: ('A' for Active; 'I' for Inactive)
REMARK    1  A    between atoms: _5  and  _11
REMARK    2  A    between atoms: _19  and  _21
REMARK    3  A    between atoms: _22  and  _66
REMARK    4  A    between atoms: _27  and  _30
REMARK    5  A    between atoms: _32  and  _33
REMARK    6  A    between atoms: _38  and  _43
REMARK    7  A    between atoms: _43  and  _46
REMARK    8  A    between atoms: _53  and  _55
REMARK                            x       y       z     vdW  Elec       q    Type
REMARK                         _______ _______ _______ _____ _____    ______ ____
ROOT
ATOM     10  C   UNL     1      -2.732 -10.254  -5.916  0.00  0.00    +0.038 A 
ATOM     11  C   UNL     1      -2.771  -9.255  -4.910  0.00  0.00    +0.047 A 
ATOM     12  C   UNL     1      -1.561  -8.569  -4.483  0.00  0.00    +0.035 A 
ATOM     32  C   UNL     1      -0.329  -8.924  -5.104  0.00  0.00    +0.024 A 
ATOM     33  C   UNL     1      -0.270  -9.937  -6.128  0.00  0.00    +0.007 A 
ATOM     34  C   UNL     1      -1.460 -10.619  -6.552  0.00  0.00    -0.029 A 
ATOM     35  C   UNL     1      -1.337 -11.702  -7.649  0.00  0.00    +0.045 C 
ENDROOT
BRANCH  10   9
ATOM      4  C   UNL     1      -5.965 -13.779  -5.515  0.00  0.00    +0.077 A 
ATOM      5  C   UNL     1      -5.202 -14.442  -4.497  0.00  0.00    +0.048 A 
ATOM      6  C   UNL     1      -3.980 -13.848  -4.110  0.00  0.00    +0.116 A 
ATOM      7  N   UNL     1      -3.562 -12.676  -4.704  0.00  0.00    -0.223 NA
ATOM      8  C   UNL     1      -4.321 -12.063  -5.683  0.00  0.00    +0.220 A 
ATOM      9  N   UNL     1      -3.923 -10.880  -6.288  0.00  0.00    -0.283 N 
ATOM     36  H   UNL     1      -4.508 -10.463  -7.012  0.00  0.00    +0.155 HD
ATOM     37  N   UNL     1      -5.491 -12.612  -6.071  0.00  0.00    -0.214 NA
BRANCH   4   3
ATOM      1  C   UNL     1      -9.413 -15.604  -5.790  0.00  0.00    +0.020 A 
ATOM      2  C   UNL     1      -8.154 -15.147  -5.248  0.00  0.00    +0.013 A 
ATOM      3  C   UNL     1      -7.278 -14.281  -6.028  0.00  0.00    +0.019 A 
ATOM     38  C   UNL     1      -7.709 -13.893  -7.362  0.00  0.00    +0.120 A 
ATOM     39  N   UNL     1      -8.926 -14.350  -7.858  0.00  0.00    -0.263 NA
ATOM     40  C   UNL     1      -9.776 -15.185  -7.118  0.00  0.00    +0.111 A 
ENDBRANCH   4   3
ENDBRANCH  10   9
BRANCH  12  13
ATOM     13  N   UNL     1      -1.539  -7.553  -3.460  0.00  0.00    -0.281 N 
ATOM     14  C   UNL     1      -1.342  -6.191  -3.617  0.00  0.00    +0.248 C 
ATOM     30  O   UNL     1      -0.941  -5.665  -4.645  0.00  0.00    -0.270 OA
ATOM     31  H   UNL     1      -1.686  -7.877  -2.504  0.00  0.00    +0.155 HD
BRANCH  14  15
ATOM     15  C   UNL     1      -1.616  -5.283  -2.462  0.00  0.00    +0.037 A 
ATOM     16  C   UNL     1      -1.403  -3.837  -2.564  0.00  0.00    +0.013 A 
ATOM     17  C   UNL     1      -1.660  -2.987  -1.429  0.00  0.00    +0.005 A 
ATOM     18  C   UNL     1      -2.134  -3.581  -0.182  0.00  0.00    -0.033 A 
ATOM     28  C   UNL     1      -2.342  -5.018  -0.110  0.00  0.00    +0.005 A 
ATOM     29  C   UNL     1      -2.091  -5.855  -1.220  0.00  0.00    +0.013 A 
BRANCH  18  19
ATOM     19  C   UNL     1      -2.414  -2.752   1.086  0.00  0.00    +0.119 C 
BRANCH  19  20
ATOM     20  N   UNL     1      -3.825  -2.700   1.572  0.00  0.00    -0.302 NA
ATOM     21  C   UNL     1      -4.829  -2.657   0.417  0.00  0.00    +0.066 C 
ATOM     22  C   UNL     1      -6.301  -2.626   0.943  0.00  0.00    -0.064 C 
ATOM     23  N   UNL     1      -6.485  -1.420   1.866  0.00  0.00    +0.379 N 
ATOM     24  C   UNL     1      -7.883  -1.355   2.316  0.00  0.00    -0.096 C 
ATOM     25  H   UNL     1      -6.279  -0.502   1.267  0.00  0.00    -0.082 HD
ATOM     26  C   UNL     1      -5.488  -1.454   3.016  0.00  0.00    -0.064 C 
ATOM     27  C   UNL     1      -4.030  -1.514   2.482  0.00  0.00    +0.066 C 
ENDBRANCH  19  20
ENDBRANCH  18  19
ENDBRANCH  14  15
ENDBRANCH  12  13
TORSDOF 6
ENDMDL
