MODEL 1
REMARK VINA RESULT:      -9.8      0.000      0.000
REMARK  Name = C:\Users\Docking\Desktop\test protocol\1iep_ligandH.pdb
REMARK  8 active torsions:
REMARK  status: ('A' for Active; 'I' for Inactive)
REMARK    1  A    between atoms: _5  and  _11
REMARK    2  A    between atoms: _19  and  _21
REMARK    3  A    between atoms: _22  and  _66
REMARK    4  A    between atoms: _27  and  _30
REMARK    5  A    between atoms: _32  and  _33
REMARK    6  A    between atoms: _38  and  _43
REMARK    7  A    between atoms: _43  and  _46
REMARK    8  A    between atoms: _53  and  _55
REMARK                            x       y       z     vdW  Elec       q    Type
REMARK                         _______ _______ _______ _____ _____    ______ ____
ROOT
ATOM     10  C   UNL     1      11.370  14.841  54.158  0.00  0.00    +0.038 A 
ATOM     11  C   UNL     1      12.700  14.703  54.631  0.00  0.00    +0.047 A 
ATOM     12  C   UNL     1      13.827  14.677  53.711  0.00  0.00    +0.035 A 
ATOM     32  C   UNL     1      13.562  14.796  52.315  0.00  0.00    +0.024 A 
ATOM     33  C   UNL     1      12.216  14.935  51.817  0.00  0.00    +0.007 A 
ATOM     34  C   UNL     1      11.101  14.959  52.720  0.00  0.00    -0.029 A 
ATOM     35  C   UNL     1       9.679  15.104  52.130  0.00  0.00    +0.045 C 
ENDROOT
BRANCH  10   9
ATOM      4  C   UNL     1       7.974  12.658  56.754  0.00  0.00    +0.077 A 
ATOM      5  C   UNL     1       8.288  11.375  56.195  0.00  0.00    +0.048 A 
ATOM      6  C   UNL     1       9.326  11.320  55.238  0.00  0.00    +0.116 A 
ATOM      7  N   UNL     1       9.992  12.470  54.874  0.00  0.00    -0.223 NA
ATOM      8  C   UNL     1       9.663  13.692  55.431  0.00  0.00    +0.220 A 
ATOM      9  N   UNL     1      10.326  14.860  55.086  0.00  0.00    -0.283 N 
ATOM     36  H   UNL     1      10.048  15.743  55.514  0.00  0.00    +0.155 HD
ATOM     37  N   UNL     1       8.675  13.771  56.347  0.00  0.00    -0.214 NA
BRANCH   4   3
ATOM      1  C   UNL     1       4.515  12.762  58.579  0.00  0.00    +0.020 A 
ATOM      2  C   UNL     1       5.508  12.530  57.555  0.00  0.00    +0.013 A 
ATOM      3  C   UNL     1       6.906  12.877  57.780  0.00  0.00    +0.019 A 
ATOM     38  C   UNL     1       7.269  13.461  59.062  0.00  0.00    +0.120 A 
ATOM     39  N   UNL     1       6.291  13.674  60.029  0.00  0.00    -0.263 NA
ATOM     40  C   UNL     1       4.942  13.346  59.823  0.00  0.00    +0.111 A 
ENDBRANCH   4   3
ENDBRANCH  10   9
BRANCH  12  13
ATOM     13  N   UNL     1      15.198  14.532  54.132  0.00  0.00    -0.281 N 
ATOM     14  C   UNL     1      16.248  15.414  53.933  0.00  0.00    +0.248 C 
ATOM     30  O   UNL     1      16.213  16.369  53.172  0.00  0.00    -0.270 OA
ATOM     31  H   UNL     1      15.422  13.675  54.638  0.00  0.00    +0.155 HD
BRANCH  14  15
ATOM     15  C   UNL     1      17.526  15.194  54.676  0.00  0.00    +0.037 A 
ATOM     16  C   UNL     1      17.908  13.863  55.154  0.00  0.00    +0.013 A 
ATOM     17  C   UNL     1      19.138  13.682  55.883  0.00  0.00    +0.005 A 
ATOM     18  C   UNL     1      19.997  14.836  56.137  0.00  0.00    -0.033 A 
ATOM     28  C   UNL     1      19.596  16.144  55.647  0.00  0.00    +0.005 A 
ATOM     29  C   UNL     1      18.390  16.326  54.933  0.00  0.00    +0.013 A 
BRANCH  18  19
ATOM     19  C   UNL     1      21.317  14.739  56.925  0.00  0.00    +0.119 C 
BRANCH  19  20
ATOM     20  N   UNL     1      21.920  16.017  57.408  0.00  0.00    -0.302 NA
ATOM     21  C   UNL     1      23.242  16.331  56.702  0.00  0.00    +0.066 C 
ATOM     22  C   UNL     1      23.848  17.683  57.203  0.00  0.00    -0.064 C 
ATOM     23  N   UNL     1      24.045  17.619  58.718  0.00  0.00    +0.379 N 
ATOM     24  C   UNL     1      24.668  18.867  59.185  0.00  0.00    -0.096 C 
ATOM     25  H   UNL     1      24.754  16.786  58.932  0.00  0.00    -0.082 HD
ATOM     26  C   UNL     1      22.736  17.305  59.428  0.00  0.00    -0.064 C 
ATOM     27  C   UNL     1      22.127  15.975  58.902  0.00  0.00    +0.066 C 
ENDBRANCH  19  20
ENDBRANCH  18  19
ENDBRANCH  14  15
ENDBRANCH  12  13
TORSDOF 6
ENDMDL
MODEL 2
REMARK VINA RESULT:      -9.3      6.438     13.601
REMARK  Name = C:\Users\Docking\Desktop\test protocol\1iep_ligandH.pdb
REMARK  8 active torsions:
REMARK  status: ('A' for Active; 'I' for Inactive)
REMARK    1  A    between atoms: _5  and  _11
REMARK    2  A    between atoms: _19  and  _21
REMARK    3  A    between atoms: _22  and  _66
REMARK    4  A    between atoms: _27  and  _30
REMARK    5  A    between atoms: _32  and  _33
REMARK    6  A    between atoms: _38  and  _43
REMARK    7  A    between atoms: _43  and  _46
REMARK    8  A    between atoms: _53  and  _55
REMARK                            x       y       z     vdW  Elec       q    Type
REMARK                         _______ _______ _______ _____ _____    ______ ____
ROOT
ATOM     10  C   UNL     1      10.905  14.840  54.267  0.00  0.00    +0.038 A 
ATOM     11  C   UNL     1       9.512  15.050  54.099  0.00  0.00    +0.047 A 
ATOM     12  C   UNL     1       8.968  15.507  52.830  0.00  0.00    +0.035 A 
ATOM     32  C   UNL     1       9.871  15.737  51.751  0.00  0.00    +0.024 A 
ATOM     33  C   UNL     1      11.289  15.530  51.905  0.00  0.00    +0.007 A 
ATOM     34  C   UNL     1      11.832  15.082  53.155  0.00  0.00    -0.029 A 
ATOM     35  C   UNL     1      13.362  14.883  53.265  0.00  0.00    +0.045 C 
ENDROOT
BRANCH  10   9
ATOM      4  C   UNL     1      10.902  11.751  57.940  0.00  0.00    +0.077 A 
ATOM      5  C   UNL     1       9.861  10.960  57.351  0.00  0.00    +0.048 A 
ATOM      6  C   UNL     1       9.348  11.386  56.105  0.00  0.00    +0.116 A 
ATOM      7  N   UNL     1       9.847  12.520  55.503  0.00  0.00    -0.223 NA
ATOM      8  C   UNL     1      10.851  13.262  56.099  0.00  0.00    +0.220 A 
ATOM      9  N   UNL     1      11.373  14.401  55.507  0.00  0.00    -0.283 N 
ATOM     36  H   UNL     1      12.108  14.925  55.983  0.00  0.00    +0.155 HD
ATOM     37  N   UNL     1      11.356  12.876  57.289  0.00  0.00    -0.214 NA
BRANCH   4   3
ATOM      1  C   UNL     1      12.581   9.823  60.900  0.00  0.00    +0.020 A 
ATOM      2  C   UNL     1      11.961  10.080  59.621  0.00  0.00    +0.013 A 
ATOM      3  C   UNL     1      11.548  11.429  59.252  0.00  0.00    +0.019 A 
ATOM     38  C   UNL     1      11.780  12.502  60.207  0.00  0.00    +0.120 A 
ATOM     39  N   UNL     1      12.378  12.223  61.432  0.00  0.00    -0.263 NA
ATOM     40  C   UNL     1      12.778  10.930  61.799  0.00  0.00    +0.111 A 
ENDBRANCH   4   3
ENDBRANCH  10   9
BRANCH  12  13
ATOM     13  N   UNL     1       7.564  15.745  52.602  0.00  0.00    -0.281 N 
ATOM     14  C   UNL     1       6.659  14.933  51.939  0.00  0.00    +0.248 C 
ATOM     30  O   UNL     1       6.968  13.971  51.250  0.00  0.00    -0.270 OA
ATOM     31  H   UNL     1       7.192  16.618  52.976  0.00  0.00    +0.155 HD
BRANCH  14  15
ATOM     15  C   UNL     1       5.200  15.241  52.043  0.00  0.00    +0.037 A 
ATOM     16  C   UNL     1       4.536  15.342  53.345  0.00  0.00    +0.013 A 
ATOM     17  C   UNL     1       3.124  15.624  53.417  0.00  0.00    +0.005 A 
ATOM     18  C   UNL     1       2.367  15.808  52.181  0.00  0.00    -0.033 A 
ATOM     28  C   UNL     1       3.052  15.708  50.903  0.00  0.00    +0.005 A 
ATOM     29  C   UNL     1       4.435  15.430  50.829  0.00  0.00    +0.013 A 
BRANCH  18  19
ATOM     19  C   UNL     1       0.853  16.091  52.163  0.00  0.00    +0.119 C 
BRANCH  19  20
ATOM     20  N   UNL     1       0.213  16.474  53.456  0.00  0.00    -0.302 NA
ATOM     21  C   UNL     1      -0.509  15.293  54.111  0.00  0.00    +0.066 C 
ATOM     22  C   UNL     1      -1.154  15.706  55.474  0.00  0.00    -0.064 C 
ATOM     23  N   UNL     1      -2.118  16.872  55.248  0.00  0.00    +0.379 N 
ATOM     24  C   UNL     1      -2.769  17.224  56.518  0.00  0.00    -0.096 C 
ATOM     25  H   UNL     1      -2.911  16.524  54.546  0.00  0.00    -0.082 HD
ATOM     26  C   UNL     1      -1.408  18.049  54.594  0.00  0.00    -0.064 C 
ATOM     27  C   UNL     1      -0.746  17.622  53.255  0.00  0.00    +0.066 C 
ENDBRANCH  19  20
ENDBRANCH  18  19
ENDBRANCH  14  15
ENDBRANCH  12  13
TORSDOF 6
ENDMDL
MODEL 3
REMARK VINA RESULT:      -9.1      6.638      8.484
REMARK  Name = C:\Users\Docking\Desktop\test protocol\1iep_ligandH.pdb
REMARK  8 active torsions:
REMARK  status: ('A' for Active; 'I' for Inactive)
REMARK    1  A    between atoms: _5  and  _11
REMARK    2  A    between atoms: _19  and  _21
REMARK    3  A    between atoms: _22  and  _66
REMARK    4  A    between atoms: _27  and  _30
REMARK    5  A    between atoms: _32  and  _33
REMARK    6  A    between atoms: _38  and  _43
REMARK    7  A    between atoms: _43  and  _46
REMARK    8  A    between atoms: _53  and  _55
REMARK                            x       y       z     vdW  Elec       q    Type
REMARK                         _______ _______ _______ _____ _____    ______ ____
ROOT
ATOM     10  C   UNL     1      10.086  14.397  53.517  0.00  0.00    +0.038 A 
ATOM     11  C   UNL     1      10.041  13.840  54.821  0.00  0.00    +0.047 A 
ATOM     12  C   UNL     1      11.218  13.826  55.674  0.00  0.00    +0.035 A 
ATOM     32  C   UNL     1      12.426  14.390  55.169  0.00  0.00    +0.024 A 
ATOM     33  C   UNL     1      12.490  14.960  53.846  0.00  0.00    +0.007 A 
ATOM     34  C   UNL     1      11.332  14.974  52.998  0.00  0.00    -0.029 A 
ATOM     35  C   UNL     1      11.460  15.592  51.586  0.00  0.00    +0.045 C 
ENDROOT
BRANCH  10   9
ATOM      4  C   UNL     1       5.536  15.678  52.685  0.00  0.00    +0.077 A 
ATOM      5  C   UNL     1       5.456  16.413  53.914  0.00  0.00    +0.048 A 
ATOM      6  C   UNL     1       6.605  16.431  54.735  0.00  0.00    +0.116 A 
ATOM      7  N   UNL     1       7.744  15.760  54.346  0.00  0.00    -0.223 NA
ATOM      8  C   UNL     1       7.787  15.059  53.155  0.00  0.00    +0.220 A 
ATOM      9  N   UNL     1       8.925  14.384  52.740  0.00  0.00    -0.283 N 
ATOM     36  H   UNL     1       8.914  13.872  51.859  0.00  0.00    +0.155 HD
ATOM     37  N   UNL     1       6.702  15.026  52.354  0.00  0.00    -0.214 NA
BRANCH   4   3
ATOM      1  C   UNL     1       3.452  15.643  49.374  0.00  0.00    +0.020 A 
ATOM      2  C   UNL     1       4.576  15.761  50.274  0.00  0.00    +0.013 A 
ATOM      3  C   UNL     1       4.406  15.568  51.709  0.00  0.00    +0.019 A 
ATOM     38  C   UNL     1       3.074  15.253  52.204  0.00  0.00    +0.120 A 
ATOM     39  N   UNL     1       2.010  15.148  51.314  0.00  0.00    -0.263 NA
ATOM     40  C   UNL     1       2.162  15.333  49.932  0.00  0.00    +0.111 A 
ENDBRANCH   4   3
ENDBRANCH  10   9
BRANCH  12  13
ATOM     13  N   UNL     1      11.235  13.267  57.003  0.00  0.00    -0.281 N 
ATOM     14  C   UNL     1      10.750  12.037  57.416  0.00  0.00    +0.248 C 
ATOM     30  O   UNL     1      10.032  11.315  56.740  0.00  0.00    -0.270 OA
ATOM     31  H   UNL     1      11.655  13.849  57.728  0.00  0.00    +0.155 HD
BRANCH  14  15
ATOM     15  C   UNL     1      11.101  11.544  58.782  0.00  0.00    +0.037 A 
ATOM     16  C   UNL     1      11.767  10.253  58.976  0.00  0.00    +0.013 A 
ATOM     17  C   UNL     1      12.079   9.793  60.306  0.00  0.00    +0.005 A 
ATOM     18  C   UNL     1      11.727  10.627  61.453  0.00  0.00    -0.033 A 
ATOM     28  C   UNL     1      11.072  11.905  61.232  0.00  0.00    +0.005 A 
ATOM     29  C   UNL     1      10.763  12.358  59.930  0.00  0.00    +0.013 A 
BRANCH  18  19
ATOM     19  C   UNL     1      12.003  10.206  62.909  0.00  0.00    +0.119 C 
BRANCH  19  20
ATOM     20  N   UNL     1      13.400  10.365  63.413  0.00  0.00    -0.302 NA
ATOM     21  C   UNL     1      13.913   9.093  64.095  0.00  0.00    +0.066 C 
ATOM     22  C   UNL     1      15.383   9.269  64.596  0.00  0.00    -0.064 C 
ATOM     23  N   UNL     1      15.454  10.461  65.552  0.00  0.00    +0.379 N 
ATOM     24  C   UNL     1      16.823  10.594  66.070  0.00  0.00    -0.096 C 
ATOM     25  H   UNL     1      14.784  10.242  66.416  0.00  0.00    -0.082 HD
ATOM     26  C   UNL     1      14.943  11.730  64.883  0.00  0.00    -0.064 C 
ATOM     27  C   UNL     1      13.492  11.534  64.362  0.00  0.00    +0.066 C 
ENDBRANCH  19  20
ENDBRANCH  18  19
ENDBRANCH  14  15
ENDBRANCH  12  13
TORSDOF 6
ENDMDL
MODEL 4
REMARK VINA RESULT:      -9.1      6.949      8.871
REMARK  Name = C:\Users\Docking\Desktop\test protocol\1iep_ligandH.pdb
REMARK  8 active torsions:
REMARK  status: ('A' for Active; 'I' for Inactive)
REMARK    1  A    between atoms: _5  and  _11
REMARK    2  A    between atoms: _19  and  _21
REMARK    3  A    between atoms: _22  and  _66
REMARK    4  A    between atoms: _27  and  _30
REMARK    5  A    between atoms: _32  and  _33
REMARK    6  A    between atoms: _38  and  _43
REMARK    7  A    between atoms: _43  and  _46
REMARK    8  A    between atoms: _53  and  _55
REMARK                            x       y       z     vdW  Elec       q    Type
REMARK                         _______ _______ _______ _____ _____    ______ ____
ROOT
ATOM     10  C   UNL     1       8.806  15.598  52.369  0.00  0.00    +0.038 A 
ATOM     11  C   UNL     1       8.969  15.084  53.681  0.00  0.00    +0.047 A 
ATOM     12  C   UNL     1      10.288  14.770  54.208  0.00  0.00    +0.035 A 
ATOM     32  C   UNL     1      11.420  14.995  53.371  0.00  0.00    +0.024 A 
ATOM     33  C   UNL     1      11.272  15.515  52.035  0.00  0.00    +0.007 A 
ATOM     34  C   UNL     1       9.973  15.824  51.509  0.00  0.00    -0.029 A 
ATOM     35  C   UNL     1       9.874  16.374  50.067  0.00  0.00    +0.045 C 
ENDROOT
BRANCH  10   9
ATOM      4  C   UNL     1       4.591  14.271  50.495  0.00  0.00    +0.077 A 
ATOM      5  C   UNL     1       5.003  12.901  50.387  0.00  0.00    +0.048 A 
ATOM      6  C   UNL     1       6.310  12.581  50.818  0.00  0.00    +0.116 A 
ATOM      7  N   UNL     1       7.134  13.565  51.318  0.00  0.00    -0.223 NA
ATOM      8  C   UNL     1       6.706  14.877  51.407  0.00  0.00    +0.220 A 
ATOM      9  N   UNL     1       7.516  15.882  51.915  0.00  0.00    -0.283 N 
ATOM     36  H   UNL     1       7.165  16.838  51.957  0.00  0.00    +0.155 HD
ATOM     37  N   UNL     1       5.463  15.209  51.001  0.00  0.00    -0.214 NA
BRANCH   4   3
ATOM      1  C   UNL     1       1.033  15.896  50.555  0.00  0.00    +0.020 A 
ATOM      2  C   UNL     1       2.328  15.437  51.002  0.00  0.00    +0.013 A 
ATOM      3  C   UNL     1       3.239  14.766  50.084  0.00  0.00    +0.019 A 
ATOM     38  C   UNL     1       2.806  14.573  48.708  0.00  0.00    +0.120 A 
ATOM     39  N   UNL     1       1.553  15.024  48.306  0.00  0.00    -0.263 NA
ATOM     40  C   UNL     1       0.667  15.670  49.181  0.00  0.00    +0.111 A 
ENDBRANCH   4   3
ENDBRANCH  10   9
BRANCH  12  13
ATOM     13  N   UNL     1      10.515  14.239  55.529  0.00  0.00    -0.281 N 
ATOM     14  C   UNL     1      10.378  12.928  55.955  0.00  0.00    +0.248 C 
ATOM     30  O   UNL     1       9.829  12.046  55.310  0.00  0.00    -0.270 OA
ATOM     31  H   UNL     1      10.814  14.911  56.236  0.00  0.00    +0.155 HD
BRANCH  14  15
ATOM     15  C   UNL     1      10.914  12.545  57.296  0.00  0.00    +0.037 A 
ATOM     16  C   UNL     1      11.797  13.442  58.046  0.00  0.00    +0.013 A 
ATOM     17  C   UNL     1      12.314  13.040  59.330  0.00  0.00    +0.005 A 
ATOM     18  C   UNL     1      11.948  11.734  59.873  0.00  0.00    -0.033 A 
ATOM     28  C   UNL     1      11.066  10.866  59.110  0.00  0.00    +0.005 A 
ATOM     29  C   UNL     1      10.558  11.256  57.851  0.00  0.00    +0.013 A 
BRANCH  18  19
ATOM     19  C   UNL     1      12.470  11.214  61.226  0.00  0.00    +0.119 C 
BRANCH  19  20
ATOM     20  N   UNL     1      12.473  12.173  62.371  0.00  0.00    -0.302 NA
ATOM     21  C   UNL     1      13.219  11.614  63.586  0.00  0.00    +0.066 C 
ATOM     22  C   UNL     1      13.233  12.638  64.767  0.00  0.00    -0.064 C 
ATOM     23  N   UNL     1      11.795  13.005  65.136  0.00  0.00    +0.379 N 
ATOM     24  C   UNL     1      11.803  13.924  66.284  0.00  0.00    -0.096 C 
ATOM     25  H   UNL     1      11.279  12.070  65.455  0.00  0.00    -0.082 HD
ATOM     26  C   UNL     1      11.045  13.560  63.933  0.00  0.00    -0.064 C 
ATOM     27  C   UNL     1      11.063  12.546  62.756  0.00  0.00    +0.066 C 
ENDBRANCH  19  20
ENDBRANCH  18  19
ENDBRANCH  14  15
ENDBRANCH  12  13
TORSDOF 6
ENDMDL
MODEL 5
REMARK VINA RESULT:      -8.9      7.292     15.614
REMARK  Name = C:\Users\Docking\Desktop\test protocol\1iep_ligandH.pdb
REMARK  8 active torsions:
REMARK  status: ('A' for Active; 'I' for Inactive)
REMARK    1  A    between atoms: _5  and  _11
REMARK    2  A    between atoms: _19  and  _21
REMARK    3  A    between atoms: _22  and  _66
REMARK    4  A    between atoms: _27  and  _30
REMARK    5  A    between atoms: _32  and  _33
REMARK    6  A    between atoms: _38  and  _43
REMARK    7  A    between atoms: _43  and  _46
REMARK    8  A    between atoms: _53  and  _55
REMARK                            x       y       z     vdW  Elec       q    Type
REMARK                         _______ _______ _______ _____ _____    ______ ____
ROOT
ATOM     10  C   UNL     1       8.497  13.202  53.391  0.00  0.00    +0.038 A 
ATOM     11  C   UNL     1       7.385  13.684  52.654  0.00  0.00    +0.047 A 
ATOM     12  C   UNL     1       6.023  13.359  53.048  0.00  0.00    +0.035 A 
ATOM     32  C   UNL     1       5.829  12.543  54.200  0.00  0.00    +0.024 A 
ATOM     33  C   UNL     1       6.948  12.043  54.960  0.00  0.00    +0.007 A 
ATOM     34  C   UNL     1       8.294  12.358  54.575  0.00  0.00    -0.029 A 
ATOM     35  C   UNL     1       9.455  11.789  55.423  0.00  0.00    +0.045 C 
ENDROOT
BRANCH  10   9
ATOM      4  C   UNL     1      11.921  16.428  52.443  0.00  0.00    +0.077 A 
ATOM      5  C   UNL     1      11.067  17.526  52.795  0.00  0.00    +0.048 A 
ATOM      6  C   UNL     1       9.752  17.218  53.208  0.00  0.00    +0.116 A 
ATOM      7  N   UNL     1       9.332  15.906  53.262  0.00  0.00    -0.223 NA
ATOM      8  C   UNL     1      10.181  14.871  52.914  0.00  0.00    +0.220 A 
ATOM      9  N   UNL     1       9.783  13.544  52.968  0.00  0.00    -0.283 N 
ATOM     36  H   UNL     1      10.436  12.810  52.696  0.00  0.00    +0.155 HD
ATOM     37  N   UNL     1      11.442  15.139  52.515  0.00  0.00    -0.214 NA
BRANCH   4   3
ATOM      1  C   UNL     1      15.541  15.682  51.161  0.00  0.00    +0.020 A 
ATOM      2  C   UNL     1      14.178  15.469  51.590  0.00  0.00    +0.013 A 
ATOM      3  C   UNL     1      13.339  16.592  51.991  0.00  0.00    +0.019 A 
ATOM     38  C   UNL     1      13.914  17.928  51.944  0.00  0.00    +0.120 A 
ATOM     39  N   UNL     1      15.230  18.102  51.527  0.00  0.00    -0.263 NA
ATOM     40  C   UNL     1      16.048  17.029  51.141  0.00  0.00    +0.111 A 
ENDBRANCH   4   3
ENDBRANCH  10   9
BRANCH  12  13
ATOM     13  N   UNL     1       4.855  13.813  52.334  0.00  0.00    -0.281 N 
ATOM     14  C   UNL     1       4.216  15.038  52.439  0.00  0.00    +0.248 C 
ATOM     30  O   UNL     1       4.426  15.854  53.324  0.00  0.00    -0.270 OA
ATOM     31  H   UNL     1       4.452  13.152  51.670  0.00  0.00    +0.155 HD
BRANCH  14  15
ATOM     15  C   UNL     1       3.183  15.402  51.422  0.00  0.00    +0.037 A 
ATOM     16  C   UNL     1       1.752  15.307  51.724  0.00  0.00    +0.013 A 
ATOM     17  C   UNL     1       0.777  15.648  50.719  0.00  0.00    +0.005 A 
ATOM     18  C   UNL     1       1.229  16.090  49.402  0.00  0.00    -0.033 A 
ATOM     28  C   UNL     1       2.655  16.181  49.131  0.00  0.00    +0.005 A 
ATOM     29  C   UNL     1       3.614  15.846  50.113  0.00  0.00    +0.013 A 
BRANCH  18  19
ATOM     19  C   UNL     1       0.259  16.454  48.263  0.00  0.00    +0.119 C 
BRANCH  19  20
ATOM     20  N   UNL     1      -0.036  17.903  48.053  0.00  0.00    -0.302 NA
ATOM     21  C   UNL     1      -1.520  18.151  47.765  0.00  0.00    +0.066 C 
ATOM     22  C   UNL     1      -1.815  19.674  47.571  0.00  0.00    -0.064 C 
ATOM     23  N   UNL     1      -0.944  20.219  46.437  0.00  0.00    +0.379 N 
ATOM     24  C   UNL     1      -1.261  21.637  46.214  0.00  0.00    -0.096 C 
ATOM     25  H   UNL     1      -1.211  19.662  45.509  0.00  0.00    -0.082 HD
ATOM     26  C   UNL     1       0.532  19.974  46.715  0.00  0.00    -0.064 C 
ATOM     27  C   UNL     1       0.810  18.461  46.935  0.00  0.00    +0.066 C 
ENDBRANCH  19  20
ENDBRANCH  18  19
ENDBRANCH  14  15
ENDBRANCH  12  13
TORSDOF 6
ENDMDL
