MODEL 1
REMARK VINA RESULT:     -10.0      0.000      0.000
REMARK  Name = C:\Users\Docking\Desktop\test protocol\1iep_ligandH.pdb
REMARK  8 active torsions:
REMARK  status: ('A' for Active; 'I' for Inactive)
REMARK    1  A    between atoms: _5  and  _11
REMARK    2  A    between atoms: _19  and  _21
REMARK    3  A    between atoms: _22  and  _66
REMARK    4  A    between atoms: _27  and  _30
REMARK    5  A    between atoms: _32  and  _33
REMARK    6  A    between atoms: _38  and  _43
REMARK    7  A    between atoms: _43  and  _46
REMARK    8  A    between atoms: _53  and  _55
REMARK                            x       y       z     vdW  Elec       q    Type
REMARK                         _______ _______ _______ _____ _____    ______ ____
ROOT
ATOM     10  C   UNL     1      21.454  -3.627   4.317  0.00  0.00    +0.038 A 
ATOM     11  C   UNL     1      20.581  -3.329   3.239  0.00  0.00    +0.047 A 
ATOM     12  C   UNL     1      21.040  -2.567   2.088  0.00  0.00    +0.035 A 
ATOM     32  C   UNL     1      22.396  -2.126   2.067  0.00  0.00    +0.024 A 
ATOM     33  C   UNL     1      23.296  -2.420   3.154  0.00  0.00    +0.007 A 
ATOM     34  C   UNL     1      22.848  -3.169   4.293  0.00  0.00    -0.029 A 
ATOM     35  C   UNL     1      23.855  -3.449   5.433  0.00  0.00    +0.045 C 
ENDROOT
BRANCH  10   9
ATOM      4  C   UNL     1      20.118  -7.755   6.370  0.00  0.00    +0.077 A 
ATOM      5  C   UNL     1      20.402  -8.506   5.182  0.00  0.00    +0.048 A 
ATOM      6  C   UNL     1      20.884  -7.792   4.062  0.00  0.00    +0.116 A 
ATOM      7  N   UNL     1      21.064  -6.428   4.136  0.00  0.00    -0.223 NA
ATOM      8  C   UNL     1      20.779  -5.733   5.297  0.00  0.00    +0.220 A 
ATOM      9  N   UNL     1      20.960  -4.362   5.397  0.00  0.00    -0.283 N 
ATOM     36  H   UNL     1      20.730  -3.885   6.268  0.00  0.00    +0.155 HD
ATOM     37  N   UNL     1      20.316  -6.392   6.380  0.00  0.00    -0.214 NA
BRANCH   4   3
ATOM      1  C   UNL     1      19.818  -8.956  10.080  0.00  0.00    +0.020 A 
ATOM      2  C   UNL     1      20.358  -8.350   8.885  0.00  0.00    +0.013 A 
ATOM      3  C   UNL     1      19.606  -8.367   7.637  0.00  0.00    +0.019 A 
ATOM     38  C   UNL     1      18.300  -9.009   7.632  0.00  0.00    +0.120 A 
ATOM     39  N   UNL     1      17.806  -9.586   8.798  0.00  0.00    -0.263 NA
ATOM     40  C   UNL     1      18.522  -9.577  10.005  0.00  0.00    +0.111 A 
ENDBRANCH   4   3
ENDBRANCH  10   9
BRANCH  12  13
ATOM     13  N   UNL     1      20.198  -2.226   0.968  0.00  0.00    -0.281 N 
ATOM     14  C   UNL     1      19.425  -3.077   0.195  0.00  0.00    +0.248 C 
ATOM     30  O   UNL     1      19.507  -4.296   0.216  0.00  0.00    -0.270 OA
ATOM     31  H   UNL     1      20.168  -1.239   0.715  0.00  0.00    +0.155 HD
BRANCH  14  15
ATOM     15  C   UNL     1      18.426  -2.487  -0.748  0.00  0.00    +0.037 A 
ATOM     16  C   UNL     1      17.811  -1.184  -0.486  0.00  0.00    +0.013 A 
ATOM     17  C   UNL     1      16.837  -0.646  -1.403  0.00  0.00    +0.005 A 
ATOM     18  C   UNL     1      16.475  -1.412  -2.593  0.00  0.00    -0.033 A 
ATOM     28  C   UNL     1      17.104  -2.700  -2.831  0.00  0.00    +0.005 A 
ATOM     29  C   UNL     1      18.058  -3.231  -1.934  0.00  0.00    +0.013 A 
BRANCH  18  19
ATOM     19  C   UNL     1      15.430  -0.925  -3.615  0.00  0.00    +0.119 C 
BRANCH  19  20
ATOM     20  N   UNL     1      14.394  -1.907  -4.054  0.00  0.00    -0.302 NA
ATOM     21  C   UNL     1      14.487  -2.209  -5.552  0.00  0.00    +0.066 C 
ATOM     22  C   UNL     1      13.410  -3.255  -5.990  0.00  0.00    -0.064 C 
ATOM     23  N   UNL     1      12.019  -2.732  -5.628  0.00  0.00    +0.379 N 
ATOM     24  C   UNL     1      11.000  -3.686  -6.090  0.00  0.00    -0.096 C 
ATOM     25  H   UNL     1      11.863  -1.776  -6.181  0.00  0.00    -0.082 HD
ATOM     26  C   UNL     1      11.918  -2.426  -4.140  0.00  0.00    -0.064 C 
ATOM     27  C   UNL     1      13.012  -1.408  -3.710  0.00  0.00    +0.066 C 
ENDBRANCH  19  20
ENDBRANCH  18  19
ENDBRANCH  14  15
ENDBRANCH  12  13
TORSDOF 6
ENDMDL
MODEL 2
REMARK VINA RESULT:      -9.3      1.181      1.401
REMARK  Name = C:\Users\Docking\Desktop\test protocol\1iep_ligandH.pdb
REMARK  8 active torsions:
REMARK  status: ('A' for Active; 'I' for Inactive)
REMARK    1  A    between atoms: _5  and  _11
REMARK    2  A    between atoms: _19  and  _21
REMARK    3  A    between atoms: _22  and  _66
REMARK    4  A    between atoms: _27  and  _30
REMARK    5  A    between atoms: _32  and  _33
REMARK    6  A    between atoms: _38  and  _43
REMARK    7  A    between atoms: _43  and  _46
REMARK    8  A    between atoms: _53  and  _55
REMARK                            x       y       z     vdW  Elec       q    Type
REMARK                         _______ _______ _______ _____ _____    ______ ____
ROOT
ATOM     10  C   UNL     1      21.546  -4.279   3.687  0.00  0.00    +0.038 A 
ATOM     11  C   UNL     1      20.631  -3.780   2.725  0.00  0.00    +0.047 A 
ATOM     12  C   UNL     1      21.097  -3.139   1.505  0.00  0.00    +0.035 A 
ATOM     32  C   UNL     1      22.502  -3.026   1.296  0.00  0.00    +0.024 A 
ATOM     33  C   UNL     1      23.446  -3.526   2.264  0.00  0.00    +0.007 A 
ATOM     34  C   UNL     1      22.993  -4.157   3.470  0.00  0.00    -0.029 A 
ATOM     35  C   UNL     1      24.050  -4.669   4.476  0.00  0.00    +0.045 C 
ENDROOT
BRANCH  10   9
ATOM      4  C   UNL     1      19.956  -8.106   6.108  0.00  0.00    +0.077 A 
ATOM      5  C   UNL     1      20.114  -8.965   4.970  0.00  0.00    +0.048 A 
ATOM      6  C   UNL     1      20.600  -8.381   3.779  0.00  0.00    +0.116 A 
ATOM      7  N   UNL     1      20.903  -7.038   3.740  0.00  0.00    -0.223 NA
ATOM      8  C   UNL     1      20.738  -6.237   4.855  0.00  0.00    +0.220 A 
ATOM      9  N   UNL     1      21.044  -4.885   4.841  0.00  0.00    -0.283 N 
ATOM     36  H   UNL     1      20.900  -4.326   5.682  0.00  0.00    +0.155 HD
ATOM     37  N   UNL     1      20.273  -6.770   6.004  0.00  0.00    -0.214 NA
BRANCH   4   3
ATOM      1  C   UNL     1      19.680  -8.873   9.934  0.00  0.00    +0.020 A 
ATOM      2  C   UNL     1      20.209  -8.403   8.674  0.00  0.00    +0.013 A 
ATOM      3  C   UNL     1      19.455  -8.575   7.439  0.00  0.00    +0.019 A 
ATOM     38  C   UNL     1      18.159  -9.232   7.513  0.00  0.00    +0.120 A 
ATOM     39  N   UNL     1      17.676  -9.676   8.740  0.00  0.00    -0.263 NA
ATOM     40  C   UNL     1      18.393  -9.518   9.935  0.00  0.00    +0.111 A 
ENDBRANCH   4   3
ENDBRANCH  10   9
BRANCH  12  13
ATOM     13  N   UNL     1      20.215  -2.607   0.496  0.00  0.00    -0.281 N 
ATOM     14  C   UNL     1      19.270  -3.287  -0.254  0.00  0.00    +0.248 C 
ATOM     30  O   UNL     1      19.187  -4.505  -0.322  0.00  0.00    -0.270 OA
ATOM     31  H   UNL     1      20.298  -1.607   0.312  0.00  0.00    +0.155 HD
BRANCH  14  15
ATOM     15  C   UNL     1      18.283  -2.502  -1.056  0.00  0.00    +0.037 A 
ATOM     16  C   UNL     1      17.822  -1.184  -0.614  0.00  0.00    +0.013 A 
ATOM     17  C   UNL     1      16.856  -0.455  -1.398  0.00  0.00    +0.005 A 
ATOM     18  C   UNL     1      16.346  -1.044  -2.633  0.00  0.00    -0.033 A 
ATOM     28  C   UNL     1      16.824  -2.351  -3.051  0.00  0.00    +0.005 A 
ATOM     29  C   UNL     1      17.770  -3.069  -2.285  0.00  0.00    +0.013 A 
BRANCH  18  19
ATOM     19  C   UNL     1      15.298  -0.347  -3.521  0.00  0.00    +0.119 C 
BRANCH  19  20
ATOM     20  N   UNL     1      15.112  -0.877  -4.905  0.00  0.00    -0.302 NA
ATOM     21  C   UNL     1      15.042   0.244  -5.946  0.00  0.00    +0.066 C 
ATOM     22  C   UNL     1      14.870  -0.330  -7.390  0.00  0.00    -0.064 C 
ATOM     23  N   UNL     1      13.612  -1.199  -7.444  0.00  0.00    +0.379 N 
ATOM     24  C   UNL     1      13.416  -1.693  -8.815  0.00  0.00    -0.096 C 
ATOM     25  H   UNL     1      12.742  -0.550  -7.190  0.00  0.00    -0.082 HD
ATOM     26  C   UNL     1      13.673  -2.315  -6.410  0.00  0.00    -0.064 C 
ATOM     27  C   UNL     1      13.873  -1.735  -4.982  0.00  0.00    +0.066 C 
ENDBRANCH  19  20
ENDBRANCH  18  19
ENDBRANCH  14  15
ENDBRANCH  12  13
TORSDOF 6
ENDMDL
MODEL 3
REMARK VINA RESULT:      -9.2      2.183      2.996
REMARK  Name = C:\Users\Docking\Desktop\test protocol\1iep_ligandH.pdb
REMARK  8 active torsions:
REMARK  status: ('A' for Active; 'I' for Inactive)
REMARK    1  A    between atoms: _5  and  _11
REMARK    2  A    between atoms: _19  and  _21
REMARK    3  A    between atoms: _22  and  _66
REMARK    4  A    between atoms: _27  and  _30
REMARK    5  A    between atoms: _32  and  _33
REMARK    6  A    between atoms: _38  and  _43
REMARK    7  A    between atoms: _43  and  _46
REMARK    8  A    between atoms: _53  and  _55
REMARK                            x       y       z     vdW  Elec       q    Type
REMARK                         _______ _______ _______ _____ _____    ______ ____
ROOT
ATOM     10  C   UNL     1      19.909  -7.869   2.466  0.00  0.00    +0.038 A 
ATOM     11  C   UNL     1      19.183  -6.840   1.814  0.00  0.00    +0.047 A 
ATOM     12  C   UNL     1      19.681  -6.223   0.595  0.00  0.00    +0.035 A 
ATOM     32  C   UNL     1      20.922  -6.681   0.065  0.00  0.00    +0.024 A 
ATOM     33  C   UNL     1      21.674  -7.726   0.715  0.00  0.00    +0.007 A 
ATOM     34  C   UNL     1      21.189  -8.336   1.919  0.00  0.00    -0.029 A 
ATOM     35  C   UNL     1      22.040  -9.447   2.577  0.00  0.00    +0.045 C 
ENDROOT
BRANCH  10   9
ATOM      4  C   UNL     1      19.427  -8.018   7.239  0.00  0.00    +0.077 A 
ATOM      5  C   UNL     1      20.318  -6.909   7.423  0.00  0.00    +0.048 A 
ATOM      6  C   UNL     1      20.886  -6.334   6.264  0.00  0.00    +0.116 A 
ATOM      7  N   UNL     1      20.577  -6.837   5.019  0.00  0.00    -0.223 NA
ATOM      8  C   UNL     1      19.714  -7.909   4.877  0.00  0.00    +0.220 A 
ATOM      9  N   UNL     1      19.383  -8.426   3.634  0.00  0.00    -0.283 N 
ATOM     36  H   UNL     1      18.749  -9.222   3.572  0.00  0.00    +0.155 HD
ATOM     37  N   UNL     1      19.161  -8.477   5.968  0.00  0.00    -0.214 NA
BRANCH   4   3
ATOM      1  C   UNL     1      18.677  -9.649  10.715  0.00  0.00    +0.020 A 
ATOM      2  C   UNL     1      19.379  -8.955   9.660  0.00  0.00    +0.013 A 
ATOM      3  C   UNL     1      18.746  -8.731   8.366  0.00  0.00    +0.019 A 
ATOM     38  C   UNL     1      17.391  -9.225   8.171  0.00  0.00    +0.120 A 
ATOM     39  N   UNL     1      16.741  -9.891   9.205  0.00  0.00    -0.263 NA
ATOM     40  C   UNL     1      17.341 -10.114  10.454  0.00  0.00    +0.111 A 
ENDBRANCH   4   3
ENDBRANCH  10   9
BRANCH  12  13
ATOM     13  N   UNL     1      18.991  -5.169  -0.106  0.00  0.00    -0.281 N 
ATOM     14  C   UNL     1      19.224  -3.805  -0.035  0.00  0.00    +0.248 C 
ATOM     30  O   UNL     1      19.924  -3.266   0.810  0.00  0.00    -0.270 OA
ATOM     31  H   UNL     1      18.241  -5.463  -0.731  0.00  0.00    +0.155 HD
BRANCH  14  15
ATOM     15  C   UNL     1      18.574  -2.908  -1.039  0.00  0.00    +0.037 A 
ATOM     16  C   UNL     1      17.709  -1.801  -0.621  0.00  0.00    +0.013 A 
ATOM     17  C   UNL     1      17.081  -0.962  -1.610  0.00  0.00    +0.005 A 
ATOM     18  C   UNL     1      17.316  -1.226  -3.028  0.00  0.00    -0.033 A 
ATOM     28  C   UNL     1      18.182  -2.328  -3.414  0.00  0.00    +0.005 A 
ATOM     29  C   UNL     1      18.799  -3.153  -2.447  0.00  0.00    +0.013 A 
BRANCH  18  19
ATOM     19  C   UNL     1      16.669  -0.395  -4.152  0.00  0.00    +0.119 C 
BRANCH  19  20
ATOM     20  N   UNL     1      15.215  -0.613  -4.414  0.00  0.00    -0.302 NA
ATOM     21  C   UNL     1      14.336   0.007  -3.325  0.00  0.00    +0.066 C 
ATOM     22  C   UNL     1      12.817  -0.211  -3.627  0.00  0.00    -0.064 C 
ATOM     23  N   UNL     1      12.537  -1.708  -3.761  0.00  0.00    +0.379 N 
ATOM     24  C   UNL     1      11.100  -1.920  -3.987  0.00  0.00    -0.096 C 
ATOM     25  H   UNL     1      12.801  -2.190  -2.791  0.00  0.00    -0.082 HD
ATOM     26  C   UNL     1      13.409  -2.334  -4.840  0.00  0.00    -0.064 C 
ATOM     27  C   UNL     1      14.915  -2.086  -4.546  0.00  0.00    +0.066 C 
ENDBRANCH  19  20
ENDBRANCH  18  19
ENDBRANCH  14  15
ENDBRANCH  12  13
TORSDOF 6
ENDMDL
MODEL 4
REMARK VINA RESULT:      -8.7      7.080     12.818
REMARK  Name = C:\Users\Docking\Desktop\test protocol\1iep_ligandH.pdb
REMARK  8 active torsions:
REMARK  status: ('A' for Active; 'I' for Inactive)
REMARK    1  A    between atoms: _5  and  _11
REMARK    2  A    between atoms: _19  and  _21
REMARK    3  A    between atoms: _22  and  _66
REMARK    4  A    between atoms: _27  and  _30
REMARK    5  A    between atoms: _32  and  _33
REMARK    6  A    between atoms: _38  and  _43
REMARK    7  A    between atoms: _43  and  _46
REMARK    8  A    between atoms: _53  and  _55
REMARK                            x       y       z     vdW  Elec       q    Type
REMARK                         _______ _______ _______ _____ _____    ______ ____
ROOT
ATOM     10  C   UNL     1      23.522  -7.219   3.293  0.00  0.00    +0.038 A 
ATOM     11  C   UNL     1      22.700  -7.661   4.361  0.00  0.00    +0.047 A 
ATOM     12  C   UNL     1      21.549  -6.884   4.795  0.00  0.00    +0.035 A 
ATOM     32  C   UNL     1      21.263  -5.663   4.117  0.00  0.00    +0.024 A 
ATOM     33  C   UNL     1      22.089  -5.199   3.030  0.00  0.00    +0.007 A 
ATOM     34  C   UNL     1      23.227  -5.960   2.599  0.00  0.00    -0.029 A 
ATOM     35  C   UNL     1      24.081  -5.410   1.433  0.00  0.00    +0.045 C 
ENDROOT
BRANCH  10   9
ATOM      4  C   UNL     1      28.234  -8.120   3.139  0.00  0.00    +0.077 A 
ATOM      5  C   UNL     1      28.549  -6.910   3.842  0.00  0.00    +0.048 A 
ATOM      6  C   UNL     1      27.469  -6.080   4.220  0.00  0.00    +0.116 A 
ATOM      7  N   UNL     1      26.176  -6.443   3.912  0.00  0.00    -0.223 NA
ATOM      8  C   UNL     1      25.908  -7.616   3.231  0.00  0.00    +0.220 A 
ATOM      9  N   UNL     1      24.615  -8.005   2.917  0.00  0.00    -0.283 N 
ATOM     36  H   UNL     1      24.459  -8.874   2.407  0.00  0.00    +0.155 HD
ATOM     37  N   UNL     1      26.921  -8.425   2.858  0.00  0.00    -0.214 NA
BRANCH   4   3
ATOM      1  C   UNL     1      30.281 -11.410   2.603  0.00  0.00    +0.020 A 
ATOM      2  C   UNL     1      29.263 -10.502   3.079  0.00  0.00    +0.013 A 
ATOM      3  C   UNL     1      29.265  -9.102   2.676  0.00  0.00    +0.019 A 
ATOM     38  C   UNL     1      30.320  -8.648   1.782  0.00  0.00    +0.120 A 
ATOM     39  N   UNL     1      31.288  -9.544   1.340  0.00  0.00    -0.263 NA
ATOM     40  C   UNL     1      31.297 -10.894   1.724  0.00  0.00    +0.111 A 
ENDBRANCH   4   3
ENDBRANCH  10   9
BRANCH  12  13
ATOM     13  N   UNL     1      20.683  -7.278   5.878  0.00  0.00    -0.281 N 
ATOM     14  C   UNL     1      19.643  -8.193   5.848  0.00  0.00    +0.248 C 
ATOM     30  O   UNL     1      19.161  -8.657   4.826  0.00  0.00    -0.270 OA
ATOM     31  H   UNL     1      20.857  -6.827   6.777  0.00  0.00    +0.155 HD
BRANCH  14  15
ATOM     15  C   UNL     1      19.043  -8.647   7.139  0.00  0.00    +0.037 A 
ATOM     16  C   UNL     1      19.619  -8.250   8.426  0.00  0.00    +0.013 A 
ATOM     17  C   UNL     1      19.031  -8.716   9.657  0.00  0.00    +0.005 A 
ATOM     18  C   UNL     1      17.858  -9.585   9.606  0.00  0.00    -0.033 A 
ATOM     28  C   UNL     1      17.304  -9.960   8.315  0.00  0.00    +0.005 A 
ATOM     29  C   UNL     1      17.878  -9.505   7.107  0.00  0.00    +0.013 A 
BRANCH  18  19
ATOM     19  C   UNL     1      17.177 -10.147  10.868  0.00  0.00    +0.119 C 
BRANCH  19  20
ATOM     20  N   UNL     1      17.753  -9.753  12.188  0.00  0.00    -0.302 NA
ATOM     21  C   UNL     1      18.664 -10.840  12.765  0.00  0.00    +0.066 C 
ATOM     22  C   UNL     1      19.276 -10.402  14.136  0.00  0.00    -0.064 C 
ATOM     23  N   UNL     1      18.147 -10.067  15.111  0.00  0.00    +0.379 N 
ATOM     24  C   UNL     1      18.717  -9.711  16.419  0.00  0.00    -0.096 C 
ATOM     25  H   UNL     1      17.535 -10.989  15.249  0.00  0.00    -0.082 HD
ATOM     26  C   UNL     1      17.234  -8.989  14.544  0.00  0.00    -0.064 C 
ATOM     27  C   UNL     1      16.655  -9.422  13.169  0.00  0.00    +0.066 C 
ENDBRANCH  19  20
ENDBRANCH  18  19
ENDBRANCH  14  15
ENDBRANCH  12  13
TORSDOF 6
ENDMDL
MODEL 5
REMARK VINA RESULT:      -8.6      6.793     11.664
REMARK  Name = C:\Users\Docking\Desktop\test protocol\1iep_ligandH.pdb
REMARK  8 active torsions:
REMARK  status: ('A' for Active; 'I' for Inactive)
REMARK    1  A    between atoms: _5  and  _11
REMARK    2  A    between atoms: _19  and  _21
REMARK    3  A    between atoms: _22  and  _66
REMARK    4  A    between atoms: _27  and  _30
REMARK    5  A    between atoms: _32  and  _33
REMARK    6  A    between atoms: _38  and  _43
REMARK    7  A    between atoms: _43  and  _46
REMARK    8  A    between atoms: _53  and  _55
REMARK                            x       y       z     vdW  Elec       q    Type
REMARK                         _______ _______ _______ _____ _____    ______ ____
ROOT
ATOM     10  C   UNL     1      22.276  -4.739   4.567  0.00  0.00    +0.038 A 
ATOM     11  C   UNL     1      22.863  -3.835   5.488  0.00  0.00    +0.047 A 
ATOM     12  C   UNL     1      23.868  -2.873   5.063  0.00  0.00    +0.035 A 
ATOM     32  C   UNL     1      24.250  -2.859   3.689  0.00  0.00    +0.024 A 
ATOM     33  C   UNL     1      23.665  -3.771   2.739  0.00  0.00    +0.007 A 
ATOM     34  C   UNL     1      22.675  -4.724   3.154  0.00  0.00    -0.029 A 
ATOM     35  C   UNL     1      22.086  -5.683   2.093  0.00  0.00    +0.045 C 
ENDROOT
BRANCH  10   9
ATOM      4  C   UNL     1      20.297  -7.407   8.031  0.00  0.00    +0.077 A 
ATOM      5  C   UNL     1      21.276  -6.989   8.994  0.00  0.00    +0.048 A 
ATOM      6  C   UNL     1      22.276  -6.092   8.555  0.00  0.00    +0.116 A 
ATOM      7  N   UNL     1      22.286  -5.653   7.249  0.00  0.00    -0.223 NA
ATOM      8  C   UNL     1      21.329  -6.077   6.346  0.00  0.00    +0.220 A 
ATOM      9  N   UNL     1      21.316  -5.642   5.030  0.00  0.00    -0.283 N 
ATOM     36  H   UNL     1      20.597  -5.984   4.393  0.00  0.00    +0.155 HD
ATOM     37  N   UNL     1      20.364  -6.934   6.740  0.00  0.00    -0.214 NA
BRANCH   4   3
ATOM      1  C   UNL     1      17.653  -9.557   9.951  0.00  0.00    +0.020 A 
ATOM      2  C   UNL     1      18.741  -8.640   9.704  0.00  0.00    +0.013 A 
ATOM      3  C   UNL     1      19.176  -8.349   8.344  0.00  0.00    +0.019 A 
ATOM     38  C   UNL     1      18.483  -9.008   7.247  0.00  0.00    +0.120 A 
ATOM     39  N   UNL     1      17.439  -9.888   7.516  0.00  0.00    -0.263 NA
ATOM     40  C   UNL     1      17.013 -10.177   8.821  0.00  0.00    +0.111 A 
ENDBRANCH   4   3
ENDBRANCH  10   9
BRANCH  12  13
ATOM     13  N   UNL     1      24.504  -1.936   5.954  0.00  0.00    -0.281 N 
ATOM     14  C   UNL     1      25.860  -1.721   6.138  0.00  0.00    +0.248 C 
ATOM     30  O   UNL     1      26.740  -2.457   5.714  0.00  0.00    -0.270 OA
ATOM     31  H   UNL     1      23.879  -1.361   6.519  0.00  0.00    +0.155 HD
BRANCH  14  15
ATOM     15  C   UNL     1      26.303  -0.524   6.915  0.00  0.00    +0.037 A 
ATOM     16  C   UNL     1      25.560  -0.064   8.091  0.00  0.00    +0.013 A 
ATOM     17  C   UNL     1      25.999   1.104   8.813  0.00  0.00    +0.005 A 
ATOM     18  C   UNL     1      27.190   1.819   8.362  0.00  0.00    -0.033 A 
ATOM     28  C   UNL     1      27.912   1.337   7.196  0.00  0.00    +0.005 A 
ATOM     29  C   UNL     1      27.484   0.194   6.485  0.00  0.00    +0.013 A 
BRANCH  18  19
ATOM     19  C   UNL     1      27.719   3.086   9.059  0.00  0.00    +0.119 C 
BRANCH  19  20
ATOM     20  N   UNL     1      26.876   4.316   8.974  0.00  0.00    -0.302 NA
ATOM     21  C   UNL     1      27.721   5.593   8.983  0.00  0.00    +0.066 C 
ATOM     22  C   UNL     1      26.824   6.869   8.870  0.00  0.00    -0.064 C 
ATOM     23  N   UNL     1      25.812   6.881  10.017  0.00  0.00    +0.379 N 
ATOM     24  C   UNL     1      25.006   8.108   9.947  0.00  0.00    -0.096 C 
ATOM     25  H   UNL     1      26.385   6.906  10.973  0.00  0.00    -0.082 HD
ATOM     26  C   UNL     1      24.970   5.613  10.017  0.00  0.00    -0.064 C 
ATOM     27  C   UNL     1      25.872   4.350  10.099  0.00  0.00    +0.066 C 
ENDBRANCH  19  20
ENDBRANCH  18  19
ENDBRANCH  14  15
ENDBRANCH  12  13
TORSDOF 6
ENDMDL
