MODEL 1
REMARK VINA RESULT:      -9.9      0.000      0.000
REMARK  Name = C:\Users\Docking\Desktop\test protocol\1iep_ligandH.pdb
REMARK  8 active torsions:
REMARK  status: ('A' for Active; 'I' for Inactive)
REMARK    1  A    between atoms: _5  and  _11
REMARK    2  A    between atoms: _19  and  _21
REMARK    3  A    between atoms: _22  and  _66
REMARK    4  A    between atoms: _27  and  _30
REMARK    5  A    between atoms: _32  and  _33
REMARK    6  A    between atoms: _38  and  _43
REMARK    7  A    between atoms: _43  and  _46
REMARK    8  A    between atoms: _53  and  _55
REMARK                            x       y       z     vdW  Elec       q    Type
REMARK                         _______ _______ _______ _____ _____    ______ ____
ROOT
ATOM     10  C   UNL     1      11.915  67.530  11.973  0.00  0.00    +0.038 A 
ATOM     11  C   UNL     1      12.479  66.228  11.968  0.00  0.00    +0.047 A 
ATOM     12  C   UNL     1      11.721  65.081  11.493  0.00  0.00    +0.035 A 
ATOM     32  C   UNL     1      10.392  65.297  11.026  0.00  0.00    +0.024 A 
ATOM     33  C   UNL     1       9.802  66.612  11.025  0.00  0.00    +0.007 A 
ATOM     34  C   UNL     1      10.544  67.747  11.495  0.00  0.00    -0.029 A 
ATOM     35  C   UNL     1       9.860  69.134  11.477  0.00  0.00    +0.045 C 
ENDROOT
BRANCH  10   9
ATOM      4  C   UNL     1      13.528  70.363  15.496  0.00  0.00    +0.077 A 
ATOM      5  C   UNL     1      12.743  69.680  16.485  0.00  0.00    +0.048 A 
ATOM      6  C   UNL     1      11.933  68.609  16.044  0.00  0.00    +0.116 A 
ATOM      7  N   UNL     1      11.916  68.257  14.712  0.00  0.00    -0.223 NA
ATOM      8  C   UNL     1      12.683  68.937  13.784  0.00  0.00    +0.220 A 
ATOM      9  N   UNL     1      12.688  68.595  12.441  0.00  0.00    -0.283 N 
ATOM     36  H   UNL     1      13.262  69.126  11.787  0.00  0.00    +0.155 HD
ATOM     37  N   UNL     1      13.464  69.964  14.180  0.00  0.00    -0.214 NA
BRANCH   4   3
ATOM      1  C   UNL     1      14.939  73.736  16.884  0.00  0.00    +0.020 A 
ATOM      2  C   UNL     1      14.023  72.653  16.614  0.00  0.00    +0.013 A 
ATOM      3  C   UNL     1      14.436  71.511  15.806  0.00  0.00    +0.019 A 
ATOM     38  C   UNL     1      15.794  71.497  15.285  0.00  0.00    +0.120 A 
ATOM     39  N   UNL     1      16.654  72.555  15.561  0.00  0.00    -0.263 NA
ATOM     40  C   UNL     1      16.267  73.660  16.335  0.00  0.00    +0.111 A 
ENDBRANCH   4   3
ENDBRANCH  10   9
BRANCH  12  13
ATOM     13  N   UNL     1      12.238  63.736  11.472  0.00  0.00    -0.281 N 
ATOM     14  C   UNL     1      12.531  62.919  12.552  0.00  0.00    +0.248 C 
ATOM     30  O   UNL     1      12.594  63.301  13.710  0.00  0.00    -0.270 OA
ATOM     31  H   UNL     1      12.409  63.337  10.549  0.00  0.00    +0.155 HD
BRANCH  14  15
ATOM     15  C   UNL     1      12.808  61.471  12.307  0.00  0.00    +0.037 A 
ATOM     16  C   UNL     1      12.053  60.710  11.308  0.00  0.00    +0.013 A 
ATOM     17  C   UNL     1      12.329  59.310  11.104  0.00  0.00    +0.005 A 
ATOM     18  C   UNL     1      13.367  58.661  11.901  0.00  0.00    -0.033 A 
ATOM     28  C   UNL     1      14.105  59.441  12.882  0.00  0.00    +0.005 A 
ATOM     29  C   UNL     1      13.837  60.813  13.085  0.00  0.00    +0.013 A 
BRANCH  18  19
ATOM     19  C   UNL     1      13.714  57.167  11.766  0.00  0.00    +0.119 C 
BRANCH  19  20
ATOM     20  N   UNL     1      14.913  56.673  12.507  0.00  0.00    -0.302 NA
ATOM     21  C   UNL     1      16.188  56.769  11.665  0.00  0.00    +0.066 C 
ATOM     22  C   UNL     1      17.436  56.269  12.464  0.00  0.00    -0.064 C 
ATOM     23  N   UNL     1      17.200  54.831  12.928  0.00  0.00    +0.379 N 
ATOM     24  C   UNL     1      18.394  54.339  13.629  0.00  0.00    -0.096 C 
ATOM     25  H   UNL     1      17.058  54.202  12.018  0.00  0.00    -0.082 HD
ATOM     26  C   UNL     1      15.932  54.727  13.763  0.00  0.00    -0.064 C 
ATOM     27  C   UNL     1      14.703  55.253  12.971  0.00  0.00    +0.066 C 
ENDBRANCH  19  20
ENDBRANCH  18  19
ENDBRANCH  14  15
ENDBRANCH  12  13
TORSDOF 6
ENDMDL
MODEL 2
REMARK VINA RESULT:      -9.5      7.743     18.171
REMARK  Name = C:\Users\Docking\Desktop\test protocol\1iep_ligandH.pdb
REMARK  8 active torsions:
REMARK  status: ('A' for Active; 'I' for Inactive)
REMARK    1  A    between atoms: _5  and  _11
REMARK    2  A    between atoms: _19  and  _21
REMARK    3  A    between atoms: _22  and  _66
REMARK    4  A    between atoms: _27  and  _30
REMARK    5  A    between atoms: _32  and  _33
REMARK    6  A    between atoms: _38  and  _43
REMARK    7  A    between atoms: _43  and  _46
REMARK    8  A    between atoms: _53  and  _55
REMARK                            x       y       z     vdW  Elec       q    Type
REMARK                         _______ _______ _______ _____ _____    ______ ____
ROOT
ATOM     10  C   UNL     1      18.389  49.098  18.720  0.00  0.00    +0.038 A 
ATOM     11  C   UNL     1      18.285  50.080  17.702  0.00  0.00    +0.047 A 
ATOM     12  C   UNL     1      17.142  50.114  16.803  0.00  0.00    +0.035 A 
ATOM     32  C   UNL     1      16.121  49.134  16.971  0.00  0.00    +0.024 A 
ATOM     33  C   UNL     1      16.210  48.128  18.000  0.00  0.00    +0.007 A 
ATOM     34  C   UNL     1      17.337  48.088  18.888  0.00  0.00    -0.029 A 
ATOM     35  C   UNL     1      17.383  46.983  19.969  0.00  0.00    +0.045 C 
ENDROOT
BRANCH  10   9
ATOM      4  C   UNL     1      22.772  47.578  19.948  0.00  0.00    +0.077 A 
ATOM      5  C   UNL     1      22.826  46.659  18.848  0.00  0.00    +0.048 A 
ATOM      6  C   UNL     1      21.703  46.603  17.994  0.00  0.00    +0.116 A 
ATOM      7  N   UNL     1      20.612  47.411  18.231  0.00  0.00    -0.223 NA
ATOM      8  C   UNL     1      20.591  48.285  19.302  0.00  0.00    +0.220 A 
ATOM      9  N   UNL     1      19.508  49.112  19.555  0.00  0.00    -0.283 N 
ATOM     36  H   UNL     1      19.528  49.738  20.360  0.00  0.00    +0.155 HD
ATOM     37  N   UNL     1      21.651  48.356  20.134  0.00  0.00    -0.214 NA
BRANCH   4   3
ATOM      1  C   UNL     1      26.316  47.702  21.599  0.00  0.00    +0.020 A 
ATOM      2  C   UNL     1      25.282  47.517  20.608  0.00  0.00    +0.013 A 
ATOM      3  C   UNL     1      23.883  47.754  20.937  0.00  0.00    +0.019 A 
ATOM     38  C   UNL     1      23.560  48.184  22.290  0.00  0.00    +0.120 A 
ATOM     39  N   UNL     1      24.577  48.353  23.224  0.00  0.00    -0.263 NA
ATOM     40  C   UNL     1      25.927  48.125  22.919  0.00  0.00    +0.111 A 
ENDBRANCH   4   3
ENDBRANCH  10   9
BRANCH  12  13
ATOM     13  N   UNL     1      16.987  51.083  15.746  0.00  0.00    -0.281 N 
ATOM     14  C   UNL     1      15.926  51.948  15.533  0.00  0.00    +0.248 C 
ATOM     30  O   UNL     1      14.847  51.872  16.101  0.00  0.00    -0.270 OA
ATOM     31  H   UNL     1      17.751  51.137  15.073  0.00  0.00    +0.155 HD
BRANCH  14  15
ATOM     15  C   UNL     1      16.082  53.049  14.534  0.00  0.00    +0.037 A 
ATOM     16  C   UNL     1      14.916  53.731  13.966  0.00  0.00    +0.013 A 
ATOM     17  C   UNL     1      15.093  54.778  12.992  0.00  0.00    +0.005 A 
ATOM     18  C   UNL     1      16.445  55.151  12.580  0.00  0.00    -0.033 A 
ATOM     28  C   UNL     1      17.584  54.462  13.163  0.00  0.00    +0.005 A 
ATOM     29  C   UNL     1      17.413  53.434  14.118  0.00  0.00    +0.013 A 
BRANCH  18  19
ATOM     19  C   UNL     1      16.728  56.242  11.531  0.00  0.00    +0.119 C 
BRANCH  19  20
ATOM     20  N   UNL     1      16.068  57.568  11.728  0.00  0.00    -0.302 NA
ATOM     21  C   UNL     1      16.629  58.313  12.942  0.00  0.00    +0.066 C 
ATOM     22  C   UNL     1      15.944  59.707  13.120  0.00  0.00    -0.064 C 
ATOM     23  N   UNL     1      14.432  59.517  13.252  0.00  0.00    +0.379 N 
ATOM     24  C   UNL     1      13.791  60.820  13.478  0.00  0.00    -0.096 C 
ATOM     25  H   UNL     1      14.249  58.888  14.155  0.00  0.00    -0.082 HD
ATOM     26  C   UNL     1      13.867  58.773  12.050  0.00  0.00    -0.064 C 
ATOM     27  C   UNL     1      14.575  57.402  11.865  0.00  0.00    +0.066 C 
ENDBRANCH  19  20
ENDBRANCH  18  19
ENDBRANCH  14  15
ENDBRANCH  12  13
TORSDOF 6
ENDMDL
MODEL 3
REMARK VINA RESULT:      -9.2      7.014     17.320
REMARK  Name = C:\Users\Docking\Desktop\test protocol\1iep_ligandH.pdb
REMARK  8 active torsions:
REMARK  status: ('A' for Active; 'I' for Inactive)
REMARK    1  A    between atoms: _5  and  _11
REMARK    2  A    between atoms: _19  and  _21
REMARK    3  A    between atoms: _22  and  _66
REMARK    4  A    between atoms: _27  and  _30
REMARK    5  A    between atoms: _32  and  _33
REMARK    6  A    between atoms: _38  and  _43
REMARK    7  A    between atoms: _43  and  _46
REMARK    8  A    between atoms: _53  and  _55
REMARK                            x       y       z     vdW  Elec       q    Type
REMARK                         _______ _______ _______ _____ _____    ______ ____
ROOT
ATOM     10  C   UNL     1      17.002  49.727  16.895  0.00  0.00    +0.038 A 
ATOM     11  C   UNL     1      17.071  51.054  16.399  0.00  0.00    +0.047 A 
ATOM     12  C   UNL     1      15.957  51.645  15.674  0.00  0.00    +0.035 A 
ATOM     32  C   UNL     1      14.787  50.857  15.474  0.00  0.00    +0.024 A 
ATOM     33  C   UNL     1      14.700  49.506  15.970  0.00  0.00    +0.007 A 
ATOM     34  C   UNL     1      15.796  48.917  16.684  0.00  0.00    -0.029 A 
ATOM     35  C   UNL     1      15.650  47.462  17.188  0.00  0.00    +0.045 C 
ENDROOT
BRANCH  10   9
ATOM      4  C   UNL     1      19.083  48.013  20.866  0.00  0.00    +0.077 A 
ATOM      5  C   UNL     1      17.887  48.189  21.640  0.00  0.00    +0.048 A 
ATOM      6  C   UNL     1      16.761  48.730  20.980  0.00  0.00    +0.116 A 
ATOM      7  N   UNL     1      16.836  49.066  19.645  0.00  0.00    -0.223 NA
ATOM      8  C   UNL     1      18.005  48.885  18.929  0.00  0.00    +0.220 A 
ATOM      9  N   UNL     1      18.101  49.209  17.585  0.00  0.00    -0.283 N 
ATOM     36  H   UNL     1      18.983  49.068  17.093  0.00  0.00    +0.155 HD
ATOM     37  N   UNL     1      19.095  48.372  19.537  0.00  0.00    -0.214 NA
BRANCH   4   3
ATOM      1  C   UNL     1      22.861  47.169  21.424  0.00  0.00    +0.020 A 
ATOM      2  C   UNL     1      21.664  47.738  20.850  0.00  0.00    +0.013 A 
ATOM      3  C   UNL     1      20.354  47.450  21.421  0.00  0.00    +0.019 A 
ATOM     38  C   UNL     1      20.291  46.576  22.582  0.00  0.00    +0.120 A 
ATOM     39  N   UNL     1      21.461  46.041  23.113  0.00  0.00    -0.263 NA
ATOM     40  C   UNL     1      22.726  46.310  22.570  0.00  0.00    +0.111 A 
ENDBRANCH   4   3
ENDBRANCH  10   9
BRANCH  12  13
ATOM     13  N   UNL     1      15.973  52.985  15.140  0.00  0.00    -0.281 N 
ATOM     14  C   UNL     1      16.602  53.436  13.991  0.00  0.00    +0.248 C 
ATOM     30  O   UNL     1      17.429  52.796  13.359  0.00  0.00    -0.270 OA
ATOM     31  H   UNL     1      15.459  53.685  15.674  0.00  0.00    +0.155 HD
BRANCH  14  15
ATOM     15  C   UNL     1      16.276  54.802  13.479  0.00  0.00    +0.037 A 
ATOM     16  C   UNL     1      14.905  55.172  13.121  0.00  0.00    +0.013 A 
ATOM     17  C   UNL     1      14.621  56.491  12.613  0.00  0.00    +0.005 A 
ATOM     18  C   UNL     1      15.712  57.451  12.462  0.00  0.00    -0.033 A 
ATOM     28  C   UNL     1      17.062  57.059  12.830  0.00  0.00    +0.005 A 
ATOM     29  C   UNL     1      17.345  55.767  13.327  0.00  0.00    +0.013 A 
BRANCH  18  19
ATOM     19  C   UNL     1      15.504  58.873  11.909  0.00  0.00    +0.119 C 
BRANCH  19  20
ATOM     20  N   UNL     1      14.222  59.559  12.250  0.00  0.00    -0.302 NA
ATOM     21  C   UNL     1      13.214  59.499  11.099  0.00  0.00    +0.066 C 
ATOM     22  C   UNL     1      11.871  60.202  11.481  0.00  0.00    -0.064 C 
ATOM     23  N   UNL     1      12.153  61.652  11.879  0.00  0.00    +0.379 N 
ATOM     24  C   UNL     1      10.886  62.332  12.183  0.00  0.00    -0.096 C 
ATOM     25  H   UNL     1      12.608  62.162  10.998  0.00  0.00    -0.082 HD
ATOM     26  C   UNL     1      13.157  61.721  13.021  0.00  0.00    -0.064 C 
ATOM     27  C   UNL     1      14.477  60.994  12.642  0.00  0.00    +0.066 C 
ENDBRANCH  19  20
ENDBRANCH  18  19
ENDBRANCH  14  15
ENDBRANCH  12  13
TORSDOF 6
ENDMDL
MODEL 4
REMARK VINA RESULT:      -8.6      6.642     13.354
REMARK  Name = C:\Users\Docking\Desktop\test protocol\1iep_ligandH.pdb
REMARK  8 active torsions:
REMARK  status: ('A' for Active; 'I' for Inactive)
REMARK    1  A    between atoms: _5  and  _11
REMARK    2  A    between atoms: _19  and  _21
REMARK    3  A    between atoms: _22  and  _66
REMARK    4  A    between atoms: _27  and  _30
REMARK    5  A    between atoms: _32  and  _33
REMARK    6  A    between atoms: _38  and  _43
REMARK    7  A    between atoms: _43  and  _46
REMARK    8  A    between atoms: _53  and  _55
REMARK                            x       y       z     vdW  Elec       q    Type
REMARK                         _______ _______ _______ _____ _____    ______ ____
ROOT
ATOM     10  C   UNL     1      11.256  67.746  14.425  0.00  0.00    +0.038 A 
ATOM     11  C   UNL     1       9.877  67.886  14.724  0.00  0.00    +0.047 A 
ATOM     12  C   UNL     1       9.272  69.198  14.890  0.00  0.00    +0.035 A 
ATOM     32  C   UNL     1      10.102  70.348  14.742  0.00  0.00    +0.024 A 
ATOM     33  C   UNL     1      11.506  70.224  14.439  0.00  0.00    +0.007 A 
ATOM     34  C   UNL     1      12.108  68.932  14.277  0.00  0.00    -0.029 A 
ATOM     35  C   UNL     1      13.620  68.859  13.959  0.00  0.00    +0.045 C 
ENDROOT
BRANCH  10   9
ATOM      4  C   UNL     1      11.686  63.595  12.055  0.00  0.00    +0.077 A 
ATOM      5  C   UNL     1      10.759  64.009  11.041  0.00  0.00    +0.048 A 
ATOM      6  C   UNL     1      10.189  65.296  11.171  0.00  0.00    +0.116 A 
ATOM      7  N   UNL     1      10.528  66.099  12.238  0.00  0.00    -0.223 NA
ATOM      8  C   UNL     1      11.423  65.667  13.199  0.00  0.00    +0.220 A 
ATOM      9  N   UNL     1      11.784  66.461  14.276  0.00  0.00    -0.283 N 
ATOM     36  H   UNL     1      12.443  66.104  14.968  0.00  0.00    +0.155 HD
ATOM     37  N   UNL     1      11.981  64.443  13.099  0.00  0.00    -0.214 NA
BRANCH   4   3
ATOM      1  C   UNL     1      14.199  60.693  12.805  0.00  0.00    +0.020 A 
ATOM      2  C   UNL     1      13.573  61.994  12.839  0.00  0.00    +0.013 A 
ATOM      3  C   UNL     1      12.375  62.265  12.055  0.00  0.00    +0.019 A 
ATOM     38  C   UNL     1      11.830  61.189  11.242  0.00  0.00    +0.120 A 
ATOM     39  N   UNL     1      12.455  59.946  11.228  0.00  0.00    -0.263 NA
ATOM     40  C   UNL     1      13.610  59.674  11.976  0.00  0.00    +0.111 A 
ENDBRANCH   4   3
ENDBRANCH  10   9
BRANCH  12  13
ATOM     13  N   UNL     1       7.879  69.402  15.202  0.00  0.00    -0.281 N 
ATOM     14  C   UNL     1       6.857  69.760  14.339  0.00  0.00    +0.248 C 
ATOM     30  O   UNL     1       7.025  70.170  13.200  0.00  0.00    -0.270 OA
ATOM     31  H   UNL     1       7.615  69.266  16.178  0.00  0.00    +0.155 HD
BRANCH  14  15
ATOM     15  C   UNL     1       5.443  69.663  14.815  0.00  0.00    +0.037 A 
ATOM     16  C   UNL     1       5.126  69.565  16.242  0.00  0.00    +0.013 A 
ATOM     17  C   UNL     1       3.755  69.455  16.673  0.00  0.00    +0.005 A 
ATOM     18  C   UNL     1       2.689  69.443  15.674  0.00  0.00    -0.033 A 
ATOM     28  C   UNL     1       3.032  69.546  14.265  0.00  0.00    +0.005 A 
ATOM     29  C   UNL     1       4.374  69.653  13.839  0.00  0.00    +0.013 A 
BRANCH  18  19
ATOM     19  C   UNL     1       1.200  69.308  16.041  0.00  0.00    +0.119 C 
BRANCH  19  20
ATOM     20  N   UNL     1       0.223  69.219  14.915  0.00  0.00    -0.302 NA
ATOM     21  C   UNL     1      -0.870  70.286  15.018  0.00  0.00    +0.066 C 
ATOM     22  C   UNL     1      -1.870  70.194  13.820  0.00  0.00    -0.064 C 
ATOM     23  N   UNL     1      -2.483  68.793  13.778  0.00  0.00    +0.379 N 
ATOM     24  C   UNL     1      -3.467  68.720  12.688  0.00  0.00    -0.096 C 
ATOM     25  H   UNL     1      -3.028  68.634  14.737  0.00  0.00    -0.082 HD
ATOM     26  C   UNL     1      -1.403  67.725  13.679  0.00  0.00    -0.064 C 
ATOM     27  C   UNL     1      -0.398  67.845  14.858  0.00  0.00    +0.066 C 
ENDBRANCH  19  20
ENDBRANCH  18  19
ENDBRANCH  14  15
ENDBRANCH  12  13
TORSDOF 6
ENDMDL
MODEL 5
REMARK VINA RESULT:      -8.3     17.433     22.957
REMARK  Name = C:\Users\Docking\Desktop\test protocol\1iep_ligandH.pdb
REMARK  8 active torsions:
REMARK  status: ('A' for Active; 'I' for Inactive)
REMARK    1  A    between atoms: _5  and  _11
REMARK    2  A    between atoms: _19  and  _21
REMARK    3  A    between atoms: _22  and  _66
REMARK    4  A    between atoms: _27  and  _30
REMARK    5  A    between atoms: _32  and  _33
REMARK    6  A    between atoms: _38  and  _43
REMARK    7  A    between atoms: _43  and  _46
REMARK    8  A    between atoms: _53  and  _55
REMARK                            x       y       z     vdW  Elec       q    Type
REMARK                         _______ _______ _______ _____ _____    ______ ____
ROOT
ATOM     10  C   UNL     1      18.108  47.616  19.946  0.00  0.00    +0.038 A 
ATOM     11  C   UNL     1      18.545  46.605  20.839  0.00  0.00    +0.047 A 
ATOM     12  C   UNL     1      17.676  45.497  21.205  0.00  0.00    +0.035 A 
ATOM     32  C   UNL     1      16.368  45.450  20.641  0.00  0.00    +0.024 A 
ATOM     33  C   UNL     1      15.907  46.470  19.733  0.00  0.00    +0.007 A 
ATOM     34  C   UNL     1      16.759  47.566  19.369  0.00  0.00    -0.029 A 
ATOM     35  C   UNL     1      16.209  48.635  18.396  0.00  0.00    +0.045 C 
ENDROOT
BRANCH  10   9
ATOM      4  C   UNL     1      22.350  49.259  18.418  0.00  0.00    +0.077 A 
ATOM      5  C   UNL     1      22.875  47.933  18.264  0.00  0.00    +0.048 A 
ATOM      6  C   UNL     1      22.024  46.856  18.595  0.00  0.00    +0.116 A 
ATOM      7  N   UNL     1      20.744  47.098  19.046  0.00  0.00    -0.223 NA
ATOM      8  C   UNL     1      20.270  48.390  19.185  0.00  0.00    +0.220 A 
ATOM      9  N   UNL     1      18.984  48.657  19.629  0.00  0.00    -0.283 N 
ATOM     36  H   UNL     1      18.674  49.623  19.724  0.00  0.00    +0.155 HD
ATOM     37  N   UNL     1      21.064  49.436  18.876  0.00  0.00    -0.214 NA
BRANCH   4   3
ATOM      1  C   UNL     1      25.219  51.703  17.370  0.00  0.00    +0.020 A 
ATOM      2  C   UNL     1      24.515  50.476  17.659  0.00  0.00    +0.013 A 
ATOM      3  C   UNL     1      23.127  50.501  18.105  0.00  0.00    +0.019 A 
ATOM     38  C   UNL     1      22.477  51.794  18.248  0.00  0.00    +0.120 A 
ATOM     39  N   UNL     1      23.181  52.960  17.964  0.00  0.00    -0.263 NA
ATOM     40  C   UNL     1      24.517  52.948  17.536  0.00  0.00    +0.111 A 
ENDBRANCH   4   3
ENDBRANCH  10   9
BRANCH  12  13
ATOM     13  N   UNL     1      18.062  44.446  22.113  0.00  0.00    -0.281 N 
ATOM     14  C   UNL     1      19.017  43.461  21.919  0.00  0.00    +0.248 C 
ATOM     30  O   UNL     1      19.536  43.205  20.843  0.00  0.00    -0.270 OA
ATOM     31  H   UNL     1      17.572  44.425  23.007  0.00  0.00    +0.155 HD
BRANCH  14  15
ATOM     15  C   UNL     1      19.446  42.631  23.085  0.00  0.00    +0.037 A 
ATOM     16  C   UNL     1      19.878  43.250  24.340  0.00  0.00    +0.013 A 
ATOM     17  C   UNL     1      20.303  42.427  25.445  0.00  0.00    +0.005 A 
ATOM     18  C   UNL     1      20.296  40.973  25.298  0.00  0.00    -0.033 A 
ATOM     28  C   UNL     1      19.857  40.385  24.044  0.00  0.00    +0.005 A 
ATOM     29  C   UNL     1      19.441  41.189  22.959  0.00  0.00    +0.013 A 
BRANCH  18  19
ATOM     19  C   UNL     1      20.753  40.018  26.416  0.00  0.00    +0.119 C 
BRANCH  19  20
ATOM     20  N   UNL     1      19.921  39.968  27.656  0.00  0.00    -0.302 NA
ATOM     21  C   UNL     1      20.769  39.723  28.907  0.00  0.00    +0.066 C 
ATOM     22  C   UNL     1      19.886  39.696  30.197  0.00  0.00    -0.064 C 
ATOM     23  N   UNL     1      18.809  38.619  30.052  0.00  0.00    +0.379 N 
ATOM     24  C   UNL     1      18.013  38.552  31.287  0.00  0.00    -0.096 C 
ATOM     25  H   UNL     1      19.326  37.639  29.929  0.00  0.00    -0.082 HD
ATOM     26  C   UNL     1      17.963  38.854  28.809  0.00  0.00    -0.064 C 
ATOM     27  C   UNL     1      18.854  38.908  27.536  0.00  0.00    +0.066 C 
ENDBRANCH  19  20
ENDBRANCH  18  19
ENDBRANCH  14  15
ENDBRANCH  12  13
TORSDOF 6
ENDMDL
