MODEL 1
REMARK VINA RESULT:     -10.1      0.000      0.000
REMARK  Name = C:\Users\Docking\Desktop\test protocol\1iep_ligandH.pdb
REMARK  8 active torsions:
REMARK  status: ('A' for Active; 'I' for Inactive)
REMARK    1  A    between atoms: _5  and  _11
REMARK    2  A    between atoms: _19  and  _21
REMARK    3  A    between atoms: _22  and  _66
REMARK    4  A    between atoms: _27  and  _30
REMARK    5  A    between atoms: _32  and  _33
REMARK    6  A    between atoms: _38  and  _43
REMARK    7  A    between atoms: _43  and  _46
REMARK    8  A    between atoms: _53  and  _55
REMARK                            x       y       z     vdW  Elec       q    Type
REMARK                         _______ _______ _______ _____ _____    ______ ____
ROOT
ATOM     10  C   UNL     1       4.815  32.287  -9.161  0.00  0.00    +0.038 A 
ATOM     11  C   UNL     1       4.267  33.557  -8.846  0.00  0.00    +0.047 A 
ATOM     12  C   UNL     1       4.446  34.695  -9.735  0.00  0.00    +0.035 A 
ATOM     32  C   UNL     1       5.185  34.503 -10.938  0.00  0.00    +0.024 A 
ATOM     33  C   UNL     1       5.750  33.219 -11.273  0.00  0.00    +0.007 A 
ATOM     34  C   UNL     1       5.579  32.094 -10.399  0.00  0.00    -0.029 A 
ATOM     35  C   UNL     1       6.212  30.743 -10.806  0.00  0.00    +0.045 C 
ENDROOT
BRANCH  10   9
ATOM      4  C   UNL     1       2.245  28.593  -7.492  0.00  0.00    +0.077 A 
ATOM      5  C   UNL     1       1.204  28.805  -8.456  0.00  0.00    +0.048 A 
ATOM      6  C   UNL     1       1.365  29.880  -9.359  0.00  0.00    +0.116 A 
ATOM      7  N   UNL     1       2.488  30.676  -9.294  0.00  0.00    -0.223 NA
ATOM      8  C   UNL     1       3.472  30.445  -8.351  0.00  0.00    +0.220 A 
ATOM      9  N   UNL     1       4.613  31.229  -8.272  0.00  0.00    -0.283 N 
ATOM     36  H   UNL     1       5.312  31.031  -7.557  0.00  0.00    +0.155 HD
ATOM     37  N   UNL     1       3.341  29.426  -7.476  0.00  0.00    -0.214 NA
BRANCH   4   3
ATOM      1  C   UNL     1       2.326  25.067  -5.799  0.00  0.00    +0.020 A 
ATOM      2  C   UNL     1       2.355  26.087  -6.822  0.00  0.00    +0.013 A 
ATOM      3  C   UNL     1       2.222  27.496  -6.473  0.00  0.00    +0.019 A 
ATOM     38  C   UNL     1       2.060  27.842  -5.069  0.00  0.00    +0.120 A 
ATOM     39  N   UNL     1       2.035  26.838  -4.106  0.00  0.00    -0.263 NA
ATOM     40  C   UNL     1       2.160  25.479  -4.430  0.00  0.00    +0.111 A 
ENDBRANCH   4   3
ENDBRANCH  10   9
BRANCH  12  13
ATOM     13  N   UNL     1       3.920  36.010  -9.464  0.00  0.00    -0.281 N 
ATOM     14  C   UNL     1       4.608  37.212  -9.430  0.00  0.00    +0.248 C 
ATOM     30  O   UNL     1       5.826  37.311  -9.417  0.00  0.00    -0.270 OA
ATOM     31  H   UNL     1       2.919  36.061  -9.274  0.00  0.00    +0.155 HD
BRANCH  14  15
ATOM     15  C   UNL     1       3.831  38.488  -9.389  0.00  0.00    +0.037 A 
ATOM     16  C   UNL     1       3.495  39.213 -10.618  0.00  0.00    +0.013 A 
ATOM     17  C   UNL     1       2.759  40.450 -10.549  0.00  0.00    +0.005 A 
ATOM     18  C   UNL     1       2.352  40.970  -9.246  0.00  0.00    -0.033 A 
ATOM     28  C   UNL     1       2.693  40.228  -8.044  0.00  0.00    +0.005 A 
ATOM     29  C   UNL     1       3.415  39.015  -8.107  0.00  0.00    +0.013 A 
BRANCH  18  19
ATOM     19  C   UNL     1       1.582  42.293  -9.077  0.00  0.00    +0.119 C 
BRANCH  19  20
ATOM     20  N   UNL     1       0.360  42.269  -8.219  0.00  0.00    -0.302 NA
ATOM     21  C   UNL     1      -0.802  43.038  -8.852  0.00  0.00    +0.066 C 
ATOM     22  C   UNL     1      -2.079  42.983  -7.951  0.00  0.00    -0.064 C 
ATOM     23  N   UNL     1      -1.748  43.544  -6.567  0.00  0.00    +0.379 N 
ATOM     24  C   UNL     1      -2.961  43.548  -5.736  0.00  0.00    -0.096 C 
ATOM     25  H   UNL     1      -1.426  44.603  -6.700  0.00  0.00    -0.082 HD
ATOM     26  C   UNL     1      -0.591  42.786  -5.931  0.00  0.00    -0.064 C 
ATOM     27  C   UNL     1       0.664  42.822  -6.848  0.00  0.00    +0.066 C 
ENDBRANCH  19  20
ENDBRANCH  18  19
ENDBRANCH  14  15
ENDBRANCH  12  13
TORSDOF 6
ENDMDL
MODEL 2
REMARK VINA RESULT:      -9.8     12.761     19.170
REMARK  Name = C:\Users\Docking\Desktop\test protocol\1iep_ligandH.pdb
REMARK  8 active torsions:
REMARK  status: ('A' for Active; 'I' for Inactive)
REMARK    1  A    between atoms: _5  and  _11
REMARK    2  A    between atoms: _19  and  _21
REMARK    3  A    between atoms: _22  and  _66
REMARK    4  A    between atoms: _27  and  _30
REMARK    5  A    between atoms: _32  and  _33
REMARK    6  A    between atoms: _38  and  _43
REMARK    7  A    between atoms: _43  and  _46
REMARK    8  A    between atoms: _53  and  _55
REMARK                            x       y       z     vdW  Elec       q    Type
REMARK                         _______ _______ _______ _____ _____    ______ ____
ROOT
ATOM     10  C   UNL     1     -12.100  41.491  -0.065  0.00  0.00    +0.038 A 
ATOM     11  C   UNL     1     -11.652  40.342  -0.766  0.00  0.00    +0.047 A 
ATOM     12  C   UNL     1     -10.938  40.461  -2.028  0.00  0.00    +0.035 A 
ATOM     32  C   UNL     1     -10.696  41.766  -2.546  0.00  0.00    +0.024 A 
ATOM     33  C   UNL     1     -11.145  42.945  -1.848  0.00  0.00    +0.007 A 
ATOM     34  C   UNL     1     -11.852  42.833  -0.604  0.00  0.00    -0.029 A 
ATOM     35  C   UNL     1     -12.317  44.131   0.098  0.00  0.00    +0.045 C 
ENDROOT
BRANCH  10   9
ATOM      4  C   UNL     1     -15.896  40.029   2.483  0.00  0.00    +0.077 A 
ATOM      5  C   UNL     1     -16.594  39.597   1.306  0.00  0.00    +0.048 A 
ATOM      6  C   UNL     1     -15.944  39.775   0.064  0.00  0.00    +0.116 A 
ATOM      7  N   UNL     1     -14.690  40.344   0.014  0.00  0.00    -0.223 NA
ATOM      8  C   UNL     1     -14.046  40.751   1.168  0.00  0.00    +0.220 A 
ATOM      9  N   UNL     1     -12.781  41.318   1.142  0.00  0.00    -0.283 N 
ATOM     36  H   UNL     1     -12.342  41.612   2.014  0.00  0.00    +0.155 HD
ATOM     37  N   UNL     1     -14.645  40.593   2.366  0.00  0.00    -0.214 NA
BRANCH   4   3
ATOM      1  C   UNL     1     -16.323  39.129   6.265  0.00  0.00    +0.020 A 
ATOM      2  C   UNL     1     -15.744  39.221   4.945  0.00  0.00    +0.013 A 
ATOM      3  C   UNL     1     -16.450  39.904   3.868  0.00  0.00    +0.019 A 
ATOM     38  C   UNL     1     -17.749  40.490   4.163  0.00  0.00    +0.120 A 
ATOM     39  N   UNL     1     -18.282  40.385   5.444  0.00  0.00    -0.263 NA
ATOM     40  C   UNL     1     -17.613  39.728   6.488  0.00  0.00    +0.111 A 
ENDBRANCH   4   3
ENDBRANCH  10   9
BRANCH  12  13
ATOM     13  N   UNL     1     -10.466  39.330  -2.787  0.00  0.00    -0.281 N 
ATOM     14  C   UNL     1     -11.122  38.651  -3.800  0.00  0.00    +0.248 C 
ATOM     30  O   UNL     1     -12.309  38.779  -4.062  0.00  0.00    -0.270 OA
ATOM     31  H   UNL     1      -9.534  38.990  -2.550  0.00  0.00    +0.155 HD
BRANCH  14  15
ATOM     15  C   UNL     1     -10.353  37.677  -4.633  0.00  0.00    +0.037 A 
ATOM     16  C   UNL     1      -8.950  37.916  -4.981  0.00  0.00    +0.013 A 
ATOM     17  C   UNL     1      -8.236  36.968  -5.800  0.00  0.00    +0.005 A 
ATOM     18  C   UNL     1      -8.925  35.771  -6.275  0.00  0.00    -0.033 A 
ATOM     28  C   UNL     1     -10.316  35.556  -5.911  0.00  0.00    +0.005 A 
ATOM     29  C   UNL     1     -11.019  36.483  -5.109  0.00  0.00    +0.013 A 
BRANCH  18  19
ATOM     19  C   UNL     1      -8.248  34.717  -7.171  0.00  0.00    +0.119 C 
BRANCH  19  20
ATOM     20  N   UNL     1      -6.876  35.026  -7.673  0.00  0.00    -0.302 NA
ATOM     21  C   UNL     1      -6.907  35.754  -9.020  0.00  0.00    +0.066 C 
ATOM     22  C   UNL     1      -5.464  36.089  -9.519  0.00  0.00    -0.064 C 
ATOM     23  N   UNL     1      -4.649  34.799  -9.620  0.00  0.00    +0.379 N 
ATOM     24  C   UNL     1      -3.310  35.104 -10.145  0.00  0.00    -0.096 C 
ATOM     25  H   UNL     1      -5.158  34.135 -10.357  0.00  0.00    -0.082 HD
ATOM     26  C   UNL     1      -4.615  34.067  -8.286  0.00  0.00    -0.064 C 
ATOM     27  C   UNL     1      -6.055  33.764  -7.785  0.00  0.00    +0.066 C 
ENDBRANCH  19  20
ENDBRANCH  18  19
ENDBRANCH  14  15
ENDBRANCH  12  13
TORSDOF 6
ENDMDL
MODEL 3
REMARK VINA RESULT:      -9.2      1.547      2.186
REMARK  Name = C:\Users\Docking\Desktop\test protocol\1iep_ligandH.pdb
REMARK  8 active torsions:
REMARK  status: ('A' for Active; 'I' for Inactive)
REMARK    1  A    between atoms: _5  and  _11
REMARK    2  A    between atoms: _19  and  _21
REMARK    3  A    between atoms: _22  and  _66
REMARK    4  A    between atoms: _27  and  _30
REMARK    5  A    between atoms: _32  and  _33
REMARK    6  A    between atoms: _38  and  _43
REMARK    7  A    between atoms: _43  and  _46
REMARK    8  A    between atoms: _53  and  _55
REMARK                            x       y       z     vdW  Elec       q    Type
REMARK                         _______ _______ _______ _____ _____    ______ ____
ROOT
ATOM     10  C   UNL     1       4.612  32.709  -9.893  0.00  0.00    +0.038 A 
ATOM     11  C   UNL     1       4.230  34.015  -9.494  0.00  0.00    +0.047 A 
ATOM     12  C   UNL     1       4.885  35.192 -10.045  0.00  0.00    +0.035 A 
ATOM     32  C   UNL     1       5.924  35.001 -11.002  0.00  0.00    +0.024 A 
ATOM     33  C   UNL     1       6.325  33.680 -11.418  0.00  0.00    +0.007 A 
ATOM     34  C   UNL     1       5.684  32.516 -10.876  0.00  0.00    -0.029 A 
ATOM     35  C   UNL     1       6.160  31.124 -11.353  0.00  0.00    +0.045 C 
ENDROOT
BRANCH  10   9
ATOM      4  C   UNL     1       4.028  29.432  -6.435  0.00  0.00    +0.077 A 
ATOM      5  C   UNL     1       5.155  29.924  -5.697  0.00  0.00    +0.048 A 
ATOM      6  C   UNL     1       5.863  31.017  -6.245  0.00  0.00    +0.116 A 
ATOM      7  N   UNL     1       5.464  31.570  -7.442  0.00  0.00    -0.223 NA
ATOM      8  C   UNL     1       4.373  31.070  -8.130  0.00  0.00    +0.220 A 
ATOM      9  N   UNL     1       3.949  31.615  -9.332  0.00  0.00    -0.283 N 
ATOM     36  H   UNL     1       3.144  31.213  -9.812  0.00  0.00    +0.155 HD
ATOM     37  N   UNL     1       3.681  30.025  -7.628  0.00  0.00    -0.214 NA
BRANCH   4   3
ATOM      1  C   UNL     1       1.819  27.054  -4.251  0.00  0.00    +0.020 A 
ATOM      2  C   UNL     1       2.636  28.182  -4.635  0.00  0.00    +0.013 A 
ATOM      3  C   UNL     1       3.178  28.285  -5.985  0.00  0.00    +0.019 A 
ATOM     38  C   UNL     1       2.872  27.220  -6.929  0.00  0.00    +0.120 A 
ATOM     39  N   UNL     1       2.084  26.145  -6.530  0.00  0.00    -0.263 NA
ATOM     40  C   UNL     1       1.559  26.035  -5.234  0.00  0.00    +0.111 A 
ENDBRANCH   4   3
ENDBRANCH  10   9
BRANCH  12  13
ATOM     13  N   UNL     1       4.546  36.543  -9.672  0.00  0.00    -0.281 N 
ATOM     14  C   UNL     1       4.067  37.556 -10.486  0.00  0.00    +0.248 C 
ATOM     30  O   UNL     1       4.060  37.516 -11.708  0.00  0.00    -0.270 OA
ATOM     31  H   UNL     1       4.674  36.781  -8.689  0.00  0.00    +0.155 HD
BRANCH  14  15
ATOM     15  C   UNL     1       3.532  38.800  -9.853  0.00  0.00    +0.037 A 
ATOM     16  C   UNL     1       2.867  39.833 -10.650  0.00  0.00    +0.013 A 
ATOM     17  C   UNL     1       2.375  41.031 -10.017  0.00  0.00    +0.005 A 
ATOM     18  C   UNL     1       2.546  41.200  -8.576  0.00  0.00    -0.033 A 
ATOM     28  C   UNL     1       3.204  40.157  -7.808  0.00  0.00    +0.005 A 
ATOM     29  C   UNL     1       3.689  38.982  -8.425  0.00  0.00    +0.013 A 
BRANCH  18  19
ATOM     19  C   UNL     1       2.071  42.455  -7.819  0.00  0.00    +0.119 C 
BRANCH  19  20
ATOM     20  N   UNL     1       0.731  42.392  -7.162  0.00  0.00    -0.302 NA
ATOM     21  C   UNL     1       0.834  42.009  -5.683  0.00  0.00    +0.066 C 
ATOM     22  C   UNL     1      -0.575  41.970  -5.006  0.00  0.00    -0.064 C 
ATOM     23  N   UNL     1      -1.472  40.985  -5.759  0.00  0.00    +0.379 N 
ATOM     24  C   UNL     1      -2.778  40.902  -5.090  0.00  0.00    -0.096 C 
ATOM     25  H   UNL     1      -0.995  39.979  -5.697  0.00  0.00    -0.082 HD
ATOM     26  C   UNL     1      -1.577  41.356  -7.231  0.00  0.00    -0.064 C 
ATOM     27  C   UNL     1      -0.170  41.422  -7.887  0.00  0.00    +0.066 C 
ENDBRANCH  19  20
ENDBRANCH  18  19
ENDBRANCH  14  15
ENDBRANCH  12  13
TORSDOF 6
ENDMDL
MODEL 4
REMARK VINA RESULT:      -9.1      8.948     14.287
REMARK  Name = C:\Users\Docking\Desktop\test protocol\1iep_ligandH.pdb
REMARK  8 active torsions:
REMARK  status: ('A' for Active; 'I' for Inactive)
REMARK    1  A    between atoms: _5  and  _11
REMARK    2  A    between atoms: _19  and  _21
REMARK    3  A    between atoms: _22  and  _66
REMARK    4  A    between atoms: _27  and  _30
REMARK    5  A    between atoms: _32  and  _33
REMARK    6  A    between atoms: _38  and  _43
REMARK    7  A    between atoms: _43  and  _46
REMARK    8  A    between atoms: _53  and  _55
REMARK                            x       y       z     vdW  Elec       q    Type
REMARK                         _______ _______ _______ _____ _____    ______ ____
ROOT
ATOM     10  C   UNL     1      -5.184  37.217  -7.823  0.00  0.00    +0.038 A 
ATOM     11  C   UNL     1      -6.223  37.787  -7.044  0.00  0.00    +0.047 A 
ATOM     12  C   UNL     1      -7.395  37.010  -6.670  0.00  0.00    +0.035 A 
ATOM     32  C   UNL     1      -7.475  35.655  -7.106  0.00  0.00    +0.024 A 
ATOM     33  C   UNL     1      -6.428  35.061  -7.899  0.00  0.00    +0.007 A 
ATOM     34  C   UNL     1      -5.270  35.823  -8.273  0.00  0.00    -0.029 A 
ATOM     35  C   UNL     1      -4.182  35.136  -9.130  0.00  0.00    +0.045 C 
ENDROOT
BRANCH  10   9
ATOM      4  C   UNL     1      -2.014  40.683  -6.833  0.00  0.00    +0.077 A 
ATOM      5  C   UNL     1      -2.623  40.960  -5.564  0.00  0.00    +0.048 A 
ATOM      6  C   UNL     1      -3.754  40.192  -5.207  0.00  0.00    +0.116 A 
ATOM      7  N   UNL     1      -4.232  39.223  -6.062  0.00  0.00    -0.223 NA
ATOM      8  C   UNL     1      -3.622  38.983  -7.280  0.00  0.00    +0.220 A 
ATOM      9  N   UNL     1      -4.081  38.009  -8.152  0.00  0.00    -0.283 N 
ATOM     36  H   UNL     1      -3.607  37.867  -9.044  0.00  0.00    +0.155 HD
ATOM     37  N   UNL     1      -2.541  39.704  -7.645  0.00  0.00    -0.214 NA
BRANCH   4   3
ATOM      1  C   UNL     1       0.487  42.568  -9.177  0.00  0.00    +0.020 A 
ATOM      2  C   UNL     1      -0.697  41.874  -8.727  0.00  0.00    +0.013 A 
ATOM      3  C   UNL     1      -0.810  41.407  -7.351  0.00  0.00    +0.019 A 
ATOM     38  C   UNL     1       0.301  41.663  -6.447  0.00  0.00    +0.120 A 
ATOM     39  N   UNL     1       1.430  42.333  -6.909  0.00  0.00    -0.263 NA
ATOM     40  C   UNL     1       1.551  42.785  -8.231  0.00  0.00    +0.111 A 
ENDBRANCH   4   3
ENDBRANCH  10   9
BRANCH  12  13
ATOM     13  N   UNL     1      -8.486  37.537  -5.888  0.00  0.00    -0.281 N 
ATOM     14  C   UNL     1      -8.415  38.323  -4.749  0.00  0.00    +0.248 C 
ATOM     30  O   UNL     1      -7.395  38.516  -4.105  0.00  0.00    -0.270 OA
ATOM     31  H   UNL     1      -9.424  37.302  -6.212  0.00  0.00    +0.155 HD
BRANCH  14  15
ATOM     15  C   UNL     1      -9.661  38.977  -4.245  0.00  0.00    +0.037 A 
ATOM     16  C   UNL     1      -9.618  40.280  -3.576  0.00  0.00    +0.013 A 
ATOM     17  C   UNL     1     -10.832  40.881  -3.084  0.00  0.00    +0.005 A 
ATOM     18  C   UNL     1     -12.101  40.179  -3.261  0.00  0.00    -0.033 A 
ATOM     28  C   UNL     1     -12.116  38.890  -3.933  0.00  0.00    +0.005 A 
ATOM     29  C   UNL     1     -10.927  38.298  -4.415  0.00  0.00    +0.013 A 
BRANCH  18  19
ATOM     19  C   UNL     1     -13.443  40.736  -2.749  0.00  0.00    +0.119 C 
BRANCH  19  20
ATOM     20  N   UNL     1     -13.958  40.196  -1.456  0.00  0.00    -0.302 NA
ATOM     21  C   UNL     1     -15.487  40.244  -1.382  0.00  0.00    +0.066 C 
ATOM     22  C   UNL     1     -16.011  39.654  -0.032  0.00  0.00    -0.064 C 
ATOM     23  N   UNL     1     -15.387  40.424   1.133  0.00  0.00    +0.379 N 
ATOM     24  C   UNL     1     -15.922  39.910   2.403  0.00  0.00    -0.096 C 
ATOM     25  H   UNL     1     -15.701  41.490   1.041  0.00  0.00    -0.082 HD
ATOM     26  C   UNL     1     -13.867  40.383   1.066  0.00  0.00    -0.064 C 
ATOM     27  C   UNL     1     -13.359  40.944  -0.291  0.00  0.00    +0.066 C 
ENDBRANCH  19  20
ENDBRANCH  18  19
ENDBRANCH  14  15
ENDBRANCH  12  13
TORSDOF 6
ENDMDL
MODEL 5
REMARK VINA RESULT:      -8.9     10.931     17.129
REMARK  Name = C:\Users\Docking\Desktop\test protocol\1iep_ligandH.pdb
REMARK  8 active torsions:
REMARK  status: ('A' for Active; 'I' for Inactive)
REMARK    1  A    between atoms: _5  and  _11
REMARK    2  A    between atoms: _19  and  _21
REMARK    3  A    between atoms: _22  and  _66
REMARK    4  A    between atoms: _27  and  _30
REMARK    5  A    between atoms: _32  and  _33
REMARK    6  A    between atoms: _38  and  _43
REMARK    7  A    between atoms: _43  and  _46
REMARK    8  A    between atoms: _53  and  _55
REMARK                            x       y       z     vdW  Elec       q    Type
REMARK                         _______ _______ _______ _____ _____    ______ ____
ROOT
ATOM     10  C   UNL     1      -7.633  38.298  -5.126  0.00  0.00    +0.038 A 
ATOM     11  C   UNL     1      -8.447  38.796  -4.076  0.00  0.00    +0.047 A 
ATOM     12  C   UNL     1      -9.804  38.310  -3.882  0.00  0.00    +0.035 A 
ATOM     32  C   UNL     1     -10.300  37.316  -4.774  0.00  0.00    +0.024 A 
ATOM     33  C   UNL     1      -9.487  36.800  -5.847  0.00  0.00    +0.007 A 
ATOM     34  C   UNL     1      -8.148  37.276  -6.045  0.00  0.00    -0.029 A 
ATOM     35  C   UNL     1      -7.323  36.692  -7.216  0.00  0.00    +0.045 C 
ENDROOT
BRANCH  10   9
ATOM      4  C   UNL     1      -4.367  41.782  -4.645  0.00  0.00    +0.077 A 
ATOM      5  C   UNL     1      -5.331  42.690  -4.093  0.00  0.00    +0.048 A 
ATOM      6  C   UNL     1      -6.657  42.224  -3.956  0.00  0.00    +0.116 A 
ATOM      7  N   UNL     1      -6.985  40.943  -4.345  0.00  0.00    -0.223 NA
ATOM      8  C   UNL     1      -6.031  40.094  -4.875  0.00  0.00    +0.220 A 
ATOM      9  N   UNL     1      -6.336  38.799  -5.266  0.00  0.00    -0.283 N 
ATOM     36  H   UNL     1      -5.606  38.206  -5.659  0.00  0.00    +0.155 HD
ATOM     37  N   UNL     1      -4.758  40.516  -5.018  0.00  0.00    -0.214 NA
BRANCH   4   3
ATOM      1  C   UNL     1      -0.847  43.457  -4.322  0.00  0.00    +0.020 A 
ATOM      2  C   UNL     1      -2.241  43.163  -4.086  0.00  0.00    +0.013 A 
ATOM      3  C   UNL     1      -2.924  42.127  -4.849  0.00  0.00    +0.019 A 
ATOM     38  C   UNL     1      -2.161  41.399  -5.852  0.00  0.00    +0.120 A 
ATOM     39  N   UNL     1      -0.819  41.704  -6.059  0.00  0.00    -0.263 NA
ATOM     40  C   UNL     1      -0.152  42.701  -5.331  0.00  0.00    +0.111 A 
ENDBRANCH   4   3
ENDBRANCH  10   9
BRANCH  12  13
ATOM     13  N   UNL     1     -10.680  38.784  -2.839  0.00  0.00    -0.281 N 
ATOM     14  C   UNL     1     -11.169  40.067  -2.655  0.00  0.00    +0.248 C 
ATOM     30  O   UNL     1     -10.754  41.056  -3.242  0.00  0.00    -0.270 OA
ATOM     31  H   UNL     1     -10.975  38.089  -2.153  0.00  0.00    +0.155 HD
BRANCH  14  15
ATOM     15  C   UNL     1     -12.268  40.286  -1.667  0.00  0.00    +0.037 A 
ATOM     16  C   UNL     1     -11.981  40.689  -0.288  0.00  0.00    +0.013 A 
ATOM     17  C   UNL     1     -13.060  40.877   0.650  0.00  0.00    +0.005 A 
ATOM     18  C   UNL     1     -14.436  40.663   0.211  0.00  0.00    -0.033 A 
ATOM     28  C   UNL     1     -14.693  40.268  -1.164  0.00  0.00    +0.005 A 
ATOM     29  C   UNL     1     -13.639  40.082  -2.086  0.00  0.00    +0.013 A 
BRANCH  18  19
ATOM     19  C   UNL     1     -15.648  40.820   1.150  0.00  0.00    +0.119 C 
BRANCH  19  20
ATOM     20  N   UNL     1     -15.579  40.134   2.475  0.00  0.00    -0.302 NA
ATOM     21  C   UNL     1     -16.847  39.329   2.771  0.00  0.00    +0.066 C 
ATOM     22  C   UNL     1     -16.749  38.601   4.151  0.00  0.00    -0.064 C 
ATOM     23  N   UNL     1     -16.493  39.631   5.252  0.00  0.00    +0.379 N 
ATOM     24  C   UNL     1     -16.458  38.957   6.557  0.00  0.00    -0.096 C 
ATOM     25  H   UNL     1     -17.354  40.339   5.259  0.00  0.00    -0.082 HD
ATOM     26  C   UNL     1     -15.235  40.439   4.963  0.00  0.00    -0.064 C 
ATOM     27  C   UNL     1     -15.330  41.135   3.577  0.00  0.00    +0.066 C 
ENDBRANCH  19  20
ENDBRANCH  18  19
ENDBRANCH  14  15
ENDBRANCH  12  13
TORSDOF 6
ENDMDL
