MODEL 1
REMARK VINA RESULT:      -8.8      0.000      0.000
REMARK  Name = C:\Users\Docking\Desktop\test protocol\1iep_ligandH.pdb
REMARK  8 active torsions:
REMARK  status: ('A' for Active; 'I' for Inactive)
REMARK    1  A    between atoms: _5  and  _11
REMARK    2  A    between atoms: _19  and  _21
REMARK    3  A    between atoms: _22  and  _66
REMARK    4  A    between atoms: _27  and  _30
REMARK    5  A    between atoms: _32  and  _33
REMARK    6  A    between atoms: _38  and  _43
REMARK    7  A    between atoms: _43  and  _46
REMARK    8  A    between atoms: _53  and  _55
REMARK                            x       y       z     vdW  Elec       q    Type
REMARK                         _______ _______ _______ _____ _____    ______ ____
ROOT
ATOM     10  C   UNL     1      -7.176 -40.265   4.051  0.00  0.00    +0.038 A 
ATOM     11  C   UNL     1      -8.524 -40.191   3.616  0.00  0.00    +0.047 A 
ATOM     12  C   UNL     1      -9.228 -41.373   3.142  0.00  0.00    +0.035 A 
ATOM     32  C   UNL     1      -8.529 -42.615   3.126  0.00  0.00    +0.024 A 
ATOM     33  C   UNL     1      -7.158 -42.708   3.563  0.00  0.00    +0.007 A 
ATOM     34  C   UNL     1      -6.458 -41.546   4.030  0.00  0.00    -0.029 A 
ATOM     35  C   UNL     1      -4.987 -41.703   4.480  0.00  0.00    +0.045 C 
ENDROOT
BRANCH  10   9
ATOM      4  C   UNL     1      -7.213 -36.055   6.354  0.00  0.00    +0.077 A 
ATOM      5  C   UNL     1      -8.606 -36.175   6.674  0.00  0.00    +0.048 A 
ATOM      6  C   UNL     1      -9.278 -37.332   6.221  0.00  0.00    +0.116 A 
ATOM      7  N   UNL     1      -8.598 -38.291   5.503  0.00  0.00    -0.223 NA
ATOM      8  C   UNL     1      -7.255 -38.144   5.210  0.00  0.00    +0.220 A 
ATOM      9  N   UNL     1      -6.549 -39.100   4.496  0.00  0.00    -0.283 N 
ATOM     36  H   UNL     1      -5.560 -38.950   4.294  0.00  0.00    +0.155 HD
ATOM     37  N   UNL     1      -6.590 -37.047   5.630  0.00  0.00    -0.214 NA
BRANCH   4   3
ATOM      1  C   UNL     1      -6.026 -32.655   7.881  0.00  0.00    +0.020 A 
ATOM      2  C   UNL     1      -6.888 -33.752   7.508  0.00  0.00    +0.013 A 
ATOM      3  C   UNL     1      -6.364 -34.892   6.766  0.00  0.00    +0.019 A 
ATOM     38  C   UNL     1      -4.952 -34.891   6.415  0.00  0.00    +0.120 A 
ATOM     39  N   UNL     1      -4.146 -33.819   6.786  0.00  0.00    -0.263 NA
ATOM     40  C   UNL     1      -4.639 -32.716   7.499  0.00  0.00    +0.111 A 
ENDBRANCH   4   3
ENDBRANCH  10   9
BRANCH  12  13
ATOM     13  N   UNL     1     -10.594 -41.357   2.681  0.00  0.00    -0.281 N 
ATOM     14  C   UNL     1     -11.609 -40.491   3.054  0.00  0.00    +0.248 C 
ATOM     30  O   UNL     1     -11.550 -39.727   4.007  0.00  0.00    -0.270 OA
ATOM     31  H   UNL     1     -10.843 -42.071   1.996  0.00  0.00    +0.155 HD
BRANCH  14  15
ATOM     15  C   UNL     1     -12.877 -40.482   2.264  0.00  0.00    +0.037 A 
ATOM     16  C   UNL     1     -14.053 -39.736   2.722  0.00  0.00    +0.013 A 
ATOM     17  C   UNL     1     -15.269 -39.758   1.949  0.00  0.00    +0.005 A 
ATOM     18  C   UNL     1     -15.316 -40.528   0.708  0.00  0.00    -0.033 A 
ATOM     28  C   UNL     1     -14.134 -41.254   0.275  0.00  0.00    +0.005 A 
ATOM     29  C   UNL     1     -12.940 -41.236   1.030  0.00  0.00    +0.013 A 
BRANCH  18  19
ATOM     19  C   UNL     1     -16.578 -40.625  -0.169  0.00  0.00    +0.119 C 
BRANCH  19  20
ATOM     20  N   UNL     1     -16.547 -39.932  -1.491  0.00  0.00    -0.302 NA
ATOM     21  C   UNL     1     -17.881 -39.253  -1.815  0.00  0.00    +0.066 C 
ATOM     22  C   UNL     1     -17.824 -38.514  -3.192  0.00  0.00    -0.064 C 
ATOM     23  N   UNL     1     -17.442 -39.510  -4.288  0.00  0.00    +0.379 N 
ATOM     24  C   UNL     1     -17.444 -38.830  -5.591  0.00  0.00    -0.096 C 
ATOM     25  H   UNL     1     -18.229 -40.299  -4.316  0.00  0.00    -0.082 HD
ATOM     26  C   UNL     1     -16.118 -40.191  -3.972  0.00  0.00    -0.064 C 
ATOM     27  C   UNL     1     -16.176 -40.898  -2.589  0.00  0.00    +0.066 C 
ENDBRANCH  19  20
ENDBRANCH  18  19
ENDBRANCH  14  15
ENDBRANCH  12  13
TORSDOF 6
ENDMDL
MODEL 2
REMARK VINA RESULT:      -8.7      4.086      5.860
REMARK  Name = C:\Users\Docking\Desktop\test protocol\1iep_ligandH.pdb
REMARK  8 active torsions:
REMARK  status: ('A' for Active; 'I' for Inactive)
REMARK    1  A    between atoms: _5  and  _11
REMARK    2  A    between atoms: _19  and  _21
REMARK    3  A    between atoms: _22  and  _66
REMARK    4  A    between atoms: _27  and  _30
REMARK    5  A    between atoms: _32  and  _33
REMARK    6  A    between atoms: _38  and  _43
REMARK    7  A    between atoms: _43  and  _46
REMARK    8  A    between atoms: _53  and  _55
REMARK                            x       y       z     vdW  Elec       q    Type
REMARK                         _______ _______ _______ _____ _____    ______ ____
ROOT
ATOM     10  C   UNL     1      -4.195 -39.803   4.244  0.00  0.00    +0.038 A 
ATOM     11  C   UNL     1      -5.600 -39.827   4.435  0.00  0.00    +0.047 A 
ATOM     12  C   UNL     1      -6.509 -39.999   3.312  0.00  0.00    +0.035 A 
ATOM     32  C   UNL     1      -5.951 -40.148   2.008  0.00  0.00    +0.024 A 
ATOM     33  C   UNL     1      -4.525 -40.126   1.797  0.00  0.00    +0.007 A 
ATOM     34  C   UNL     1      -3.624 -39.953   2.900  0.00  0.00    -0.029 A 
ATOM     35  C   UNL     1      -2.105 -39.931   2.614  0.00  0.00    +0.045 C 
ENDROOT
BRANCH  10   9
ATOM      4  C   UNL     1      -1.697 -41.530   7.961  0.00  0.00    +0.077 A 
ATOM      5  C   UNL     1      -2.092 -42.879   7.676  0.00  0.00    +0.048 A 
ATOM      6  C   UNL     1      -2.945 -43.085   6.569  0.00  0.00    +0.116 A 
ATOM      7  N   UNL     1      -3.364 -42.015   5.810  0.00  0.00    -0.223 NA
ATOM      8  C   UNL     1      -2.966 -40.726   6.113  0.00  0.00    +0.220 A 
ATOM      9  N   UNL     1      -3.369 -39.635   5.358  0.00  0.00    -0.283 N 
ATOM     36  H   UNL     1      -3.059 -38.699   5.619  0.00  0.00    +0.155 HD
ATOM     37  N   UNL     1      -2.153 -40.502   7.166  0.00  0.00    -0.214 NA
BRANCH   4   3
ATOM      1  C   UNL     1      -0.254 -40.961  11.552  0.00  0.00    +0.020 A 
ATOM      2  C   UNL     1      -1.160 -41.343  10.494  0.00  0.00    +0.013 A 
ATOM      3  C   UNL     1      -0.796 -41.151   9.096  0.00  0.00    +0.019 A 
ATOM     38  C   UNL     1       0.503 -40.565   8.800  0.00  0.00    +0.120 A 
ATOM     39  N   UNL     1       1.354 -40.205   9.840  0.00  0.00    -0.263 NA
ATOM     40  C   UNL     1       1.014 -40.384  11.189  0.00  0.00    +0.111 A 
ENDBRANCH   4   3
ENDBRANCH  10   9
BRANCH  12  13
ATOM     13  N   UNL     1      -7.944 -40.023   3.443  0.00  0.00    -0.281 N 
ATOM     14  C   UNL     1      -8.811 -38.944   3.518  0.00  0.00    +0.248 C 
ATOM     30  O   UNL     1      -8.460 -37.788   3.700  0.00  0.00    -0.270 OA
ATOM     31  H   UNL     1      -8.375 -40.947   3.485  0.00  0.00    +0.155 HD
BRANCH  14  15
ATOM     15  C   UNL     1     -10.279 -39.187   3.387  0.00  0.00    +0.037 A 
ATOM     16  C   UNL     1     -10.796 -40.442   2.835  0.00  0.00    +0.013 A 
ATOM     17  C   UNL     1     -12.217 -40.644   2.704  0.00  0.00    +0.005 A 
ATOM     18  C   UNL     1     -13.133 -39.587   3.127  0.00  0.00    -0.033 A 
ATOM     28  C   UNL     1     -12.593 -38.354   3.676  0.00  0.00    +0.005 A 
ATOM     29  C   UNL     1     -11.201 -38.152   3.806  0.00  0.00    +0.013 A 
BRANCH  18  19
ATOM     19  C   UNL     1     -14.663 -39.708   3.004  0.00  0.00    +0.119 C 
BRANCH  19  20
ATOM     20  N   UNL     1     -15.195 -40.745   2.070  0.00  0.00    -0.302 NA
ATOM     21  C   UNL     1     -15.092 -40.306   0.607  0.00  0.00    +0.066 C 
ATOM     22  C   UNL     1     -15.631 -41.412  -0.358  0.00  0.00    -0.064 C 
ATOM     23  N   UNL     1     -17.079 -41.742   0.008  0.00  0.00    +0.379 N 
ATOM     24  C   UNL     1     -17.608 -42.739  -0.934  0.00  0.00    -0.096 C 
ATOM     25  H   UNL     1     -17.680 -40.810  -0.113  0.00  0.00    -0.082 HD
ATOM     26  C   UNL     1     -17.191 -42.176   1.463  0.00  0.00    -0.064 C 
ATOM     27  C   UNL     1     -16.625 -41.083   2.411  0.00  0.00    +0.066 C 
ENDBRANCH  19  20
ENDBRANCH  18  19
ENDBRANCH  14  15
ENDBRANCH  12  13
TORSDOF 6
ENDMDL
MODEL 3
REMARK VINA RESULT:      -8.7      4.310      5.943
REMARK  Name = C:\Users\Docking\Desktop\test protocol\1iep_ligandH.pdb
REMARK  8 active torsions:
REMARK  status: ('A' for Active; 'I' for Inactive)
REMARK    1  A    between atoms: _5  and  _11
REMARK    2  A    between atoms: _19  and  _21
REMARK    3  A    between atoms: _22  and  _66
REMARK    4  A    between atoms: _27  and  _30
REMARK    5  A    between atoms: _32  and  _33
REMARK    6  A    between atoms: _38  and  _43
REMARK    7  A    between atoms: _43  and  _46
REMARK    8  A    between atoms: _53  and  _55
REMARK                            x       y       z     vdW  Elec       q    Type
REMARK                         _______ _______ _______ _____ _____    ______ ____
ROOT
ATOM     10  C   UNL     1      -6.348 -39.474   3.227  0.00  0.00    +0.038 A 
ATOM     11  C   UNL     1      -7.711 -39.848   3.348  0.00  0.00    +0.047 A 
ATOM     12  C   UNL     1      -8.603 -39.822   2.200  0.00  0.00    +0.035 A 
ATOM     32  C   UNL     1      -8.074 -39.412   0.941  0.00  0.00    +0.024 A 
ATOM     33  C   UNL     1      -6.691 -39.028   0.800  0.00  0.00    +0.007 A 
ATOM     34  C   UNL     1      -5.807 -39.049   1.930  0.00  0.00    -0.029 A 
ATOM     35  C   UNL     1      -4.336 -38.620   1.722  0.00  0.00    +0.045 C 
ENDROOT
BRANCH  10   9
ATOM      4  C   UNL     1      -3.335 -41.748   6.191  0.00  0.00    +0.077 A 
ATOM      5  C   UNL     1      -3.406 -42.961   5.428  0.00  0.00    +0.048 A 
ATOM      6  C   UNL     1      -4.234 -42.960   4.283  0.00  0.00    +0.116 A 
ATOM      7  N   UNL     1      -4.935 -41.825   3.937  0.00  0.00    -0.223 NA
ATOM      8  C   UNL     1      -4.846 -40.672   4.696  0.00  0.00    +0.220 A 
ATOM      9  N   UNL     1      -5.536 -39.517   4.362  0.00  0.00    -0.283 N 
ATOM     36  H   UNL     1      -5.450 -38.690   4.952  0.00  0.00    +0.155 HD
ATOM     37  N   UNL     1      -4.063 -40.648   5.794  0.00  0.00    -0.214 NA
BRANCH   4   3
ATOM      1  C   UNL     1      -0.571 -40.593   8.706  0.00  0.00    +0.020 A 
ATOM      2  C   UNL     1      -1.343 -40.709   7.490  0.00  0.00    +0.013 A 
ATOM      3  C   UNL     1      -2.501 -41.591   7.424  0.00  0.00    +0.019 A 
ATOM     38  C   UNL     1      -2.854 -42.348   8.615  0.00  0.00    +0.120 A 
ATOM     39  N   UNL     1      -2.091 -42.218   9.772  0.00  0.00    -0.263 NA
ATOM     40  C   UNL     1      -0.973 -41.373   9.846  0.00  0.00    +0.111 A 
ENDBRANCH   4   3
ENDBRANCH  10   9
BRANCH  12  13
ATOM     13  N   UNL     1      -9.998 -40.183   2.264  0.00  0.00    -0.281 N 
ATOM     14  C   UNL     1     -10.988 -39.620   3.051  0.00  0.00    +0.248 C 
ATOM     30  O   UNL     1     -10.780 -38.856   3.982  0.00  0.00    -0.270 OA
ATOM     31  H   UNL     1     -10.290 -40.948   1.655  0.00  0.00    +0.155 HD
BRANCH  14  15
ATOM     15  C   UNL     1     -12.416 -39.965   2.774  0.00  0.00    +0.037 A 
ATOM     16  C   UNL     1     -13.507 -39.086   3.200  0.00  0.00    +0.013 A 
ATOM     17  C   UNL     1     -14.876 -39.452   2.935  0.00  0.00    +0.005 A 
ATOM     18  C   UNL     1     -15.161 -40.704   2.238  0.00  0.00    -0.033 A 
ATOM     28  C   UNL     1     -14.058 -41.555   1.821  0.00  0.00    +0.005 A 
ATOM     29  C   UNL     1     -12.715 -41.200   2.081  0.00  0.00    +0.013 A 
BRANCH  18  19
ATOM     19  C   UNL     1     -16.592 -41.184   1.931  0.00  0.00    +0.119 C 
BRANCH  19  20
ATOM     20  N   UNL     1     -17.514 -41.368   3.091  0.00  0.00    -0.302 NA
ATOM     21  C   UNL     1     -17.815 -42.845   3.358  0.00  0.00    +0.066 C 
ATOM     22  C   UNL     1     -18.764 -43.020   4.588  0.00  0.00    -0.064 C 
ATOM     23  N   UNL     1     -20.057 -42.239   4.347  0.00  0.00    +0.379 N 
ATOM     24  C   UNL     1     -20.974 -42.448   5.477  0.00  0.00    -0.096 C 
ATOM     25  H   UNL     1     -20.541 -42.660   3.435  0.00  0.00    -0.082 HD
ATOM     26  C   UNL     1     -19.766 -40.769   4.079  0.00  0.00    -0.064 C 
ATOM     27  C   UNL     1     -18.799 -40.608   2.873  0.00  0.00    +0.066 C 
ENDBRANCH  19  20
ENDBRANCH  18  19
ENDBRANCH  14  15
ENDBRANCH  12  13
TORSDOF 6
ENDMDL
MODEL 4
REMARK VINA RESULT:      -8.7      2.938      5.424
REMARK  Name = C:\Users\Docking\Desktop\test protocol\1iep_ligandH.pdb
REMARK  8 active torsions:
REMARK  status: ('A' for Active; 'I' for Inactive)
REMARK    1  A    between atoms: _5  and  _11
REMARK    2  A    between atoms: _19  and  _21
REMARK    3  A    between atoms: _22  and  _66
REMARK    4  A    between atoms: _27  and  _30
REMARK    5  A    between atoms: _32  and  _33
REMARK    6  A    between atoms: _38  and  _43
REMARK    7  A    between atoms: _43  and  _46
REMARK    8  A    between atoms: _53  and  _55
REMARK                            x       y       z     vdW  Elec       q    Type
REMARK                         _______ _______ _______ _____ _____    ______ ____
ROOT
ATOM     10  C   UNL     1      -6.958 -37.391   4.421  0.00  0.00    +0.038 A 
ATOM     11  C   UNL     1      -8.125 -38.086   4.014  0.00  0.00    +0.047 A 
ATOM     12  C   UNL     1      -9.363 -37.988   4.772  0.00  0.00    +0.035 A 
ATOM     32  C   UNL     1      -9.377 -37.169   5.939  0.00  0.00    +0.024 A 
ATOM     33  C   UNL     1      -8.200 -36.456   6.368  0.00  0.00    +0.007 A 
ATOM     34  C   UNL     1      -6.975 -36.551   5.626  0.00  0.00    -0.029 A 
ATOM     35  C   UNL     1      -5.742 -35.770   6.136  0.00  0.00    +0.045 C 
ENDROOT
BRANCH  10   9
ATOM      4  C   UNL     1      -3.071 -39.826   3.009  0.00  0.00    +0.077 A 
ATOM      5  C   UNL     1      -3.363 -40.920   3.890  0.00  0.00    +0.048 A 
ATOM      6  C   UNL     1      -4.520 -40.813   4.695  0.00  0.00    +0.116 A 
ATOM      7  N   UNL     1      -5.317 -39.692   4.616  0.00  0.00    -0.223 NA
ATOM      8  C   UNL     1      -5.005 -38.654   3.757  0.00  0.00    +0.220 A 
ATOM      9  N   UNL     1      -5.797 -37.521   3.656  0.00  0.00    -0.283 N 
ATOM     36  H   UNL     1      -5.529 -36.774   3.016  0.00  0.00    +0.155 HD
ATOM     37  N   UNL     1      -3.906 -38.731   2.979  0.00  0.00    -0.214 NA
BRANCH   4   3
ATOM      1  C   UNL     1       0.271 -38.780   1.265  0.00  0.00    +0.020 A 
ATOM      2  C   UNL     1      -0.853 -38.768   2.173  0.00  0.00    +0.013 A 
ATOM      3  C   UNL     1      -1.887 -39.792   2.093  0.00  0.00    +0.019 A 
ATOM     38  C   UNL     1      -1.752 -40.824   1.076  0.00  0.00    +0.120 A 
ATOM     39  N   UNL     1      -0.660 -40.810   0.214  0.00  0.00    -0.263 NA
ATOM     40  C   UNL     1       0.340 -39.828   0.280  0.00  0.00    +0.111 A 
ENDBRANCH   4   3
ENDBRANCH  10   9
BRANCH  12  13
ATOM     13  N   UNL     1     -10.577 -38.677   4.412  0.00  0.00    -0.281 N 
ATOM     14  C   UNL     1     -11.621 -38.211   3.631  0.00  0.00    +0.248 C 
ATOM     30  O   UNL     1     -11.768 -37.044   3.297  0.00  0.00    -0.270 OA
ATOM     31  H   UNL     1     -10.678 -39.625   4.777  0.00  0.00    +0.155 HD
BRANCH  14  15
ATOM     15  C   UNL     1     -12.662 -39.177   3.165  0.00  0.00    +0.037 A 
ATOM     16  C   UNL     1     -12.292 -40.443   2.527  0.00  0.00    +0.013 A 
ATOM     17  C   UNL     1     -13.316 -41.350   2.071  0.00  0.00    +0.005 A 
ATOM     18  C   UNL     1     -14.721 -40.993   2.253  0.00  0.00    -0.033 A 
ATOM     28  C   UNL     1     -15.060 -39.733   2.893  0.00  0.00    +0.005 A 
ATOM     29  C   UNL     1     -14.059 -38.842   3.340  0.00  0.00    +0.013 A 
BRANCH  18  19
ATOM     19  C   UNL     1     -15.879 -41.890   1.778  0.00  0.00    +0.119 C 
BRANCH  19  20
ATOM     20  N   UNL     1     -16.641 -41.443   0.574  0.00  0.00    -0.302 NA
ATOM     21  C   UNL     1     -15.805 -40.533  -0.329  0.00  0.00    +0.066 C 
ATOM     22  C   UNL     1     -16.610 -40.092  -1.595  0.00  0.00    -0.064 C 
ATOM     23  N   UNL     1     -17.896 -39.388  -1.159  0.00  0.00    +0.379 N 
ATOM     24  C   UNL     1     -18.627 -38.921  -2.346  0.00  0.00    -0.096 C 
ATOM     25  H   UNL     1     -17.605 -38.490  -0.566  0.00  0.00    -0.082 HD
ATOM     26  C   UNL     1     -18.733 -40.285  -0.257  0.00  0.00    -0.064 C 
ATOM     27  C   UNL     1     -17.914 -40.741   0.982  0.00  0.00    +0.066 C 
ENDBRANCH  19  20
ENDBRANCH  18  19
ENDBRANCH  14  15
ENDBRANCH  12  13
TORSDOF 6
ENDMDL
MODEL 5
REMARK VINA RESULT:      -8.6      6.433     14.719
REMARK  Name = C:\Users\Docking\Desktop\test protocol\1iep_ligandH.pdb
REMARK  8 active torsions:
REMARK  status: ('A' for Active; 'I' for Inactive)
REMARK    1  A    between atoms: _5  and  _11
REMARK    2  A    between atoms: _19  and  _21
REMARK    3  A    between atoms: _22  and  _66
REMARK    4  A    between atoms: _27  and  _30
REMARK    5  A    between atoms: _32  and  _33
REMARK    6  A    between atoms: _38  and  _43
REMARK    7  A    between atoms: _43  and  _46
REMARK    8  A    between atoms: _53  and  _55
REMARK                            x       y       z     vdW  Elec       q    Type
REMARK                         _______ _______ _______ _____ _____    ______ ____
ROOT
ATOM     10  C   UNL     1      -5.217 -42.245   4.356  0.00  0.00    +0.038 A 
ATOM     11  C   UNL     1      -4.358 -41.663   5.322  0.00  0.00    +0.047 A 
ATOM     12  C   UNL     1      -2.939 -41.982   5.356  0.00  0.00    +0.035 A 
ATOM     32  C   UNL     1      -2.428 -42.896   4.389  0.00  0.00    +0.024 A 
ATOM     33  C   UNL     1      -3.288 -43.498   3.401  0.00  0.00    +0.007 A 
ATOM     34  C   UNL     1      -4.689 -43.189   3.364  0.00  0.00    -0.029 A 
ATOM     35  C   UNL     1      -5.565 -43.870   2.286  0.00  0.00    +0.045 C 
ENDROOT
BRANCH  10   9
ATOM      4  C   UNL     1      -8.850 -39.301   3.274  0.00  0.00    +0.077 A 
ATOM      5  C   UNL     1      -7.973 -38.351   2.653  0.00  0.00    +0.048 A 
ATOM      6  C   UNL     1      -6.593 -38.654   2.640  0.00  0.00    +0.116 A 
ATOM      7  N   UNL     1      -6.136 -39.823   3.208  0.00  0.00    -0.223 NA
ATOM      8  C   UNL     1      -7.008 -40.718   3.799  0.00  0.00    +0.220 A 
ATOM      9  N   UNL     1      -6.571 -41.904   4.369  0.00  0.00    -0.283 N 
ATOM     36  H   UNL     1      -7.246 -42.534   4.802  0.00  0.00    +0.155 HD
ATOM     37  N   UNL     1      -8.331 -40.451   3.826  0.00  0.00    -0.214 NA
BRANCH   4   3
ATOM      1  C   UNL     1     -12.397 -37.891   4.131  0.00  0.00    +0.020 A 
ATOM      2  C   UNL     1     -10.958 -38.015   4.074  0.00  0.00    +0.013 A 
ATOM      3  C   UNL     1     -10.334 -39.125   3.364  0.00  0.00    +0.019 A 
ATOM     38  C   UNL     1     -11.201 -40.098   2.717  0.00  0.00    +0.120 A 
ATOM     39  N   UNL     1     -12.582 -39.953   2.789  0.00  0.00    -0.263 NA
ATOM     40  C   UNL     1     -13.194 -38.891   3.471  0.00  0.00    +0.111 A 
ENDBRANCH   4   3
ENDBRANCH  10   9
BRANCH  12  13
ATOM     13  N   UNL     1      -2.019 -41.428   6.318  0.00  0.00    -0.281 N 
ATOM     14  C   UNL     1      -1.700 -41.921   7.573  0.00  0.00    +0.248 C 
ATOM     30  O   UNL     1      -2.321 -42.802   8.148  0.00  0.00    -0.270 OA
ATOM     31  H   UNL     1      -1.545 -40.568   6.041  0.00  0.00    +0.155 HD
BRANCH  14  15
ATOM     15  C   UNL     1      -0.530 -41.340   8.301  0.00  0.00    +0.037 A 
ATOM     16  C   UNL     1       0.762 -41.155   7.637  0.00  0.00    +0.013 A 
ATOM     17  C   UNL     1       1.879 -40.609   8.367  0.00  0.00    +0.005 A 
ATOM     18  C   UNL     1       1.706 -40.242   9.771  0.00  0.00    -0.033 A 
ATOM     28  C   UNL     1       0.412 -40.432  10.403  0.00  0.00    +0.005 A 
ATOM     29  C   UNL     1      -0.685 -40.968   9.691  0.00  0.00    +0.013 A 
BRANCH  18  19
ATOM     19  C   UNL     1       2.848 -39.672  10.633  0.00  0.00    +0.119 C 
BRANCH  19  20
ATOM     20  N   UNL     1       3.890 -38.860   9.937  0.00  0.00    -0.302 NA
ATOM     21  C   UNL     1       5.289 -39.106  10.510  0.00  0.00    +0.066 C 
ATOM     22  C   UNL     1       6.369 -38.265   9.756  0.00  0.00    -0.064 C 
ATOM     23  N   UNL     1       6.004 -36.781   9.836  0.00  0.00    +0.379 N 
ATOM     24  C   UNL     1       7.049 -35.983   9.177  0.00  0.00    -0.096 C 
ATOM     25  H   UNL     1       5.988 -36.495  10.913  0.00  0.00    -0.082 HD
ATOM     26  C   UNL     1       4.614 -36.528   9.270  0.00  0.00    -0.064 C 
ATOM     27  C   UNL     1       3.552 -37.391  10.007  0.00  0.00    +0.066 C 
ENDBRANCH  19  20
ENDBRANCH  18  19
ENDBRANCH  14  15
ENDBRANCH  12  13
TORSDOF 6
ENDMDL
