MODEL 1
REMARK VINA RESULT:      -9.6      0.000      0.000
REMARK  Name = C:\Users\Docking\Desktop\test protocol\1iep_ligandH.pdb
REMARK  8 active torsions:
REMARK  status: ('A' for Active; 'I' for Inactive)
REMARK    1  A    between atoms: _5  and  _11
REMARK    2  A    between atoms: _19  and  _21
REMARK    3  A    between atoms: _22  and  _66
REMARK    4  A    between atoms: _27  and  _30
REMARK    5  A    between atoms: _32  and  _33
REMARK    6  A    between atoms: _38  and  _43
REMARK    7  A    between atoms: _43  and  _46
REMARK    8  A    between atoms: _53  and  _55
REMARK                            x       y       z     vdW  Elec       q    Type
REMARK                         _______ _______ _______ _____ _____    ______ ____
ROOT
ATOM     10  C   UNL     1      12.898  -5.551  20.542  0.00  0.00    +0.038 A 
ATOM     11  C   UNL     1      13.810  -6.036  19.570  0.00  0.00    +0.047 A 
ATOM     12  C   UNL     1      13.340  -6.712  18.370  0.00  0.00    +0.035 A 
ATOM     32  C   UNL     1      11.935  -6.873  18.191  0.00  0.00    +0.024 A 
ATOM     33  C   UNL     1      10.995  -6.386  19.170  0.00  0.00    +0.007 A 
ATOM     34  C   UNL     1      11.452  -5.721  20.357  0.00  0.00    -0.029 A 
ATOM     35  C   UNL     1      10.400  -5.226  21.376  0.00  0.00    +0.045 C 
ENDROOT
BRANCH  10   9
ATOM      4  C   UNL     1      15.344  -5.559  24.673  0.00  0.00    +0.077 A 
ATOM      5  C   UNL     1      15.614  -6.965  24.578  0.00  0.00    +0.048 A 
ATOM      6  C   UNL     1      15.100  -7.650  23.455  0.00  0.00    +0.116 A 
ATOM      7  N   UNL     1      14.371  -6.971  22.503  0.00  0.00    -0.223 NA
ATOM      8  C   UNL     1      14.127  -5.615  22.625  0.00  0.00    +0.220 A 
ATOM      9  N   UNL     1      13.404  -4.910  21.676  0.00  0.00    -0.283 N 
ATOM     36  H   UNL     1      13.240  -3.912  21.806  0.00  0.00    +0.155 HD
ATOM     37  N   UNL     1      14.606  -4.938  23.689  0.00  0.00    -0.214 NA
BRANCH   4   3
ATOM      1  C   UNL     1      15.603  -2.718  27.349  0.00  0.00    +0.020 A 
ATOM      2  C   UNL     1      15.097  -3.517  26.256  0.00  0.00    +0.013 A 
ATOM      3  C   UNL     1      15.822  -4.696  25.799  0.00  0.00    +0.019 A 
ATOM     38  C   UNL     1      17.064  -5.042  26.474  0.00  0.00    +0.120 A 
ATOM     39  N   UNL     1      17.527  -4.253  27.522  0.00  0.00    -0.263 NA
ATOM     40  C   UNL     1      16.839  -3.115  27.969  0.00  0.00    +0.111 A 
ENDBRANCH   4   3
ENDBRANCH  10   9
BRANCH  12  13
ATOM     13  N   UNL     1      14.218  -7.233  17.352  0.00  0.00    -0.281 N 
ATOM     14  C   UNL     1      15.304  -8.077  17.515  0.00  0.00    +0.248 C 
ATOM     30  O   UNL     1      15.817  -8.343  18.592  0.00  0.00    -0.270 OA
ATOM     31  H   UNL     1      14.014  -6.944  16.395  0.00  0.00    +0.155 HD
BRANCH  14  15
ATOM     15  C   UNL     1      15.918  -8.706  16.306  0.00  0.00    +0.037 A 
ATOM     16  C   UNL     1      16.709  -9.935  16.407  0.00  0.00    +0.013 A 
ATOM     17  C   UNL     1      17.304 -10.511  15.227  0.00  0.00    +0.005 A 
ATOM     18  C   UNL     1      17.109  -9.858  13.935  0.00  0.00    -0.033 A 
ATOM     28  C   UNL     1      16.315  -8.643  13.862  0.00  0.00    +0.005 A 
ATOM     29  C   UNL     1      15.731  -8.074  15.017  0.00  0.00    +0.013 A 
BRANCH  18  19
ATOM     19  C   UNL     1      17.724 -10.391  12.627  0.00  0.00    +0.119 C 
BRANCH  19  20
ATOM     20  N   UNL     1      17.467  -9.608  11.382  0.00  0.00    -0.302 NA
ATOM     21  C   UNL     1      16.502 -10.330  10.438  0.00  0.00    +0.066 C 
ATOM     22  C   UNL     1      16.227  -9.487   9.150  0.00  0.00    -0.064 C 
ATOM     23  N   UNL     1      17.552  -9.189   8.446  0.00  0.00    +0.379 N 
ATOM     24  C   UNL     1      17.292  -8.446   7.205  0.00  0.00    -0.096 C 
ATOM     25  H   UNL     1      18.013 -10.165   8.166  0.00  0.00    -0.082 HD
ATOM     26  C   UNL     1      18.519  -8.473   9.379  0.00  0.00    -0.064 C 
ATOM     27  C   UNL     1      18.762  -9.306  10.668  0.00  0.00    +0.066 C 
ENDBRANCH  19  20
ENDBRANCH  18  19
ENDBRANCH  14  15
ENDBRANCH  12  13
TORSDOF 6
ENDMDL
MODEL 2
REMARK VINA RESULT:      -9.5      8.373     12.487
REMARK  Name = C:\Users\Docking\Desktop\test protocol\1iep_ligandH.pdb
REMARK  8 active torsions:
REMARK  status: ('A' for Active; 'I' for Inactive)
REMARK    1  A    between atoms: _5  and  _11
REMARK    2  A    between atoms: _19  and  _21
REMARK    3  A    between atoms: _22  and  _66
REMARK    4  A    between atoms: _27  and  _30
REMARK    5  A    between atoms: _32  and  _33
REMARK    6  A    between atoms: _38  and  _43
REMARK    7  A    between atoms: _43  and  _46
REMARK    8  A    between atoms: _53  and  _55
REMARK                            x       y       z     vdW  Elec       q    Type
REMARK                         _______ _______ _______ _____ _____    ______ ____
ROOT
ATOM     10  C   UNL     1      24.819  -7.373  22.044  0.00  0.00    +0.038 A 
ATOM     11  C   UNL     1      23.437  -7.167  22.287  0.00  0.00    +0.047 A 
ATOM     12  C   UNL     1      22.633  -8.174  22.962  0.00  0.00    +0.035 A 
ATOM     32  C   UNL     1      23.271  -9.379  23.379  0.00  0.00    +0.024 A 
ATOM     33  C   UNL     1      24.674  -9.605  23.139  0.00  0.00    +0.007 A 
ATOM     34  C   UNL     1      25.471  -8.617  22.472  0.00  0.00    -0.029 A 
ATOM     35  C   UNL     1      26.970  -8.915  22.236  0.00  0.00    +0.045 C 
ENDROOT
BRANCH  10   9
ATOM      4  C   UNL     1      26.435  -5.227  18.067  0.00  0.00    +0.077 A 
ATOM      5  C   UNL     1      25.807  -6.197  17.217  0.00  0.00    +0.048 A 
ATOM      6  C   UNL     1      25.083  -7.236  17.843  0.00  0.00    +0.116 A 
ATOM      7  N   UNL     1      25.000  -7.291  19.217  0.00  0.00    -0.223 NA
ATOM      8  C   UNL     1      25.619  -6.341  20.008  0.00  0.00    +0.220 A 
ATOM      9  N   UNL     1      25.543  -6.372  21.392  0.00  0.00    -0.283 N 
ATOM     36  H   UNL     1      26.020  -5.657  21.940  0.00  0.00    +0.155 HD
ATOM     37  N   UNL     1      26.318  -5.339  19.434  0.00  0.00    -0.214 NA
BRANCH   4   3
ATOM      1  C   UNL     1      27.586  -2.106  16.008  0.00  0.00    +0.020 A 
ATOM      2  C   UNL     1      26.778  -3.213  16.465  0.00  0.00    +0.013 A 
ATOM      3  C   UNL     1      27.232  -4.068  17.555  0.00  0.00    +0.019 A 
ATOM     38  C   UNL     1      28.519  -3.771  18.167  0.00  0.00    +0.120 A 
ATOM     39  N   UNL     1      29.276  -2.699  17.706  0.00  0.00    -0.263 NA
ATOM     40  C   UNL     1      28.850  -1.871  16.656  0.00  0.00    +0.111 A 
ENDBRANCH   4   3
ENDBRANCH  10   9
BRANCH  12  13
ATOM     13  N   UNL     1      21.224  -8.025  23.228  0.00  0.00    -0.281 N 
ATOM     14  C   UNL     1      20.615  -7.176  24.138  0.00  0.00    +0.248 C 
ATOM     30  O   UNL     1      21.206  -6.567  25.017  0.00  0.00    -0.270 OA
ATOM     31  H   UNL     1      20.600  -8.616  22.679  0.00  0.00    +0.155 HD
BRANCH  14  15
ATOM     15  C   UNL     1      19.134  -6.989  24.071  0.00  0.00    +0.037 A 
ATOM     16  C   UNL     1      18.279  -7.273  25.227  0.00  0.00    +0.013 A 
ATOM     17  C   UNL     1      16.851  -7.100  25.130  0.00  0.00    +0.005 A 
ATOM     18  C   UNL     1      16.269  -6.638  23.872  0.00  0.00    -0.033 A 
ATOM     28  C   UNL     1      17.141  -6.359  22.743  0.00  0.00    +0.005 A 
ATOM     29  C   UNL     1      18.541  -6.528  22.834  0.00  0.00    +0.013 A 
BRANCH  18  19
ATOM     19  C   UNL     1      14.754  -6.446  23.672  0.00  0.00    +0.119 C 
BRANCH  19  20
ATOM     20  N   UNL     1      14.298  -5.947  22.340  0.00  0.00    -0.302 NA
ATOM     21  C   UNL     1      13.453  -4.676  22.462  0.00  0.00    +0.066 C 
ATOM     22  C   UNL     1      13.003  -4.154  21.058  0.00  0.00    -0.064 C 
ATOM     23  N   UNL     1      12.226  -5.255  20.334  0.00  0.00    +0.379 N 
ATOM     24  C   UNL     1      11.752  -4.748  19.037  0.00  0.00    -0.096 C 
ATOM     25  H   UNL     1      11.330  -5.497  20.950  0.00  0.00    -0.082 HD
ATOM     26  C   UNL     1      13.058  -6.523  20.210  0.00  0.00    -0.064 C 
ATOM     27  C   UNL     1      13.525  -7.016  21.609  0.00  0.00    +0.066 C 
ENDBRANCH  19  20
ENDBRANCH  18  19
ENDBRANCH  14  15
ENDBRANCH  12  13
TORSDOF 6
ENDMDL
MODEL 3
REMARK VINA RESULT:      -9.2      2.319      3.081
REMARK  Name = C:\Users\Docking\Desktop\test protocol\1iep_ligandH.pdb
REMARK  8 active torsions:
REMARK  status: ('A' for Active; 'I' for Inactive)
REMARK    1  A    between atoms: _5  and  _11
REMARK    2  A    between atoms: _19  and  _21
REMARK    3  A    between atoms: _22  and  _66
REMARK    4  A    between atoms: _27  and  _30
REMARK    5  A    between atoms: _32  and  _33
REMARK    6  A    between atoms: _38  and  _43
REMARK    7  A    between atoms: _43  and  _46
REMARK    8  A    between atoms: _53  and  _55
REMARK                            x       y       z     vdW  Elec       q    Type
REMARK                         _______ _______ _______ _____ _____    ______ ____
ROOT
ATOM     10  C   UNL     1      15.810  -6.092  22.183  0.00  0.00    +0.038 A 
ATOM     11  C   UNL     1      16.201  -6.716  20.971  0.00  0.00    +0.047 A 
ATOM     12  C   UNL     1      15.276  -7.552  20.222  0.00  0.00    +0.035 A 
ATOM     32  C   UNL     1      13.958  -7.729  20.736  0.00  0.00    +0.024 A 
ATOM     33  C   UNL     1      13.544  -7.103  21.967  0.00  0.00    +0.007 A 
ATOM     34  C   UNL     1      14.453  -6.279  22.711  0.00  0.00    -0.029 A 
ATOM     35  C   UNL     1      13.957  -5.638  24.028  0.00  0.00    +0.045 C 
ENDROOT
BRANCH  10   9
ATOM      4  C   UNL     1      19.113  -5.430  25.602  0.00  0.00    +0.077 A 
ATOM      5  C   UNL     1      18.955  -6.768  26.097  0.00  0.00    +0.048 A 
ATOM      6  C   UNL     1      18.008  -7.592  25.447  0.00  0.00    +0.116 A 
ATOM      7  N   UNL     1      17.280  -7.104  24.384  0.00  0.00    -0.223 NA
ATOM      8  C   UNL     1      17.455  -5.808  23.934  0.00  0.00    +0.220 A 
ATOM      9  N   UNL     1      16.739  -5.299  22.861  0.00  0.00    -0.283 N 
ATOM     36  H   UNL     1      16.892  -4.336  22.564  0.00  0.00    +0.155 HD
ATOM     37  N   UNL     1      18.352  -5.001  24.538  0.00  0.00    -0.214 NA
BRANCH   4   3
ATOM      1  C   UNL     1      22.277  -3.822  27.246  0.00  0.00    +0.020 A 
ATOM      2  C   UNL     1      21.385  -4.817  26.698  0.00  0.00    +0.013 A 
ATOM      3  C   UNL     1      20.076  -4.440  26.181  0.00  0.00    +0.019 A 
ATOM     38  C   UNL     1      19.697  -3.036  26.233  0.00  0.00    +0.120 A 
ATOM     39  N   UNL     1      20.577  -2.100  26.768  0.00  0.00    -0.263 NA
ATOM     40  C   UNL     1      21.839  -2.452  27.269  0.00  0.00    +0.111 A 
ENDBRANCH   4   3
ENDBRANCH  10   9
BRANCH  12  13
ATOM     13  N   UNL     1      15.620  -8.217  18.990  0.00  0.00    -0.281 N 
ATOM     14  C   UNL     1      15.125  -7.967  17.720  0.00  0.00    +0.248 C 
ATOM     30  O   UNL     1      14.149  -7.271  17.484  0.00  0.00    -0.270 OA
ATOM     31  H   UNL     1      16.311  -8.963  19.062  0.00  0.00    +0.155 HD
BRANCH  14  15
ATOM     15  C   UNL     1      15.805  -8.591  16.545  0.00  0.00    +0.037 A 
ATOM     16  C   UNL     1      16.615  -9.802  16.690  0.00  0.00    +0.013 A 
ATOM     17  C   UNL     1      17.274 -10.374  15.543  0.00  0.00    +0.005 A 
ATOM     18  C   UNL     1      17.123  -9.735  14.238  0.00  0.00    -0.033 A 
ATOM     28  C   UNL     1      16.309  -8.537  14.121  0.00  0.00    +0.005 A 
ATOM     29  C   UNL     1      15.663  -7.973  15.244  0.00  0.00    +0.013 A 
BRANCH  18  19
ATOM     19  C   UNL     1      17.807 -10.264  12.963  0.00  0.00    +0.119 C 
BRANCH  19  20
ATOM     20  N   UNL     1      17.472  -9.586  11.676  0.00  0.00    -0.302 NA
ATOM     21  C   UNL     1      16.427 -10.364  10.872  0.00  0.00    +0.066 C 
ATOM     22  C   UNL     1      16.072  -9.629   9.538  0.00  0.00    -0.064 C 
ATOM     23  N   UNL     1      17.345  -9.425   8.717  0.00  0.00    +0.379 N 
ATOM     24  C   UNL     1      17.006  -8.786   7.437  0.00  0.00    -0.096 C 
ATOM     25  H   UNL     1      17.767 -10.432   8.491  0.00  0.00    -0.082 HD
ATOM     26  C   UNL     1      18.391  -8.654   9.510  0.00  0.00    -0.064 C 
ATOM     27  C   UNL     1      18.715  -9.377  10.847  0.00  0.00    +0.066 C 
ENDBRANCH  19  20
ENDBRANCH  18  19
ENDBRANCH  14  15
ENDBRANCH  12  13
TORSDOF 6
ENDMDL
MODEL 4
REMARK VINA RESULT:      -8.9      6.631     14.273
REMARK  Name = C:\Users\Docking\Desktop\test protocol\1iep_ligandH.pdb
REMARK  8 active torsions:
REMARK  status: ('A' for Active; 'I' for Inactive)
REMARK    1  A    between atoms: _5  and  _11
REMARK    2  A    between atoms: _19  and  _21
REMARK    3  A    between atoms: _22  and  _66
REMARK    4  A    between atoms: _27  and  _30
REMARK    5  A    between atoms: _32  and  _33
REMARK    6  A    between atoms: _38  and  _43
REMARK    7  A    between atoms: _43  and  _46
REMARK    8  A    between atoms: _53  and  _55
REMARK                            x       y       z     vdW  Elec       q    Type
REMARK                         _______ _______ _______ _____ _____    ______ ____
ROOT
ATOM     10  C   UNL     1      15.139  -5.863  22.624  0.00  0.00    +0.038 A 
ATOM     11  C   UNL     1      14.813  -5.058  23.745  0.00  0.00    +0.047 A 
ATOM     12  C   UNL     1      13.429  -4.824  24.127  0.00  0.00    +0.035 A 
ATOM     32  C   UNL     1      12.402  -5.429  23.346  0.00  0.00    +0.024 A 
ATOM     33  C   UNL     1      12.715  -6.249  22.202  0.00  0.00    +0.007 A 
ATOM     34  C   UNL     1      14.078  -6.481  21.820  0.00  0.00    -0.029 A 
ATOM     35  C   UNL     1      14.355  -7.364  20.581  0.00  0.00    +0.045 C 
ENDROOT
BRANCH  10   9
ATOM      4  C   UNL     1      19.637  -7.074  23.782  0.00  0.00    +0.077 A 
ATOM      5  C   UNL     1      19.281  -7.322  25.150  0.00  0.00    +0.048 A 
ATOM      6  C   UNL     1      17.931  -7.119  25.516  0.00  0.00    +0.116 A 
ATOM      7  N   UNL     1      17.015  -6.700  24.576  0.00  0.00    -0.223 NA
ATOM      8  C   UNL     1      17.392  -6.468  23.266  0.00  0.00    +0.220 A 
ATOM      9  N   UNL     1      16.485  -6.054  22.303  0.00  0.00    -0.283 N 
ATOM     36  H   UNL     1      16.804  -5.887  21.349  0.00  0.00    +0.155 HD
ATOM     37  N   UNL     1      18.675  -6.654  22.892  0.00  0.00    -0.214 NA
BRANCH   4   3
ATOM      1  C   UNL     1      23.108  -8.605  22.827  0.00  0.00    +0.020 A 
ATOM      2  C   UNL     1      21.773  -8.490  23.368  0.00  0.00    +0.013 A 
ATOM      3  C   UNL     1      21.022  -7.247  23.241  0.00  0.00    +0.019 A 
ATOM     38  C   UNL     1      21.655  -6.131  22.555  0.00  0.00    +0.120 A 
ATOM     39  N   UNL     1      22.942  -6.271  22.045  0.00  0.00    -0.263 NA
ATOM     40  C   UNL     1      23.675  -7.461  22.163  0.00  0.00    +0.111 A 
ENDBRANCH   4   3
ENDBRANCH  10   9
BRANCH  12  13
ATOM     13  N   UNL     1      13.038  -4.009  25.250  0.00  0.00    -0.281 N 
ATOM     14  C   UNL     1      12.801  -4.413  26.554  0.00  0.00    +0.248 C 
ATOM     30  O   UNL     1      12.682  -5.578  26.906  0.00  0.00    -0.270 OA
ATOM     31  H   UNL     1      12.921  -3.014  25.061  0.00  0.00    +0.155 HD
BRANCH  14  15
ATOM     15  C   UNL     1      12.661  -3.373  27.618  0.00  0.00    +0.037 A 
ATOM     16  C   UNL     1      13.771  -2.478  27.956  0.00  0.00    +0.013 A 
ATOM     17  C   UNL     1      13.616  -1.495  28.998  0.00  0.00    +0.005 A 
ATOM     18  C   UNL     1      12.343  -1.401  29.710  0.00  0.00    -0.033 A 
ATOM     28  C   UNL     1      11.257  -2.298  29.351  0.00  0.00    +0.005 A 
ATOM     29  C   UNL     1      11.406  -3.264  28.331  0.00  0.00    +0.013 A 
BRANCH  18  19
ATOM     19  C   UNL     1      12.095  -0.396  30.851  0.00  0.00    +0.119 C 
BRANCH  19  20
ATOM     20  N   UNL     1      13.256   0.431  31.298  0.00  0.00    -0.302 NA
ATOM     21  C   UNL     1      14.010  -0.219  32.461  0.00  0.00    +0.066 C 
ATOM     22  C   UNL     1      15.234   0.649  32.901  0.00  0.00    -0.064 C 
ATOM     23  N   UNL     1      14.752   2.049  33.283  0.00  0.00    +0.379 N 
ATOM     24  C   UNL     1      15.892   2.850  33.752  0.00  0.00    -0.096 C 
ATOM     25  H   UNL     1      14.041   1.941  34.135  0.00  0.00    -0.082 HD
ATOM     26  C   UNL     1      13.998   2.702  32.133  0.00  0.00    -0.064 C 
ATOM     27  C   UNL     1      12.801   1.817  31.684  0.00  0.00    +0.066 C 
ENDBRANCH  19  20
ENDBRANCH  18  19
ENDBRANCH  14  15
ENDBRANCH  12  13
TORSDOF 6
ENDMDL
MODEL 5
REMARK VINA RESULT:      -8.8      8.505     13.774
REMARK  Name = C:\Users\Docking\Desktop\test protocol\1iep_ligandH.pdb
REMARK  8 active torsions:
REMARK  status: ('A' for Active; 'I' for Inactive)
REMARK    1  A    between atoms: _5  and  _11
REMARK    2  A    between atoms: _19  and  _21
REMARK    3  A    between atoms: _22  and  _66
REMARK    4  A    between atoms: _27  and  _30
REMARK    5  A    between atoms: _32  and  _33
REMARK    6  A    between atoms: _38  and  _43
REMARK    7  A    between atoms: _43  and  _46
REMARK    8  A    between atoms: _53  and  _55
REMARK                            x       y       z     vdW  Elec       q    Type
REMARK                         _______ _______ _______ _____ _____    ______ ____
ROOT
ATOM     10  C   UNL     1      24.714  -7.444  21.933  0.00  0.00    +0.038 A 
ATOM     11  C   UNL     1      23.356  -7.187  22.254  0.00  0.00    +0.047 A 
ATOM     12  C   UNL     1      22.500  -8.231  22.794  0.00  0.00    +0.035 A 
ATOM     32  C   UNL     1      23.059  -9.526  22.998  0.00  0.00    +0.024 A 
ATOM     33  C   UNL     1      24.437  -9.806  22.677  0.00  0.00    +0.007 A 
ATOM     34  C   UNL     1      25.286  -8.780  22.141  0.00  0.00    -0.029 A 
ATOM     35  C   UNL     1      26.753  -9.138  21.808  0.00  0.00    +0.045 C 
ENDROOT
BRANCH  10   9
ATOM      4  C   UNL     1      26.536  -4.940  18.267  0.00  0.00    +0.077 A 
ATOM      5  C   UNL     1      25.909  -5.790  17.297  0.00  0.00    +0.048 A 
ATOM      6  C   UNL     1      25.131  -6.865  17.783  0.00  0.00    +0.116 A 
ATOM      7  N   UNL     1      24.998  -7.065  19.140  0.00  0.00    -0.223 NA
ATOM      8  C   UNL     1      25.618  -6.227  20.048  0.00  0.00    +0.220 A 
ATOM      9  N   UNL     1      25.491  -6.405  21.418  0.00  0.00    -0.283 N 
ATOM     36  H   UNL     1      25.970  -5.769  22.055  0.00  0.00    +0.155 HD
ATOM     37  N   UNL     1      26.367  -5.194  19.610  0.00  0.00    -0.214 NA
BRANCH   4   3
ATOM      1  C   UNL     1      28.665  -2.343  16.261  0.00  0.00    +0.020 A 
ATOM      2  C   UNL     1      27.846  -3.497  16.552  0.00  0.00    +0.013 A 
ATOM      3  C   UNL     1      27.386  -3.760  17.910  0.00  0.00    +0.019 A 
ATOM     38  C   UNL     1      27.776  -2.829  18.958  0.00  0.00    +0.120 A 
ATOM     39  N   UNL     1      28.567  -1.727  18.648  0.00  0.00    -0.263 NA
ATOM     40  C   UNL     1      29.016  -1.464  17.345  0.00  0.00    +0.111 A 
ENDBRANCH   4   3
ENDBRANCH  10   9
BRANCH  12  13
ATOM     13  N   UNL     1      21.112  -8.031  23.131  0.00  0.00    -0.281 N 
ATOM     14  C   UNL     1      20.588  -7.311  24.193  0.00  0.00    +0.248 C 
ATOM     30  O   UNL     1      21.243  -6.906  25.142  0.00  0.00    -0.270 OA
ATOM     31  H   UNL     1      20.433  -8.473  22.511  0.00  0.00    +0.155 HD
BRANCH  14  15
ATOM     15  C   UNL     1      19.124  -7.011  24.210  0.00  0.00    +0.037 A 
ATOM     16  C   UNL     1      18.450  -6.448  23.038  0.00  0.00    +0.013 A 
ATOM     17  C   UNL     1      17.040  -6.152  23.086  0.00  0.00    +0.005 A 
ATOM     18  C   UNL     1      16.294  -6.421  24.313  0.00  0.00    -0.033 A 
ATOM     28  C   UNL     1      16.987  -6.985  25.460  0.00  0.00    +0.005 A 
ATOM     29  C   UNL     1      18.369  -7.276  25.416  0.00  0.00    +0.013 A 
BRANCH  18  19
ATOM     19  C   UNL     1      14.792  -6.117  24.462  0.00  0.00    +0.119 C 
BRANCH  19  20
ATOM     20  N   UNL     1      14.351  -5.447  25.722  0.00  0.00    -0.302 NA
ATOM     21  C   UNL     1      12.826  -5.352  25.819  0.00  0.00    +0.066 C 
ATOM     22  C   UNL     1      12.382  -4.668  27.153  0.00  0.00    -0.064 C 
ATOM     23  N   UNL     1      13.019  -3.281  27.249  0.00  0.00    +0.379 N 
ATOM     24  C   UNL     1      12.557  -2.613  28.475  0.00  0.00    -0.096 C 
ATOM     25  H   UNL     1      12.657  -2.683  26.381  0.00  0.00    -0.082 HD
ATOM     26  C   UNL     1      14.535  -3.366  27.151  0.00  0.00    -0.064 C 
ATOM     27  C   UNL     1      14.965  -4.073  25.835  0.00  0.00    +0.066 C 
ENDBRANCH  19  20
ENDBRANCH  18  19
ENDBRANCH  14  15
ENDBRANCH  12  13
TORSDOF 6
ENDMDL
