MODEL 1
REMARK VINA RESULT:      -9.3      0.000      0.000
REMARK  Name = C:\Users\Docking\Desktop\test protocol\1iep_ligandH.pdb
REMARK  8 active torsions:
REMARK  status: ('A' for Active; 'I' for Inactive)
REMARK    1  A    between atoms: _5  and  _11
REMARK    2  A    between atoms: _19  and  _21
REMARK    3  A    between atoms: _22  and  _66
REMARK    4  A    between atoms: _27  and  _30
REMARK    5  A    between atoms: _32  and  _33
REMARK    6  A    between atoms: _38  and  _43
REMARK    7  A    between atoms: _43  and  _46
REMARK    8  A    between atoms: _53  and  _55
REMARK                            x       y       z     vdW  Elec       q    Type
REMARK                         _______ _______ _______ _____ _____    ______ ____
ROOT
ATOM     10  C   UNL     1      21.245 -10.383 -12.204  0.00  0.00    +0.038 A 
ATOM     11  C   UNL     1      20.585  -9.379 -11.451  0.00  0.00    +0.047 A 
ATOM     12  C   UNL     1      20.849  -7.968 -11.686  0.00  0.00    +0.035 A 
ATOM     32  C   UNL     1      21.789  -7.615 -12.697  0.00  0.00    +0.024 A 
ATOM     33  C   UNL     1      22.469  -8.623 -13.472  0.00  0.00    +0.007 A 
ATOM     34  C   UNL     1      22.215 -10.017 -13.243  0.00  0.00    -0.029 A 
ATOM     35  C   UNL     1      22.978 -11.055 -14.098  0.00  0.00    +0.045 C 
ENDROOT
BRANCH  10   9
ATOM      4  C   UNL     1      18.150 -13.991 -11.540  0.00  0.00    +0.077 A 
ATOM      5  C   UNL     1      17.016 -13.129 -11.714  0.00  0.00    +0.048 A 
ATOM      6  C   UNL     1      17.273 -11.762 -11.965  0.00  0.00    +0.116 A 
ATOM      7  N   UNL     1      18.570 -11.303 -12.036  0.00  0.00    -0.223 NA
ATOM      8  C   UNL     1      19.641 -12.161 -11.862  0.00  0.00    +0.220 A 
ATOM      9  N   UNL     1      20.954 -11.723 -11.937  0.00  0.00    -0.283 N 
ATOM     36  H   UNL     1      21.716 -12.386 -11.796  0.00  0.00    +0.155 HD
ATOM     37  N   UNL     1      19.422 -13.471 -11.619  0.00  0.00    -0.214 NA
BRANCH   4   3
ATOM      1  C   UNL     1      18.912 -17.825 -11.390  0.00  0.00    +0.020 A 
ATOM      2  C   UNL     1      19.065 -16.417 -11.674  0.00  0.00    +0.013 A 
ATOM      3  C   UNL     1      18.042 -15.460 -11.271  0.00  0.00    +0.019 A 
ATOM     38  C   UNL     1      16.866 -15.965 -10.577  0.00  0.00    +0.120 A 
ATOM     39  N   UNL     1      16.746 -17.327 -10.319  0.00  0.00    -0.263 NA
ATOM     40  C   UNL     1      17.723 -18.257 -10.703  0.00  0.00    +0.111 A 
ENDBRANCH   4   3
ENDBRANCH  10   9
BRANCH  12  13
ATOM     13  N   UNL     1      20.216  -6.903 -10.947  0.00  0.00    -0.281 N 
ATOM     14  C   UNL     1      20.101  -5.570 -11.304  0.00  0.00    +0.248 C 
ATOM     30  O   UNL     1      20.717  -5.044 -12.219  0.00  0.00    -0.270 OA
ATOM     31  H   UNL     1      19.801  -7.165 -10.052  0.00  0.00    +0.155 HD
BRANCH  14  15
ATOM     15  C   UNL     1      19.181  -4.689 -10.522  0.00  0.00    +0.037 A 
ATOM     16  C   UNL     1      18.856  -4.981  -9.123  0.00  0.00    +0.013 A 
ATOM     17  C   UNL     1      17.952  -4.125  -8.397  0.00  0.00    +0.005 A 
ATOM     18  C   UNL     1      17.368  -2.967  -9.068  0.00  0.00    -0.033 A 
ATOM     28  C   UNL     1      17.711  -2.698 -10.455  0.00  0.00    +0.005 A 
ATOM     29  C   UNL     1      18.596  -3.535 -11.170  0.00  0.00    +0.013 A 
BRANCH  18  19
ATOM     19  C   UNL     1      16.377  -2.011  -8.377  0.00  0.00    +0.119 C 
BRANCH  19  20
ATOM     20  N   UNL     1      15.334  -1.372  -9.233  0.00  0.00    -0.302 NA
ATOM     21  C   UNL     1      15.479   0.152  -9.274  0.00  0.00    +0.066 C 
ATOM     22  C   UNL     1      14.393   0.803 -10.192  0.00  0.00    -0.064 C 
ATOM     23  N   UNL     1      13.003   0.405  -9.694  0.00  0.00    +0.379 N 
ATOM     24  C   UNL     1      11.979   1.062 -10.519  0.00  0.00    -0.096 C 
ATOM     25  H   UNL     1      12.895   0.787  -8.652  0.00  0.00    -0.082 HD
ATOM     26  C   UNL     1      12.851  -1.109  -9.647  0.00  0.00    -0.064 C 
ATOM     27  C   UNL     1      13.952  -1.748  -8.756  0.00  0.00    +0.066 C 
ENDBRANCH  19  20
ENDBRANCH  18  19
ENDBRANCH  14  15
ENDBRANCH  12  13
TORSDOF 6
ENDMDL
MODEL 2
REMARK VINA RESULT:      -9.3      7.017      9.993
REMARK  Name = C:\Users\Docking\Desktop\test protocol\1iep_ligandH.pdb
REMARK  8 active torsions:
REMARK  status: ('A' for Active; 'I' for Inactive)
REMARK    1  A    between atoms: _5  and  _11
REMARK    2  A    between atoms: _19  and  _21
REMARK    3  A    between atoms: _22  and  _66
REMARK    4  A    between atoms: _27  and  _30
REMARK    5  A    between atoms: _32  and  _33
REMARK    6  A    between atoms: _38  and  _43
REMARK    7  A    between atoms: _43  and  _46
REMARK    8  A    between atoms: _53  and  _55
REMARK                            x       y       z     vdW  Elec       q    Type
REMARK                         _______ _______ _______ _____ _____    ______ ____
ROOT
ATOM     10  C   UNL     1      24.086 -11.174 -14.512  0.00  0.00    +0.038 A 
ATOM     11  C   UNL     1      23.079 -11.867 -13.793  0.00  0.00    +0.047 A 
ATOM     12  C   UNL     1      22.131 -11.155 -12.950  0.00  0.00    +0.035 A 
ATOM     32  C   UNL     1      22.236  -9.736 -12.865  0.00  0.00    +0.024 A 
ATOM     33  C   UNL     1      23.254  -9.016 -13.589  0.00  0.00    +0.007 A 
ATOM     34  C   UNL     1      24.193  -9.713 -14.420  0.00  0.00    -0.029 A 
ATOM     35  C   UNL     1      25.268  -8.890 -15.168  0.00  0.00    +0.045 C 
ENDROOT
BRANCH  10   9
ATOM      4  C   UNL     1      27.887 -14.052 -15.067  0.00  0.00    +0.077 A 
ATOM      5  C   UNL     1      28.151 -14.073 -13.657  0.00  0.00    +0.048 A 
ATOM      6  C   UNL     1      27.289 -13.325 -12.824  0.00  0.00    +0.116 A 
ATOM      7  N   UNL     1      26.245 -12.612 -13.371  0.00  0.00    -0.223 NA
ATOM      8  C   UNL     1      26.019 -12.611 -14.736  0.00  0.00    +0.220 A 
ATOM      9  N   UNL     1      24.970 -11.908 -15.307  0.00  0.00    -0.283 N 
ATOM     36  H   UNL     1      24.841 -11.927 -16.318  0.00  0.00    +0.155 HD
ATOM     37  N   UNL     1      26.829 -13.317 -15.552  0.00  0.00    -0.214 NA
BRANCH   4   3
ATOM      1  C   UNL     1      29.104 -15.723 -18.387  0.00  0.00    +0.020 A 
ATOM      2  C   UNL     1      28.274 -14.999 -17.452  0.00  0.00    +0.013 A 
ATOM      3  C   UNL     1      28.707 -14.795 -16.076  0.00  0.00    +0.019 A 
ATOM     38  C   UNL     1      29.994 -15.341 -15.674  0.00  0.00    +0.120 A 
ATOM     39  N   UNL     1      30.771 -16.036 -16.596  0.00  0.00    -0.263 NA
ATOM     40  C   UNL     1      30.364 -16.240 -17.923  0.00  0.00    +0.111 A 
ENDBRANCH   4   3
ENDBRANCH  10   9
BRANCH  12  13
ATOM     13  N   UNL     1      21.093 -11.806 -12.190  0.00  0.00    -0.281 N 
ATOM     14  C   UNL     1      21.154 -12.264 -10.884  0.00  0.00    +0.248 C 
ATOM     30  O   UNL     1      22.185 -12.377 -10.238  0.00  0.00    -0.270 OA
ATOM     31  H   UNL     1      20.205 -11.945 -12.673  0.00  0.00    +0.155 HD
BRANCH  14  15
ATOM     15  C   UNL     1      19.887 -12.670 -10.202  0.00  0.00    +0.037 A 
ATOM     16  C   UNL     1      18.711 -11.797 -10.201  0.00  0.00    +0.013 A 
ATOM     17  C   UNL     1      17.507 -12.205  -9.521  0.00  0.00    +0.005 A 
ATOM     18  C   UNL     1      17.475 -13.495  -8.836  0.00  0.00    -0.033 A 
ATOM     28  C   UNL     1      18.654 -14.344  -8.857  0.00  0.00    +0.005 A 
ATOM     29  C   UNL     1      19.836 -13.947  -9.522  0.00  0.00    +0.013 A 
BRANCH  18  19
ATOM     19  C   UNL     1      16.241 -14.003  -8.067  0.00  0.00    +0.119 C 
BRANCH  19  20
ATOM     20  N   UNL     1      15.598 -13.058  -7.105  0.00  0.00    -0.302 NA
ATOM     21  C   UNL     1      15.953 -13.387  -5.652  0.00  0.00    +0.066 C 
ATOM     22  C   UNL     1      15.291 -12.376  -4.661  0.00  0.00    -0.064 C 
ATOM     23  N   UNL     1      13.774 -12.385  -4.864  0.00  0.00    +0.379 N 
ATOM     24  C   UNL     1      13.144 -11.477  -3.895  0.00  0.00    -0.096 C 
ATOM     25  H   UNL     1      13.411 -13.416  -4.649  0.00  0.00    -0.082 HD
ATOM     26  C   UNL     1      13.413 -12.061  -6.307  0.00  0.00    -0.064 C 
ATOM     27  C   UNL     1      14.100 -13.054  -7.285  0.00  0.00    +0.066 C 
ENDBRANCH  19  20
ENDBRANCH  18  19
ENDBRANCH  14  15
ENDBRANCH  12  13
TORSDOF 6
ENDMDL
MODEL 3
REMARK VINA RESULT:      -9.2      6.360      9.973
REMARK  Name = C:\Users\Docking\Desktop\test protocol\1iep_ligandH.pdb
REMARK  8 active torsions:
REMARK  status: ('A' for Active; 'I' for Inactive)
REMARK    1  A    between atoms: _5  and  _11
REMARK    2  A    between atoms: _19  and  _21
REMARK    3  A    between atoms: _22  and  _66
REMARK    4  A    between atoms: _27  and  _30
REMARK    5  A    between atoms: _32  and  _33
REMARK    6  A    between atoms: _38  and  _43
REMARK    7  A    between atoms: _43  and  _46
REMARK    8  A    between atoms: _53  and  _55
REMARK                            x       y       z     vdW  Elec       q    Type
REMARK                         _______ _______ _______ _____ _____    ______ ____
ROOT
ATOM     10  C   UNL     1      19.820 -11.993 -11.383  0.00  0.00    +0.038 A 
ATOM     11  C   UNL     1      18.777 -11.667 -10.480  0.00  0.00    +0.047 A 
ATOM     12  C   UNL     1      18.336 -12.613  -9.466  0.00  0.00    +0.035 A 
ATOM     32  C   UNL     1      18.983 -13.881  -9.399  0.00  0.00    +0.024 A 
ATOM     33  C   UNL     1      20.044 -14.230 -10.310  0.00  0.00    +0.007 A 
ATOM     34  C   UNL     1      20.481 -13.302 -11.314  0.00  0.00    -0.029 A 
ATOM     35  C   UNL     1      21.620 -13.731 -12.268  0.00  0.00    +0.045 C 
ENDROOT
BRANCH  10   9
ATOM      4  C   UNL     1      22.384  -8.180 -12.771  0.00  0.00    +0.077 A 
ATOM      5  C   UNL     1      22.993  -8.045 -11.478  0.00  0.00    +0.048 A 
ATOM      6  C   UNL     1      22.613  -8.972 -10.482  0.00  0.00    +0.116 A 
ATOM      7  N   UNL     1      21.693  -9.958 -10.768  0.00  0.00    -0.223 NA
ATOM      8  C   UNL     1      21.124 -10.059 -12.025  0.00  0.00    +0.220 A 
ATOM      9  N   UNL     1      20.203 -11.047 -12.337  0.00  0.00    -0.283 N 
ATOM     36  H   UNL     1      19.801 -11.084 -13.273  0.00  0.00    +0.155 HD
ATOM     37  N   UNL     1      21.469  -9.185 -12.993  0.00  0.00    -0.214 NA
BRANCH   4   3
ATOM      1  C   UNL     1      22.273  -5.218 -15.322  0.00  0.00    +0.020 A 
ATOM      2  C   UNL     1      21.942  -6.053 -14.191  0.00  0.00    +0.013 A 
ATOM      3  C   UNL     1      22.685  -7.279 -13.928  0.00  0.00    +0.019 A 
ATOM     38  C   UNL     1      23.766  -7.633 -14.835  0.00  0.00    +0.120 A 
ATOM     39  N   UNL     1      24.061  -6.810 -15.917  0.00  0.00    -0.263 NA
ATOM     40  C   UNL     1      23.352  -5.629 -16.181  0.00  0.00    +0.111 A 
ENDBRANCH   4   3
ENDBRANCH  10   9
BRANCH  12  13
ATOM     13  N   UNL     1      17.277 -12.340  -8.527  0.00  0.00    -0.281 N 
ATOM     14  C   UNL     1      16.070 -13.006  -8.387  0.00  0.00    +0.248 C 
ATOM     30  O   UNL     1      15.626 -13.808  -9.196  0.00  0.00    -0.270 OA
ATOM     31  H   UNL     1      17.435 -11.562  -7.887  0.00  0.00    +0.155 HD
BRANCH  14  15
ATOM     15  C   UNL     1      15.229 -12.732  -7.183  0.00  0.00    +0.037 A 
ATOM     16  C   UNL     1      15.808 -12.726  -5.837  0.00  0.00    +0.013 A 
ATOM     17  C   UNL     1      14.970 -12.475  -4.691  0.00  0.00    +0.005 A 
ATOM     18  C   UNL     1      13.544 -12.227  -4.886  0.00  0.00    -0.033 A 
ATOM     28  C   UNL     1      12.997 -12.234  -6.233  0.00  0.00    +0.005 A 
ATOM     29  C   UNL     1      13.814 -12.480  -7.359  0.00  0.00    +0.013 A 
BRANCH  18  19
ATOM     19  C   UNL     1      12.572 -11.971  -3.719  0.00  0.00    +0.119 C 
BRANCH  19  20
ATOM     20  N   UNL     1      11.111 -12.090  -4.008  0.00  0.00    -0.302 NA
ATOM     21  C   UNL     1      10.449 -10.722  -4.194  0.00  0.00    +0.066 C 
ATOM     22  C   UNL     1       8.926 -10.866  -4.517  0.00  0.00    -0.064 C 
ATOM     23  N   UNL     1       8.242 -11.651  -3.396  0.00  0.00    +0.379 N 
ATOM     24  C   UNL     1       6.800 -11.738  -3.668  0.00  0.00    -0.096 C 
ATOM     25  H   UNL     1       8.374 -11.075  -2.451  0.00  0.00    -0.082 HD
ATOM     26  C   UNL     1       8.896 -13.012  -3.203  0.00  0.00    -0.064 C 
ATOM     27  C   UNL     1      10.415 -12.859  -2.911  0.00  0.00    +0.066 C 
ENDBRANCH  19  20
ENDBRANCH  18  19
ENDBRANCH  14  15
ENDBRANCH  12  13
TORSDOF 6
ENDMDL
MODEL 4
REMARK VINA RESULT:      -9.2      7.452      9.218
REMARK  Name = C:\Users\Docking\Desktop\test protocol\1iep_ligandH.pdb
REMARK  8 active torsions:
REMARK  status: ('A' for Active; 'I' for Inactive)
REMARK    1  A    between atoms: _5  and  _11
REMARK    2  A    between atoms: _19  and  _21
REMARK    3  A    between atoms: _22  and  _66
REMARK    4  A    between atoms: _27  and  _30
REMARK    5  A    between atoms: _32  and  _33
REMARK    6  A    between atoms: _38  and  _43
REMARK    7  A    between atoms: _43  and  _46
REMARK    8  A    between atoms: _53  and  _55
REMARK                            x       y       z     vdW  Elec       q    Type
REMARK                         _______ _______ _______ _____ _____    ______ ____
ROOT
ATOM     10  C   UNL     1      17.701 -13.666 -12.597  0.00  0.00    +0.038 A 
ATOM     11  C   UNL     1      16.790 -13.625 -11.511  0.00  0.00    +0.047 A 
ATOM     12  C   UNL     1      17.059 -12.815 -10.333  0.00  0.00    +0.035 A 
ATOM     32  C   UNL     1      18.265 -12.056 -10.296  0.00  0.00    +0.024 A 
ATOM     33  C   UNL     1      19.202 -12.086 -11.391  0.00  0.00    +0.007 A 
ATOM     34  C   UNL     1      18.944 -12.886 -12.554  0.00  0.00    -0.029 A 
ATOM     35  C   UNL     1      19.988 -12.885 -13.695  0.00  0.00    +0.045 C 
ENDROOT
BRANCH  10   9
ATOM      4  C   UNL     1      15.597 -14.361 -16.854  0.00  0.00    +0.077 A 
ATOM      5  C   UNL     1      15.043 -13.038 -16.863  0.00  0.00    +0.048 A 
ATOM      6  C   UNL     1      15.317 -12.212 -15.750  0.00  0.00    +0.116 A 
ATOM      7  N   UNL     1      16.089 -12.685 -14.711  0.00  0.00    -0.223 NA
ATOM      8  C   UNL     1      16.607 -13.967 -14.733  0.00  0.00    +0.220 A 
ATOM      9  N   UNL     1      17.393 -14.461 -13.703  0.00  0.00    -0.283 N 
ATOM     36  H   UNL     1      17.750 -15.414 -13.754  0.00  0.00    +0.155 HD
ATOM     37  N   UNL     1      16.358 -14.776 -15.784  0.00  0.00    -0.214 NA
BRANCH   4   3
ATOM      1  C   UNL     1      15.110 -15.959 -20.391  0.00  0.00    +0.020 A 
ATOM      2  C   UNL     1      15.301 -14.964 -19.362  0.00  0.00    +0.013 A 
ATOM      3  C   UNL     1      15.399 -15.351 -17.960  0.00  0.00    +0.019 A 
ATOM     38  C   UNL     1      15.300 -16.765 -17.631  0.00  0.00    +0.120 A 
ATOM     39  N   UNL     1      15.115 -17.701 -18.644  0.00  0.00    -0.263 NA
ATOM     40  C   UNL     1      15.017 -17.340 -19.996  0.00  0.00    +0.111 A 
ENDBRANCH   4   3
ENDBRANCH  10   9
BRANCH  12  13
ATOM     13  N   UNL     1      16.175 -12.741  -9.196  0.00  0.00    -0.281 N 
ATOM     14  C   UNL     1      16.390 -13.227  -7.917  0.00  0.00    +0.248 C 
ATOM     30  O   UNL     1      17.292 -13.992  -7.611  0.00  0.00    -0.270 OA
ATOM     31  H   UNL     1      15.282 -12.273  -9.354  0.00  0.00    +0.155 HD
BRANCH  14  15
ATOM     15  C   UNL     1      15.459 -12.815  -6.822  0.00  0.00    +0.037 A 
ATOM     16  C   UNL     1      15.903 -12.765  -5.427  0.00  0.00    +0.013 A 
ATOM     17  C   UNL     1      14.980 -12.381  -4.388  0.00  0.00    +0.005 A 
ATOM     18  C   UNL     1      13.604 -12.041  -4.742  0.00  0.00    -0.033 A 
ATOM     28  C   UNL     1      13.192 -12.094  -6.135  0.00  0.00    +0.005 A 
ATOM     29  C   UNL     1      14.093 -12.471  -7.155  0.00  0.00    +0.013 A 
BRANCH  18  19
ATOM     19  C   UNL     1      12.546 -11.641  -3.697  0.00  0.00    +0.119 C 
BRANCH  19  20
ATOM     20  N   UNL     1      11.116 -11.899  -4.038  0.00  0.00    -0.302 NA
ATOM     21  C   UNL     1      10.353 -10.605  -4.335  0.00  0.00    +0.066 C 
ATOM     22  C   UNL     1       8.864 -10.895  -4.712  0.00  0.00    -0.064 C 
ATOM     23  N   UNL     1       8.194 -11.670  -3.575  0.00  0.00    +0.379 N 
ATOM     24  C   UNL     1       6.779 -11.894  -3.902  0.00  0.00    -0.096 C 
ATOM     25  H   UNL     1       8.234 -11.032  -2.662  0.00  0.00    -0.082 HD
ATOM     26  C   UNL     1       8.948 -12.957  -3.272  0.00  0.00    -0.064 C 
ATOM     27  C   UNL     1      10.434 -12.660  -2.927  0.00  0.00    +0.066 C 
ENDBRANCH  19  20
ENDBRANCH  18  19
ENDBRANCH  14  15
ENDBRANCH  12  13
TORSDOF 6
ENDMDL
MODEL 5
REMARK VINA RESULT:      -9.0      6.377      9.703
REMARK  Name = C:\Users\Docking\Desktop\test protocol\1iep_ligandH.pdb
REMARK  8 active torsions:
REMARK  status: ('A' for Active; 'I' for Inactive)
REMARK    1  A    between atoms: _5  and  _11
REMARK    2  A    between atoms: _19  and  _21
REMARK    3  A    between atoms: _22  and  _66
REMARK    4  A    between atoms: _27  and  _30
REMARK    5  A    between atoms: _32  and  _33
REMARK    6  A    between atoms: _38  and  _43
REMARK    7  A    between atoms: _43  and  _46
REMARK    8  A    between atoms: _53  and  _55
REMARK                            x       y       z     vdW  Elec       q    Type
REMARK                         _______ _______ _______ _____ _____    ______ ____
ROOT
ATOM     10  C   UNL     1      20.028 -13.351 -12.772  0.00  0.00    +0.038 A 
ATOM     11  C   UNL     1      19.233 -13.238 -11.603  0.00  0.00    +0.047 A 
ATOM     12  C   UNL     1      18.775 -14.419 -10.888  0.00  0.00    +0.035 A 
ATOM     32  C   UNL     1      19.149 -15.700 -11.389  0.00  0.00    +0.024 A 
ATOM     33  C   UNL     1      19.956 -15.833 -12.577  0.00  0.00    +0.007 A 
ATOM     34  C   UNL     1      20.408 -14.671 -13.288  0.00  0.00    -0.029 A 
ATOM     35  C   UNL     1      21.265 -14.874 -14.559  0.00  0.00    +0.045 C 
ENDROOT
BRANCH  10   9
ATOM      4  C   UNL     1      22.366  -9.160 -12.862  0.00  0.00    +0.077 A 
ATOM      5  C   UNL     1      22.781  -9.294 -11.496  0.00  0.00    +0.048 A 
ATOM      6  C   UNL     1      22.365 -10.453 -10.802  0.00  0.00    +0.116 A 
ATOM      7  N   UNL     1      21.593 -11.401 -11.439  0.00  0.00    -0.223 NA
ATOM      8  C   UNL     1      21.209 -11.240 -12.757  0.00  0.00    +0.220 A 
ATOM      9  N   UNL     1      20.440 -12.183 -13.420  0.00  0.00    -0.283 N 
ATOM     36  H   UNL     1      20.171 -12.024 -14.390  0.00  0.00    +0.155 HD
ATOM     37  N   UNL     1      21.592 -10.141 -13.441  0.00  0.00    -0.214 NA
BRANCH   4   3
ATOM      1  C   UNL     1      23.181  -5.540 -14.099  0.00  0.00    +0.020 A 
ATOM      2  C   UNL     1      22.828  -6.631 -13.221  0.00  0.00    +0.013 A 
ATOM      3  C   UNL     1      22.728  -7.993 -13.728  0.00  0.00    +0.019 A 
ATOM     38  C   UNL     1      22.996  -8.220 -15.141  0.00  0.00    +0.120 A 
ATOM     39  N   UNL     1      23.333  -7.149 -15.963  0.00  0.00    -0.263 NA
ATOM     40  C   UNL     1      23.430  -5.834 -15.486  0.00  0.00    +0.111 A 
ENDBRANCH   4   3
ENDBRANCH  10   9
BRANCH  12  13
ATOM     13  N   UNL     1      17.959 -14.366  -9.700  0.00  0.00    -0.281 N 
ATOM     14  C   UNL     1      18.149 -13.588  -8.570  0.00  0.00    +0.248 C 
ATOM     30  O   UNL     1      19.174 -12.973  -8.319  0.00  0.00    -0.270 OA
ATOM     31  H   UNL     1      17.142 -14.977  -9.692  0.00  0.00    +0.155 HD
BRANCH  14  15
ATOM     15  C   UNL     1      17.046 -13.492  -7.566  0.00  0.00    +0.037 A 
ATOM     16  C   UNL     1      17.182 -12.665  -6.364  0.00  0.00    +0.013 A 
ATOM     17  C   UNL     1      16.109 -12.604  -5.403  0.00  0.00    +0.005 A 
ATOM     18  C   UNL     1      14.889 -13.371  -5.642  0.00  0.00    -0.033 A 
ATOM     28  C   UNL     1      14.778 -14.179  -6.845  0.00  0.00    +0.005 A 
ATOM     29  C   UNL     1      15.828 -14.242  -7.788  0.00  0.00    +0.013 A 
BRANCH  18  19
ATOM     19  C   UNL     1      13.702 -13.381  -4.660  0.00  0.00    +0.119 C 
BRANCH  19  20
ATOM     20  N   UNL     1      12.535 -12.509  -4.989  0.00  0.00    -0.302 NA
ATOM     21  C   UNL     1      12.148 -11.602  -3.818  0.00  0.00    +0.066 C 
ATOM     22  C   UNL     1      10.940 -10.681  -4.187  0.00  0.00    -0.064 C 
ATOM     23  N   UNL     1       9.754 -11.546  -4.617  0.00  0.00    +0.379 N 
ATOM     24  C   UNL     1       8.599 -10.686  -4.909  0.00  0.00    -0.096 C 
ATOM     25  H   UNL     1       9.482 -12.198  -3.754  0.00  0.00    -0.082 HD
ATOM     26  C   UNL     1      10.132 -12.454  -5.779  0.00  0.00    -0.064 C 
ATOM     27  C   UNL     1      11.352 -13.344  -5.412  0.00  0.00    +0.066 C 
ENDBRANCH  19  20
ENDBRANCH  18  19
ENDBRANCH  14  15
ENDBRANCH  12  13
TORSDOF 6
ENDMDL
