MODEL 1
REMARK VINA RESULT:      -8.5      0.000      0.000
REMARK  Name = C:\Users\Docking\Desktop\test protocol\1iep_ligandH.pdb
REMARK  8 active torsions:
REMARK  status: ('A' for Active; 'I' for Inactive)
REMARK    1  A    between atoms: _5  and  _11
REMARK    2  A    between atoms: _19  and  _21
REMARK    3  A    between atoms: _22  and  _66
REMARK    4  A    between atoms: _27  and  _30
REMARK    5  A    between atoms: _32  and  _33
REMARK    6  A    between atoms: _38  and  _43
REMARK    7  A    between atoms: _43  and  _46
REMARK    8  A    between atoms: _53  and  _55
REMARK                            x       y       z     vdW  Elec       q    Type
REMARK                         _______ _______ _______ _____ _____    ______ ____
ROOT
ATOM     10  C   UNL     1       5.962 -37.639  -4.976  0.00  0.00    +0.038 A 
ATOM     11  C   UNL     1       7.109 -38.182  -4.342  0.00  0.00    +0.047 A 
ATOM     12  C   UNL     1       8.447 -37.896  -4.835  0.00  0.00    +0.035 A 
ATOM     32  C   UNL     1       8.581 -37.051  -5.974  0.00  0.00    +0.024 A 
ATOM     33  C   UNL     1       7.426 -36.491  -6.632  0.00  0.00    +0.007 A 
ATOM     34  C   UNL     1       6.103 -36.772  -6.152  0.00  0.00    -0.029 A 
ATOM     35  C   UNL     1       4.901 -36.150  -6.900  0.00  0.00    +0.045 C 
ENDROOT
BRANCH  10   9
ATOM      4  C   UNL     1       2.079 -40.445  -4.682  0.00  0.00    +0.077 A 
ATOM      5  C   UNL     1       2.595 -41.362  -5.658  0.00  0.00    +0.048 A 
ATOM      6  C   UNL     1       3.859 -41.071  -6.216  0.00  0.00    +0.116 A 
ATOM      7  N   UNL     1       4.549 -39.945  -5.821  0.00  0.00    -0.223 NA
ATOM      8  C   UNL     1       4.022 -39.081  -4.879  0.00  0.00    +0.220 A 
ATOM      9  N   UNL     1       4.701 -37.947  -4.461  0.00  0.00    -0.283 N 
ATOM     36  H   UNL     1       4.275 -37.331  -3.769  0.00  0.00    +0.155 HD
ATOM     37  N   UNL     1       2.815 -39.335  -4.332  0.00  0.00    -0.214 NA
BRANCH   4   3
ATOM      1  C   UNL     1      -1.488 -41.732  -3.723  0.00  0.00    +0.020 A 
ATOM      2  C   UNL     1      -0.228 -41.606  -4.417  0.00  0.00    +0.013 A 
ATOM      3  C   UNL     1       0.758 -40.617  -3.999  0.00  0.00    +0.019 A 
ATOM     38  C   UNL     1       0.434 -39.764  -2.865  0.00  0.00    +0.120 A 
ATOM     39  N   UNL     1      -0.789 -39.907  -2.217  0.00  0.00    -0.263 NA
ATOM     40  C   UNL     1      -1.745 -40.854  -2.612  0.00  0.00    +0.111 A 
ENDBRANCH   4   3
ENDBRANCH  10   9
BRANCH  12  13
ATOM     13  N   UNL     1       9.648 -38.425  -4.237  0.00  0.00    -0.281 N 
ATOM     14  C   UNL     1      10.179 -39.697  -4.374  0.00  0.00    +0.248 C 
ATOM     30  O   UNL     1       9.583 -40.645  -4.864  0.00  0.00    -0.270 OA
ATOM     31  H   UNL     1      10.171 -37.783  -3.640  0.00  0.00    +0.155 HD
BRANCH  14  15
ATOM     15  C   UNL     1      11.566 -39.958  -3.883  0.00  0.00    +0.037 A 
ATOM     16  C   UNL     1      11.881 -41.152  -3.094  0.00  0.00    +0.013 A 
ATOM     17  C   UNL     1      13.224 -41.371  -2.618  0.00  0.00    +0.005 A 
ATOM     18  C   UNL     1      14.263 -40.393  -2.931  0.00  0.00    -0.033 A 
ATOM     28  C   UNL     1      13.924 -39.220  -3.720  0.00  0.00    +0.005 A 
ATOM     29  C   UNL     1      12.609 -39.002  -4.188  0.00  0.00    +0.013 A 
BRANCH  18  19
ATOM     19  C   UNL     1      15.718 -40.534  -2.447  0.00  0.00    +0.119 C 
BRANCH  19  20
ATOM     20  N   UNL     1      16.027 -40.065  -1.063  0.00  0.00    -0.302 NA
ATOM     21  C   UNL     1      17.529 -39.860  -0.848  0.00  0.00    +0.066 C 
ATOM     22  C   UNL     1      17.832 -39.347   0.597  0.00  0.00    -0.064 C 
ATOM     23  N   UNL     1      17.270 -40.340   1.616  0.00  0.00    +0.379 N 
ATOM     24  C   UNL     1      17.604 -39.890   2.975  0.00  0.00    -0.096 C 
ATOM     25  H   UNL     1      17.777 -41.319   1.449  0.00  0.00    -0.082 HD
ATOM     26  C   UNL     1      15.777 -40.552   1.407  0.00  0.00    -0.064 C 
ATOM     27  C   UNL     1      15.484 -41.033  -0.041  0.00  0.00    +0.066 C 
ENDBRANCH  19  20
ENDBRANCH  18  19
ENDBRANCH  14  15
ENDBRANCH  12  13
TORSDOF 6
ENDMDL
MODEL 2
REMARK VINA RESULT:      -8.5      1.553      2.298
REMARK  Name = C:\Users\Docking\Desktop\test protocol\1iep_ligandH.pdb
REMARK  8 active torsions:
REMARK  status: ('A' for Active; 'I' for Inactive)
REMARK    1  A    between atoms: _5  and  _11
REMARK    2  A    between atoms: _19  and  _21
REMARK    3  A    between atoms: _22  and  _66
REMARK    4  A    between atoms: _27  and  _30
REMARK    5  A    between atoms: _32  and  _33
REMARK    6  A    between atoms: _38  and  _43
REMARK    7  A    between atoms: _43  and  _46
REMARK    8  A    between atoms: _53  and  _55
REMARK                            x       y       z     vdW  Elec       q    Type
REMARK                         _______ _______ _______ _____ _____    ______ ____
ROOT
ATOM     10  C   UNL     1       7.971 -37.074  -5.345  0.00  0.00    +0.038 A 
ATOM     11  C   UNL     1       8.995 -37.703  -4.591  0.00  0.00    +0.047 A 
ATOM     12  C   UNL     1      10.379 -37.682  -5.038  0.00  0.00    +0.035 A 
ATOM     32  C   UNL     1      10.685 -37.009  -6.257  0.00  0.00    +0.024 A 
ATOM     33  C   UNL     1       9.656 -36.366  -7.036  0.00  0.00    +0.007 A 
ATOM     34  C   UNL     1       8.289 -36.385  -6.601  0.00  0.00    -0.029 A 
ATOM     35  C   UNL     1       7.227 -35.684  -7.480  0.00  0.00    +0.045 C 
ENDROOT
BRANCH  10   9
ATOM      4  C   UNL     1       4.094 -39.488  -3.869  0.00  0.00    +0.077 A 
ATOM      5  C   UNL     1       4.726 -40.756  -4.091  0.00  0.00    +0.048 A 
ATOM      6  C   UNL     1       6.047 -40.744  -4.592  0.00  0.00    +0.116 A 
ATOM      7  N   UNL     1       6.679 -39.546  -4.849  0.00  0.00    -0.223 NA
ATOM      8  C   UNL     1       6.040 -38.341  -4.625  0.00  0.00    +0.220 A 
ATOM      9  N   UNL     1       6.659 -37.124  -4.868  0.00  0.00    -0.283 N 
ATOM     36  H   UNL     1       6.151 -36.257  -4.698  0.00  0.00    +0.155 HD
ATOM     37  N   UNL     1       4.778 -38.326  -4.148  0.00  0.00    -0.214 NA
BRANCH   4   3
ATOM      1  C   UNL     1       0.195 -39.533  -3.549  0.00  0.00    +0.020 A 
ATOM      2  C   UNL     1       1.517 -39.699  -4.108  0.00  0.00    +0.013 A 
ATOM      3  C   UNL     1       2.701 -39.336  -3.339  0.00  0.00    +0.019 A 
ATOM     38  C   UNL     1       2.512 -38.805  -1.998  0.00  0.00    +0.120 A 
ATOM     39  N   UNL     1       1.226 -38.655  -1.487  0.00  0.00    -0.263 NA
ATOM     40  C   UNL     1       0.079 -38.999  -2.218  0.00  0.00    +0.111 A 
ENDBRANCH   4   3
ENDBRANCH  10   9
BRANCH  12  13
ATOM     13  N   UNL     1      11.459 -38.310  -4.319  0.00  0.00    -0.281 N 
ATOM     14  C   UNL     1      11.645 -39.659  -4.068  0.00  0.00    +0.248 C 
ATOM     30  O   UNL     1      10.792 -40.518  -4.241  0.00  0.00    -0.270 OA
ATOM     31  H   UNL     1      12.175 -37.683  -3.951  0.00  0.00    +0.155 HD
BRANCH  14  15
ATOM     15  C   UNL     1      12.962 -40.120  -3.534  0.00  0.00    +0.037 A 
ATOM     16  C   UNL     1      14.176 -39.318  -3.709  0.00  0.00    +0.013 A 
ATOM     17  C   UNL     1      15.437 -39.794  -3.198  0.00  0.00    +0.005 A 
ATOM     18  C   UNL     1      15.490 -41.080  -2.506  0.00  0.00    -0.033 A 
ATOM     28  C   UNL     1      14.270 -41.852  -2.341  0.00  0.00    +0.005 A 
ATOM     29  C   UNL     1      13.032 -41.389  -2.841  0.00  0.00    +0.013 A 
BRANCH  18  19
ATOM     19  C   UNL     1      16.796 -41.675  -1.947  0.00  0.00    +0.119 C 
BRANCH  19  20
ATOM     20  N   UNL     1      17.295 -41.131  -0.649  0.00  0.00    -0.302 NA
ATOM     21  C   UNL     1      16.150 -40.721   0.280  0.00  0.00    +0.066 C 
ATOM     22  C   UNL     1      16.690 -40.175   1.642  0.00  0.00    -0.064 C 
ATOM     23  N   UNL     1      17.625 -38.993   1.381  0.00  0.00    +0.379 N 
ATOM     24  C   UNL     1      18.088 -38.441   2.662  0.00  0.00    -0.096 C 
ATOM     25  H   UNL     1      17.033 -38.201   0.865  0.00  0.00    -0.082 HD
ATOM     26  C   UNL     1      18.765 -39.392   0.455  0.00  0.00    -0.064 C 
ATOM     27  C   UNL     1      18.218 -39.961  -0.884  0.00  0.00    +0.066 C 
ENDBRANCH  19  20
ENDBRANCH  18  19
ENDBRANCH  14  15
ENDBRANCH  12  13
TORSDOF 6
ENDMDL
MODEL 3
REMARK VINA RESULT:      -8.4      0.923      1.500
REMARK  Name = C:\Users\Docking\Desktop\test protocol\1iep_ligandH.pdb
REMARK  8 active torsions:
REMARK  status: ('A' for Active; 'I' for Inactive)
REMARK    1  A    between atoms: _5  and  _11
REMARK    2  A    between atoms: _19  and  _21
REMARK    3  A    between atoms: _22  and  _66
REMARK    4  A    between atoms: _27  and  _30
REMARK    5  A    between atoms: _32  and  _33
REMARK    6  A    between atoms: _38  and  _43
REMARK    7  A    between atoms: _43  and  _46
REMARK    8  A    between atoms: _53  and  _55
REMARK                            x       y       z     vdW  Elec       q    Type
REMARK                         _______ _______ _______ _____ _____    ______ ____
ROOT
ATOM     10  C   UNL     1       6.484 -37.175  -5.116  0.00  0.00    +0.038 A 
ATOM     11  C   UNL     1       7.654 -37.658  -4.477  0.00  0.00    +0.047 A 
ATOM     12  C   UNL     1       8.964 -37.511  -5.093  0.00  0.00    +0.035 A 
ATOM     32  C   UNL     1       9.045 -36.863  -6.360  0.00  0.00    +0.024 A 
ATOM     33  C   UNL     1       7.866 -36.366  -7.025  0.00  0.00    +0.007 A 
ATOM     34  C   UNL     1       6.571 -36.511  -6.423  0.00  0.00    -0.029 A 
ATOM     35  C   UNL     1       5.340 -35.965  -7.184  0.00  0.00    +0.045 C 
ENDROOT
BRANCH  10   9
ATOM      4  C   UNL     1       2.760 -39.876  -3.750  0.00  0.00    +0.077 A 
ATOM      5  C   UNL     1       3.300 -41.046  -4.381  0.00  0.00    +0.048 A 
ATOM      6  C   UNL     1       4.536 -40.908  -5.053  0.00  0.00    +0.116 A 
ATOM      7  N   UNL     1       5.174 -39.687  -5.085  0.00  0.00    -0.223 NA
ATOM      8  C   UNL     1       4.624 -38.579  -4.467  0.00  0.00    +0.220 A 
ATOM      9  N   UNL     1       5.253 -37.343  -4.480  0.00  0.00    -0.283 N 
ATOM     36  H   UNL     1       4.811 -36.548  -4.018  0.00  0.00    +0.155 HD
ATOM     37  N   UNL     1       3.445 -38.684  -3.820  0.00  0.00    -0.214 NA
BRANCH   4   3
ATOM      1  C   UNL     1      -0.076 -38.963  -1.215  0.00  0.00    +0.020 A 
ATOM      2  C   UNL     1       1.191 -38.935  -1.909  0.00  0.00    +0.013 A 
ATOM      3  C   UNL     1       1.465 -39.863  -2.998  0.00  0.00    +0.019 A 
ATOM     38  C   UNL     1       0.427 -40.814  -3.366  0.00  0.00    +0.120 A 
ATOM     39  N   UNL     1      -0.783 -40.819  -2.679  0.00  0.00    -0.263 NA
ATOM     40  C   UNL     1      -1.057 -39.932  -1.628  0.00  0.00    +0.111 A 
ENDBRANCH   4   3
ENDBRANCH  10   9
BRANCH  12  13
ATOM     13  N   UNL     1      10.186 -37.989  -4.496  0.00  0.00    -0.281 N 
ATOM     14  C   UNL     1      10.666 -39.288  -4.462  0.00  0.00    +0.248 C 
ATOM     30  O   UNL     1      10.009 -40.276  -4.758  0.00  0.00    -0.270 OA
ATOM     31  H   UNL     1      10.767 -37.285  -4.042  0.00  0.00    +0.155 HD
BRANCH  14  15
ATOM     15  C   UNL     1      12.075 -39.526  -4.024  0.00  0.00    +0.037 A 
ATOM     16  C   UNL     1      13.142 -38.575  -4.345  0.00  0.00    +0.013 A 
ATOM     17  C   UNL     1      14.495 -38.837  -3.925  0.00  0.00    +0.005 A 
ATOM     18  C   UNL     1      14.789 -40.057  -3.176  0.00  0.00    -0.033 A 
ATOM     28  C   UNL     1      13.710 -40.981  -2.866  0.00  0.00    +0.005 A 
ATOM     29  C   UNL     1      12.383 -40.728  -3.277  0.00  0.00    +0.013 A 
BRANCH  18  19
ATOM     19  C   UNL     1      16.208 -40.428  -2.705  0.00  0.00    +0.119 C 
BRANCH  19  20
ATOM     20  N   UNL     1      16.614 -39.982  -1.339  0.00  0.00    -0.302 NA
ATOM     21  C   UNL     1      18.128 -40.070  -1.132  0.00  0.00    +0.066 C 
ATOM     22  C   UNL     1      18.538 -39.578   0.294  0.00  0.00    -0.064 C 
ATOM     23  N   UNL     1      17.798 -40.405   1.347  0.00  0.00    +0.379 N 
ATOM     24  C   UNL     1      18.225 -39.984   2.690  0.00  0.00    -0.096 C 
ATOM     25  H   UNL     1      18.101 -41.470   1.215  0.00  0.00    -0.082 HD
ATOM     26  C   UNL     1      16.292 -40.325   1.147  0.00  0.00    -0.064 C 
ATOM     27  C   UNL     1      15.898 -40.788  -0.283  0.00  0.00    +0.066 C 
ENDBRANCH  19  20
ENDBRANCH  18  19
ENDBRANCH  14  15
ENDBRANCH  12  13
TORSDOF 6
ENDMDL
MODEL 4
REMARK VINA RESULT:      -8.4      2.244      3.188
REMARK  Name = C:\Users\Docking\Desktop\test protocol\1iep_ligandH.pdb
REMARK  8 active torsions:
REMARK  status: ('A' for Active; 'I' for Inactive)
REMARK    1  A    between atoms: _5  and  _11
REMARK    2  A    between atoms: _19  and  _21
REMARK    3  A    between atoms: _22  and  _66
REMARK    4  A    between atoms: _27  and  _30
REMARK    5  A    between atoms: _32  and  _33
REMARK    6  A    between atoms: _38  and  _43
REMARK    7  A    between atoms: _43  and  _46
REMARK    8  A    between atoms: _53  and  _55
REMARK                            x       y       z     vdW  Elec       q    Type
REMARK                         _______ _______ _______ _____ _____    ______ ____
ROOT
ATOM     10  C   UNL     1       7.141 -36.992  -5.242  0.00  0.00    +0.038 A 
ATOM     11  C   UNL     1       8.275 -37.497  -4.557  0.00  0.00    +0.047 A 
ATOM     12  C   UNL     1       9.601 -37.444  -5.153  0.00  0.00    +0.035 A 
ATOM     32  C   UNL     1       9.736 -36.866  -6.450  0.00  0.00    +0.024 A 
ATOM     33  C   UNL     1       8.593 -36.349  -7.161  0.00  0.00    +0.007 A 
ATOM     34  C   UNL     1       7.283 -36.401  -6.579  0.00  0.00    -0.029 A 
ATOM     35  C   UNL     1       6.093 -35.837  -7.390  0.00  0.00    +0.045 C 
ENDROOT
BRANCH  10   9
ATOM      4  C   UNL     1       3.355 -39.471  -3.643  0.00  0.00    +0.077 A 
ATOM      5  C   UNL     1       3.899 -40.715  -4.106  0.00  0.00    +0.048 A 
ATOM      6  C   UNL     1       5.153 -40.673  -4.757  0.00  0.00    +0.116 A 
ATOM      7  N   UNL     1       5.804 -39.470  -4.926  0.00  0.00    -0.223 NA
ATOM      8  C   UNL     1       5.251 -38.288  -4.470  0.00  0.00    +0.220 A 
ATOM      9  N   UNL     1       5.892 -37.069  -4.622  0.00  0.00    -0.283 N 
ATOM     36  H   UNL     1       5.447 -36.218  -4.278  0.00  0.00    +0.155 HD
ATOM     37  N   UNL     1       4.054 -38.302  -3.846  0.00  0.00    -0.214 NA
BRANCH   4   3
ATOM      1  C   UNL     1      -0.477 -39.465  -2.860  0.00  0.00    +0.020 A 
ATOM      2  C   UNL     1       0.763 -39.592  -3.590  0.00  0.00    +0.013 A 
ATOM      3  C   UNL     1       2.042 -39.352  -2.934  0.00  0.00    +0.019 A 
ATOM     38  C   UNL     1       2.032 -38.983  -1.526  0.00  0.00    +0.120 A 
ATOM     39  N   UNL     1       0.822 -38.867  -0.849  0.00  0.00    -0.263 NA
ATOM     40  C   UNL     1      -0.415 -39.093  -1.470  0.00  0.00    +0.111 A 
ENDBRANCH   4   3
ENDBRANCH  10   9
BRANCH  12  13
ATOM     13  N   UNL     1      10.788 -37.948  -4.509  0.00  0.00    -0.281 N 
ATOM     14  C   UNL     1      11.148 -39.270  -4.302  0.00  0.00    +0.248 C 
ATOM     30  O   UNL     1      10.398 -40.223  -4.451  0.00  0.00    -0.270 OA
ATOM     31  H   UNL     1      11.442 -37.246  -4.163  0.00  0.00    +0.155 HD
BRANCH  14  15
ATOM     15  C   UNL     1      12.539 -39.577  -3.849  0.00  0.00    +0.037 A 
ATOM     16  C   UNL     1      13.668 -38.724  -4.231  0.00  0.00    +0.013 A 
ATOM     17  C   UNL     1      15.002 -39.052  -3.795  0.00  0.00    +0.005 A 
ATOM     18  C   UNL     1      15.215 -40.239  -2.970  0.00  0.00    -0.033 A 
ATOM     28  C   UNL     1      14.076 -41.064  -2.602  0.00  0.00    +0.005 A 
ATOM     29  C   UNL     1      12.767 -40.746  -3.028  0.00  0.00    +0.013 A 
BRANCH  18  19
ATOM     19  C   UNL     1      16.607 -40.677  -2.478  0.00  0.00    +0.119 C 
BRANCH  19  20
ATOM     20  N   UNL     1      17.717 -40.675  -3.476  0.00  0.00    -0.302 NA
ATOM     21  C   UNL     1      17.934 -42.058  -4.097  0.00  0.00    +0.066 C 
ATOM     22  C   UNL     1      19.084 -42.033  -5.155  0.00  0.00    -0.064 C 
ATOM     23  N   UNL     1      20.369 -41.527  -4.496  0.00  0.00    +0.379 N 
ATOM     24  C   UNL     1      21.466 -41.557  -5.474  0.00  0.00    -0.096 C 
ATOM     25  H   UNL     1      20.628 -42.234  -3.675  0.00  0.00    -0.082 HD
ATOM     26  C   UNL     1      20.161 -40.153  -3.874  0.00  0.00    -0.064 C 
ATOM     27  C   UNL     1      18.997 -40.183  -2.846  0.00  0.00    +0.066 C 
ENDBRANCH  19  20
ENDBRANCH  18  19
ENDBRANCH  14  15
ENDBRANCH  12  13
TORSDOF 6
ENDMDL
MODEL 5
REMARK VINA RESULT:      -8.1      4.653     14.403
REMARK  Name = C:\Users\Docking\Desktop\test protocol\1iep_ligandH.pdb
REMARK  8 active torsions:
REMARK  status: ('A' for Active; 'I' for Inactive)
REMARK    1  A    between atoms: _5  and  _11
REMARK    2  A    between atoms: _19  and  _21
REMARK    3  A    between atoms: _22  and  _66
REMARK    4  A    between atoms: _27  and  _30
REMARK    5  A    between atoms: _32  and  _33
REMARK    6  A    between atoms: _38  and  _43
REMARK    7  A    between atoms: _43  and  _46
REMARK    8  A    between atoms: _53  and  _55
REMARK                            x       y       z     vdW  Elec       q    Type
REMARK                         _______ _______ _______ _____ _____    ______ ____
ROOT
ATOM     10  C   UNL     1       5.172 -38.617  -1.326  0.00  0.00    +0.038 A 
ATOM     11  C   UNL     1       3.938 -38.156  -1.854  0.00  0.00    +0.047 A 
ATOM     12  C   UNL     1       2.670 -38.648  -1.339  0.00  0.00    +0.035 A 
ATOM     32  C   UNL     1       2.694 -39.606  -0.284  0.00  0.00    +0.024 A 
ATOM     33  C   UNL     1       3.939 -40.085   0.264  0.00  0.00    +0.007 A 
ATOM     34  C   UNL     1       5.193 -39.606  -0.242  0.00  0.00    -0.029 A 
ATOM     35  C   UNL     1       6.497 -40.160   0.378  0.00  0.00    +0.045 C 
ENDROOT
BRANCH  10   9
ATOM      4  C   UNL     1       8.944 -38.898  -4.281  0.00  0.00    +0.077 A 
ATOM      5  C   UNL     1       8.525 -40.173  -4.789  0.00  0.00    +0.048 A 
ATOM      6  C   UNL     1       7.338 -40.725  -4.259  0.00  0.00    +0.116 A 
ATOM      7  N   UNL     1       6.629 -40.044  -3.293  0.00  0.00    -0.223 NA
ATOM      8  C   UNL     1       7.061 -38.817  -2.823  0.00  0.00    +0.220 A 
ATOM      9  N   UNL     1       6.360 -38.111  -1.858  0.00  0.00    -0.283 N 
ATOM     36  H   UNL     1       6.716 -37.213  -1.532  0.00  0.00    +0.155 HD
ATOM     37  N   UNL     1       8.193 -38.269  -3.313  0.00  0.00    -0.214 NA
BRANCH   4   3
ATOM      1  C   UNL     1      11.355 -36.403  -6.085  0.00  0.00    +0.020 A 
ATOM      2  C   UNL     1      10.137 -37.058  -5.669  0.00  0.00    +0.013 A 
ATOM      3  C   UNL     1      10.175 -38.184  -4.745  0.00  0.00    +0.019 A 
ATOM     38  C   UNL     1      11.472 -38.625  -4.255  0.00  0.00    +0.120 A 
ATOM     39  N   UNL     1      12.629 -37.975  -4.674  0.00  0.00    -0.263 NA
ATOM     40  C   UNL     1      12.605 -36.892  -5.565  0.00  0.00    +0.111 A 
ENDBRANCH   4   3
ENDBRANCH  10   9
BRANCH  12  13
ATOM     13  N   UNL     1       1.386 -38.223  -1.840  0.00  0.00    -0.281 N 
ATOM     14  C   UNL     1       0.491 -38.947  -2.610  0.00  0.00    +0.248 C 
ATOM     30  O   UNL     1       0.754 -40.003  -3.166  0.00  0.00    -0.270 OA
ATOM     31  H   UNL     1       1.104 -37.273  -1.599  0.00  0.00    +0.155 HD
BRANCH  14  15
ATOM     15  C   UNL     1      -0.893 -38.415  -2.801  0.00  0.00    +0.037 A 
ATOM     16  C   UNL     1      -1.983 -39.279  -3.260  0.00  0.00    +0.013 A 
ATOM     17  C   UNL     1      -3.304 -38.736  -3.452  0.00  0.00    +0.005 A 
ATOM     18  C   UNL     1      -3.542 -37.319  -3.185  0.00  0.00    -0.033 A 
ATOM     28  C   UNL     1      -2.444 -36.486  -2.726  0.00  0.00    +0.005 A 
ATOM     29  C   UNL     1      -1.147 -37.014  -2.537  0.00  0.00    +0.013 A 
BRANCH  18  19
ATOM     19  C   UNL     1      -4.915 -36.650  -3.384  0.00  0.00    +0.119 C 
BRANCH  19  20
ATOM     20  N   UNL     1      -5.380 -35.713  -2.318  0.00  0.00    -0.302 NA
ATOM     21  C   UNL     1      -5.768 -36.451  -1.033  0.00  0.00    +0.066 C 
ATOM     22  C   UNL     1      -6.230 -35.454   0.079  0.00  0.00    -0.064 C 
ATOM     23  N   UNL     1      -7.402 -34.621  -0.442  0.00  0.00    +0.379 N 
ATOM     24  C   UNL     1      -7.876 -33.723   0.621  0.00  0.00    -0.096 C 
ATOM     25  H   UNL     1      -8.233 -35.322  -0.688  0.00  0.00    -0.082 HD
ATOM     26  C   UNL     1      -7.025 -33.885  -1.721  0.00  0.00    -0.064 C 
ATOM     27  C   UNL     1      -6.540 -34.883  -2.809  0.00  0.00    +0.066 C 
ENDBRANCH  19  20
ENDBRANCH  18  19
ENDBRANCH  14  15
ENDBRANCH  12  13
TORSDOF 6
ENDMDL
