MODEL 1
REMARK VINA RESULT:      -8.7      0.000      0.000
REMARK  Name = C:\Users\Docking\Desktop\test protocol\1iep_ligandH.pdb
REMARK  8 active torsions:
REMARK  status: ('A' for Active; 'I' for Inactive)
REMARK    1  A    between atoms: _5  and  _11
REMARK    2  A    between atoms: _19  and  _21
REMARK    3  A    between atoms: _22  and  _66
REMARK    4  A    between atoms: _27  and  _30
REMARK    5  A    between atoms: _32  and  _33
REMARK    6  A    between atoms: _38  and  _43
REMARK    7  A    between atoms: _43  and  _46
REMARK    8  A    between atoms: _53  and  _55
REMARK                            x       y       z     vdW  Elec       q    Type
REMARK                         _______ _______ _______ _____ _____    ______ ____
ROOT
ATOM     10  C   UNL     1      14.566 -41.358  -1.170  0.00  0.00    +0.038 A 
ATOM     11  C   UNL     1      13.560 -40.528  -1.726  0.00  0.00    +0.047 A 
ATOM     12  C   UNL     1      12.462 -41.090  -2.496  0.00  0.00    +0.035 A 
ATOM     32  C   UNL     1      12.418 -42.503  -2.678  0.00  0.00    +0.024 A 
ATOM     33  C   UNL     1      13.433 -43.362  -2.121  0.00  0.00    +0.007 A 
ATOM     34  C   UNL     1      14.521 -42.813  -1.362  0.00  0.00    -0.029 A 
ATOM     35  C   UNL     1      15.584 -43.780  -0.793  0.00  0.00    +0.045 C 
ENDROOT
BRANCH  10   9
ATOM      4  C   UNL     1      16.427 -39.667   2.919  0.00  0.00    +0.077 A 
ATOM      5  C   UNL     1      15.232 -39.965   3.655  0.00  0.00    +0.048 A 
ATOM      6  C   UNL     1      14.160 -40.547   2.943  0.00  0.00    +0.116 A 
ATOM      7  N   UNL     1      14.284 -40.807   1.595  0.00  0.00    -0.223 NA
ATOM      8  C   UNL     1      15.449 -40.505   0.915  0.00  0.00    +0.220 A 
ATOM      9  N   UNL     1      15.598 -40.765  -0.439  0.00  0.00    -0.283 N 
ATOM     36  H   UNL     1      16.471 -40.520  -0.906  0.00  0.00    +0.155 HD
ATOM     37  N   UNL     1      16.487 -39.947   1.572  0.00  0.00    -0.214 NA
BRANCH   4   3
ATOM      1  C   UNL     1      19.515 -37.357   3.577  0.00  0.00    +0.020 A 
ATOM      2  C   UNL     1      18.340 -37.913   2.945  0.00  0.00    +0.013 A 
ATOM      3  C   UNL     1      17.647 -39.053   3.531  0.00  0.00    +0.019 A 
ATOM     38  C   UNL     1      18.173 -39.612   4.768  0.00  0.00    +0.120 A 
ATOM     39  N   UNL     1      19.307 -39.058   5.353  0.00  0.00    -0.263 NA
ATOM     40  C   UNL     1      19.983 -37.961   4.797  0.00  0.00    +0.111 A 
ENDBRANCH   4   3
ENDBRANCH  10   9
BRANCH  12  13
ATOM     13  N   UNL     1      11.415 -40.297  -3.092  0.00  0.00    -0.281 N 
ATOM     14  C   UNL     1      11.536 -39.329  -4.076  0.00  0.00    +0.248 C 
ATOM     30  O   UNL     1      12.596 -38.845  -4.443  0.00  0.00    -0.270 OA
ATOM     31  H   UNL     1      10.471 -40.469  -2.746  0.00  0.00    +0.155 HD
BRANCH  14  15
ATOM     15  C   UNL     1      10.298 -38.813  -4.736  0.00  0.00    +0.037 A 
ATOM     16  C   UNL     1      10.317 -37.580  -5.528  0.00  0.00    +0.013 A 
ATOM     17  C   UNL     1       9.106 -37.096  -6.141  0.00  0.00    +0.005 A 
ATOM     18  C   UNL     1       7.864 -37.845  -5.964  0.00  0.00    -0.033 A 
ATOM     28  C   UNL     1       7.875 -39.068  -5.178  0.00  0.00    +0.005 A 
ATOM     29  C   UNL     1       9.061 -39.545  -4.575  0.00  0.00    +0.013 A 
BRANCH  18  19
ATOM     19  C   UNL     1       6.521 -37.391  -6.564  0.00  0.00    +0.119 C 
BRANCH  19  20
ATOM     20  N   UNL     1       6.457 -36.013  -7.135  0.00  0.00    -0.302 NA
ATOM     21  C   UNL     1       5.384 -35.158  -6.455  0.00  0.00    +0.066 C 
ATOM     22  C   UNL     1       5.347 -33.712  -7.049  0.00  0.00    -0.064 C 
ATOM     23  N   UNL     1       5.103 -33.789  -8.557  0.00  0.00    +0.379 N 
ATOM     24  C   UNL     1       5.010 -32.430  -9.109  0.00  0.00    -0.096 C 
ATOM     25  H   UNL     1       4.119 -34.287  -8.715  0.00  0.00    -0.082 HD
ATOM     26  C   UNL     1       6.165 -34.639  -9.240  0.00  0.00    -0.064 C 
ATOM     27  C   UNL     1       6.214 -36.065  -8.623  0.00  0.00    +0.066 C 
ENDBRANCH  19  20
ENDBRANCH  18  19
ENDBRANCH  14  15
ENDBRANCH  12  13
TORSDOF 6
ENDMDL
MODEL 2
REMARK VINA RESULT:      -8.6      8.107     12.575
REMARK  Name = C:\Users\Docking\Desktop\test protocol\1iep_ligandH.pdb
REMARK  8 active torsions:
REMARK  status: ('A' for Active; 'I' for Inactive)
REMARK    1  A    between atoms: _5  and  _11
REMARK    2  A    between atoms: _19  and  _21
REMARK    3  A    between atoms: _22  and  _66
REMARK    4  A    between atoms: _27  and  _30
REMARK    5  A    between atoms: _32  and  _33
REMARK    6  A    between atoms: _38  and  _43
REMARK    7  A    between atoms: _43  and  _46
REMARK    8  A    between atoms: _53  and  _55
REMARK                            x       y       z     vdW  Elec       q    Type
REMARK                         _______ _______ _______ _____ _____    ______ ____
ROOT
ATOM     10  C   UNL     1       3.456 -41.094  -5.884  0.00  0.00    +0.038 A 
ATOM     11  C   UNL     1       2.457 -40.536  -6.722  0.00  0.00    +0.047 A 
ATOM     12  C   UNL     1       1.064 -40.938  -6.603  0.00  0.00    +0.035 A 
ATOM     32  C   UNL     1       0.723 -41.909  -5.616  0.00  0.00    +0.024 A 
ATOM     33  C   UNL     1       1.726 -42.487  -4.756  0.00  0.00    +0.007 A 
ATOM     34  C   UNL     1       3.102 -42.096  -4.872  0.00  0.00    -0.029 A 
ATOM     35  C   UNL     1       4.136 -42.754  -3.928  0.00  0.00    +0.045 C 
ENDROOT
BRANCH  10   9
ATOM      4  C   UNL     1       7.093 -38.117  -4.914  0.00  0.00    +0.077 A 
ATOM      5  C   UNL     1       6.284 -37.319  -4.038  0.00  0.00    +0.048 A 
ATOM      6  C   UNL     1       4.935 -37.704  -3.871  0.00  0.00    +0.116 A 
ATOM      7  N   UNL     1       4.443 -38.807  -4.533  0.00  0.00    -0.223 NA
ATOM      8  C   UNL     1       5.250 -39.554  -5.372  0.00  0.00    +0.220 A 
ATOM      9  N   UNL     1       4.778 -40.672  -6.042  0.00  0.00    -0.283 N 
ATOM     36  H   UNL     1       5.403 -41.192  -6.657  0.00  0.00    +0.155 HD
ATOM     37  N   UNL     1       6.541 -39.206  -5.550  0.00  0.00    -0.214 NA
BRANCH   4   3
ATOM      1  C   UNL     1      10.397 -36.818  -6.557  0.00  0.00    +0.020 A 
ATOM      2  C   UNL     1       8.990 -37.058  -6.335  0.00  0.00    +0.013 A 
ATOM      3  C   UNL     1       8.538 -37.839  -5.191  0.00  0.00    +0.019 A 
ATOM     38  C   UNL     1       9.545 -38.368  -4.282  0.00  0.00    +0.120 A 
ATOM     39  N   UNL     1      10.893 -38.122  -4.522  0.00  0.00    -0.263 NA
ATOM     40  C   UNL     1      11.339 -37.373  -5.621  0.00  0.00    +0.111 A 
ENDBRANCH   4   3
ENDBRANCH  10   9
BRANCH  12  13
ATOM     13  N   UNL     1       0.008 -40.412  -7.431  0.00  0.00    -0.281 N 
ATOM     14  C   UNL     1      -0.599 -41.014  -8.521  0.00  0.00    +0.248 C 
ATOM     30  O   UNL     1      -0.177 -42.014  -9.083  0.00  0.00    -0.270 OA
ATOM     31  H   UNL     1      -0.334 -39.483  -7.184  0.00  0.00    +0.155 HD
BRANCH  14  15
ATOM     15  C   UNL     1      -1.849 -40.411  -9.077  0.00  0.00    +0.037 A 
ATOM     16  C   UNL     1      -2.956 -40.016  -8.202  0.00  0.00    +0.013 A 
ATOM     17  C   UNL     1      -4.157 -39.451  -8.765  0.00  0.00    +0.005 A 
ATOM     18  C   UNL     1      -4.256 -39.277 -10.212  0.00  0.00    -0.033 A 
ATOM     28  C   UNL     1      -3.140 -39.672 -11.056  0.00  0.00    +0.005 A 
ATOM     29  C   UNL     1      -1.962 -40.227 -10.508  0.00  0.00    +0.013 A 
BRANCH  18  19
ATOM     19  C   UNL     1      -5.507 -38.703 -10.902  0.00  0.00    +0.119 C 
BRANCH  19  20
ATOM     20  N   UNL     1      -5.833 -37.268 -10.643  0.00  0.00    -0.302 NA
ATOM     21  C   UNL     1      -7.218 -36.889 -11.174  0.00  0.00    +0.066 C 
ATOM     22  C   UNL     1      -7.552 -35.391 -10.875  0.00  0.00    -0.064 C 
ATOM     23  N   UNL     1      -6.473 -34.498 -11.490  0.00  0.00    +0.379 N 
ATOM     24  C   UNL     1      -6.814 -33.087 -11.260  0.00  0.00    -0.096 C 
ATOM     25  H   UNL     1      -6.477 -34.673 -12.591  0.00  0.00    -0.082 HD
ATOM     26  C   UNL     1      -5.092 -34.871 -10.969  0.00  0.00    -0.064 C 
ATOM     27  C   UNL     1      -4.782 -36.369 -11.245  0.00  0.00    +0.066 C 
ENDBRANCH  19  20
ENDBRANCH  18  19
ENDBRANCH  14  15
ENDBRANCH  12  13
TORSDOF 6
ENDMDL
MODEL 3
REMARK VINA RESULT:      -8.4      2.944     12.988
REMARK  Name = C:\Users\Docking\Desktop\test protocol\1iep_ligandH.pdb
REMARK  8 active torsions:
REMARK  status: ('A' for Active; 'I' for Inactive)
REMARK    1  A    between atoms: _5  and  _11
REMARK    2  A    between atoms: _19  and  _21
REMARK    3  A    between atoms: _22  and  _66
REMARK    4  A    between atoms: _27  and  _30
REMARK    5  A    between atoms: _32  and  _33
REMARK    6  A    between atoms: _38  and  _43
REMARK    7  A    between atoms: _43  and  _46
REMARK    8  A    between atoms: _53  and  _55
REMARK                            x       y       z     vdW  Elec       q    Type
REMARK                         _______ _______ _______ _____ _____    ______ ____
ROOT
ATOM     10  C   UNL     1       8.380 -37.228  -6.465  0.00  0.00    +0.038 A 
ATOM     11  C   UNL     1       9.252 -37.882  -5.557  0.00  0.00    +0.047 A 
ATOM     12  C   UNL     1      10.608 -37.403  -5.338  0.00  0.00    +0.035 A 
ATOM     32  C   UNL     1      11.043 -36.253  -6.059  0.00  0.00    +0.024 A 
ATOM     33  C   UNL     1      10.170 -35.577  -6.987  0.00  0.00    +0.007 A 
ATOM     34  C   UNL     1       8.832 -36.046  -7.208  0.00  0.00    -0.029 A 
ATOM     35  C   UNL     1       7.943 -35.286  -8.219  0.00  0.00    +0.045 C 
ENDROOT
BRANCH  10   9
ATOM      4  C   UNL     1       3.932 -38.094  -4.885  0.00  0.00    +0.077 A 
ATOM      5  C   UNL     1       4.213 -37.521  -3.600  0.00  0.00    +0.048 A 
ATOM      6  C   UNL     1       5.516 -37.021  -3.384  0.00  0.00    +0.116 A 
ATOM      7  N   UNL     1       6.460 -37.094  -4.385  0.00  0.00    -0.223 NA
ATOM      8  C   UNL     1       6.157 -37.654  -5.612  0.00  0.00    +0.220 A 
ATOM      9  N   UNL     1       7.088 -37.731  -6.636  0.00  0.00    -0.283 N 
ATOM     36  H   UNL     1       6.828 -38.159  -7.524  0.00  0.00    +0.155 HD
ATOM     37  N   UNL     1       4.920 -38.140  -5.843  0.00  0.00    -0.214 NA
BRANCH   4   3
ATOM      1  C   UNL     1       0.344 -39.643  -4.707  0.00  0.00    +0.020 A 
ATOM      2  C   UNL     1       1.616 -39.102  -4.286  0.00  0.00    +0.013 A 
ATOM      3  C   UNL     1       2.600 -38.662  -5.266  0.00  0.00    +0.019 A 
ATOM     38  C   UNL     1       2.263 -38.783  -6.677  0.00  0.00    +0.120 A 
ATOM     39  N   UNL     1       1.031 -39.309  -7.053  0.00  0.00    -0.263 NA
ATOM     40  C   UNL     1       0.077 -39.737  -6.118  0.00  0.00    +0.111 A 
ENDBRANCH   4   3
ENDBRANCH  10   9
BRANCH  12  13
ATOM     13  N   UNL     1      11.541 -38.031  -4.435  0.00  0.00    -0.281 N 
ATOM     14  C   UNL     1      11.595 -39.362  -4.057  0.00  0.00    +0.248 C 
ATOM     30  O   UNL     1      10.712 -40.179  -4.274  0.00  0.00    -0.270 OA
ATOM     31  H   UNL     1      12.247 -37.419  -4.025  0.00  0.00    +0.155 HD
BRANCH  14  15
ATOM     15  C   UNL     1      12.797 -39.855  -3.318  0.00  0.00    +0.037 A 
ATOM     16  C   UNL     1      12.762 -41.107  -2.558  0.00  0.00    +0.013 A 
ATOM     17  C   UNL     1      13.931 -41.550  -1.840  0.00  0.00    +0.005 A 
ATOM     18  C   UNL     1      15.146 -40.740  -1.881  0.00  0.00    -0.033 A 
ATOM     28  C   UNL     1      15.155 -39.505  -2.647  0.00  0.00    +0.005 A 
ATOM     29  C   UNL     1      14.011 -39.067  -3.351  0.00  0.00    +0.013 A 
BRANCH  18  19
ATOM     19  C   UNL     1      16.433 -41.126  -1.128  0.00  0.00    +0.119 C 
BRANCH  19  20
ATOM     20  N   UNL     1      16.524 -40.741   0.312  0.00  0.00    -0.302 NA
ATOM     21  C   UNL     1      15.195 -40.944   1.046  0.00  0.00    +0.066 C 
ATOM     22  C   UNL     1      15.314 -40.559   2.556  0.00  0.00    -0.064 C 
ATOM     23  N   UNL     1      15.782 -39.107   2.674  0.00  0.00    +0.379 N 
ATOM     24  C   UNL     1      15.839 -38.723   4.092  0.00  0.00    -0.096 C 
ATOM     25  H   UNL     1      15.016 -38.464   2.180  0.00  0.00    -0.082 HD
ATOM     26  C   UNL     1      17.101 -38.896   1.945  0.00  0.00    -0.064 C 
ATOM     27  C   UNL     1      16.980 -39.310   0.452  0.00  0.00    +0.066 C 
ENDBRANCH  19  20
ENDBRANCH  18  19
ENDBRANCH  14  15
ENDBRANCH  12  13
TORSDOF 6
ENDMDL
MODEL 4
REMARK VINA RESULT:      -8.3      2.074     12.837
REMARK  Name = C:\Users\Docking\Desktop\test protocol\1iep_ligandH.pdb
REMARK  8 active torsions:
REMARK  status: ('A' for Active; 'I' for Inactive)
REMARK    1  A    between atoms: _5  and  _11
REMARK    2  A    between atoms: _19  and  _21
REMARK    3  A    between atoms: _22  and  _66
REMARK    4  A    between atoms: _27  and  _30
REMARK    5  A    between atoms: _32  and  _33
REMARK    6  A    between atoms: _38  and  _43
REMARK    7  A    between atoms: _43  and  _46
REMARK    8  A    between atoms: _53  and  _55
REMARK                            x       y       z     vdW  Elec       q    Type
REMARK                         _______ _______ _______ _____ _____    ______ ____
ROOT
ATOM     10  C   UNL     1       6.432 -38.377  -4.191  0.00  0.00    +0.038 A 
ATOM     11  C   UNL     1       7.721 -38.965  -4.117  0.00  0.00    +0.047 A 
ATOM     12  C   UNL     1       8.237 -39.488  -2.862  0.00  0.00    +0.035 A 
ATOM     32  C   UNL     1       7.413 -39.400  -1.703  0.00  0.00    +0.024 A 
ATOM     33  C   UNL     1       6.101 -38.805  -1.760  0.00  0.00    +0.007 A 
ATOM     34  C   UNL     1       5.587 -38.284  -2.994  0.00  0.00    -0.029 A 
ATOM     35  C   UNL     1       4.176 -37.651  -2.996  0.00  0.00    +0.045 C 
ENDROOT
BRANCH  10   9
ATOM      4  C   UNL     1       7.185 -36.237  -8.421  0.00  0.00    +0.077 A 
ATOM      5  C   UNL     1       8.580 -36.048  -8.144  0.00  0.00    +0.048 A 
ATOM      6  C   UNL     1       9.062 -36.510  -6.899  0.00  0.00    +0.116 A 
ATOM      7  N   UNL     1       8.205 -37.114  -6.005  0.00  0.00    -0.223 NA
ATOM      8  C   UNL     1       6.865 -37.279  -6.303  0.00  0.00    +0.220 A 
ATOM      9  N   UNL     1       5.986 -37.890  -5.422  0.00  0.00    -0.283 N 
ATOM     36  H   UNL     1       5.003 -37.986  -5.676  0.00  0.00    +0.155 HD
ATOM     37  N   UNL     1       6.379 -36.845  -7.485  0.00  0.00    -0.214 NA
BRANCH   4   3
ATOM      1  C   UNL     1       6.524 -35.397 -12.184  0.00  0.00    +0.020 A 
ATOM      2  C   UNL     1       7.206 -35.824 -10.984  0.00  0.00    +0.013 A 
ATOM      3  C   UNL     1       6.526 -35.806  -9.694  0.00  0.00    +0.019 A 
ATOM     38  C   UNL     1       5.145 -35.348  -9.654  0.00  0.00    +0.120 A 
ATOM     39  N   UNL     1       4.515 -34.942 -10.826  0.00  0.00    -0.263 NA
ATOM     40  C   UNL     1       5.159 -34.953 -12.072  0.00  0.00    +0.111 A 
ENDBRANCH   4   3
ENDBRANCH  10   9
BRANCH  12  13
ATOM     13  N   UNL     1       9.541 -40.089  -2.724  0.00  0.00    -0.281 N 
ATOM     14  C   UNL     1      10.617 -39.997  -3.592  0.00  0.00    +0.248 C 
ATOM     30  O   UNL     1      10.552 -39.557  -4.730  0.00  0.00    -0.270 OA
ATOM     31  H   UNL     1       9.689 -40.649  -1.885  0.00  0.00    +0.155 HD
BRANCH  14  15
ATOM     15  C   UNL     1      11.957 -40.477  -3.134  0.00  0.00    +0.037 A 
ATOM     16  C   UNL     1      12.109 -41.759  -2.442  0.00  0.00    +0.013 A 
ATOM     17  C   UNL     1      13.410 -42.190  -1.996  0.00  0.00    +0.005 A 
ATOM     18  C   UNL     1      14.571 -41.337  -2.242  0.00  0.00    -0.033 A 
ATOM     28  C   UNL     1      14.392 -40.072  -2.936  0.00  0.00    +0.005 A 
ATOM     29  C   UNL     1      13.118 -39.646  -3.373  0.00  0.00    +0.013 A 
BRANCH  18  19
ATOM     19  C   UNL     1      15.993 -41.708  -1.783  0.00  0.00    +0.119 C 
BRANCH  19  20
ATOM     20  N   UNL     1      16.502 -41.054  -0.541  0.00  0.00    -0.302 NA
ATOM     21  C   UNL     1      15.393 -40.844   0.494  0.00  0.00    +0.066 C 
ATOM     22  C   UNL     1      15.947 -40.179   1.796  0.00  0.00    -0.064 C 
ATOM     23  N   UNL     1      16.617 -38.850   1.442  0.00  0.00    +0.379 N 
ATOM     24  C   UNL     1      17.088 -38.196   2.671  0.00  0.00    -0.096 C 
ATOM     25  H   UNL     1      15.842 -38.193   0.984  0.00  0.00    -0.082 HD
ATOM     26  C   UNL     1      17.720 -39.050   0.412  0.00  0.00    -0.064 C 
ATOM     27  C   UNL     1      17.164 -39.738  -0.866  0.00  0.00    +0.066 C 
ENDBRANCH  19  20
ENDBRANCH  18  19
ENDBRANCH  14  15
ENDBRANCH  12  13
TORSDOF 6
ENDMDL
MODEL 5
REMARK VINA RESULT:      -8.1      1.537      2.293
REMARK  Name = C:\Users\Docking\Desktop\test protocol\1iep_ligandH.pdb
REMARK  8 active torsions:
REMARK  status: ('A' for Active; 'I' for Inactive)
REMARK    1  A    between atoms: _5  and  _11
REMARK    2  A    between atoms: _19  and  _21
REMARK    3  A    between atoms: _22  and  _66
REMARK    4  A    between atoms: _27  and  _30
REMARK    5  A    between atoms: _32  and  _33
REMARK    6  A    between atoms: _38  and  _43
REMARK    7  A    between atoms: _43  and  _46
REMARK    8  A    between atoms: _53  and  _55
REMARK                            x       y       z     vdW  Elec       q    Type
REMARK                         _______ _______ _______ _____ _____    ______ ____
ROOT
ATOM     10  C   UNL     1      14.562 -41.245  -1.166  0.00  0.00    +0.038 A 
ATOM     11  C   UNL     1      13.642 -40.332  -1.742  0.00  0.00    +0.047 A 
ATOM     12  C   UNL     1      12.520 -40.798  -2.543  0.00  0.00    +0.035 A 
ATOM     32  C   UNL     1      12.364 -42.202  -2.734  0.00  0.00    +0.024 A 
ATOM     33  C   UNL     1      13.291 -43.144  -2.157  0.00  0.00    +0.007 A 
ATOM     34  C   UNL     1      14.400 -42.690  -1.368  0.00  0.00    -0.029 A 
ATOM     35  C   UNL     1      15.366 -43.744  -0.779  0.00  0.00    +0.045 C 
ENDROOT
BRANCH  10   9
ATOM      4  C   UNL     1      16.430 -39.655   2.960  0.00  0.00    +0.077 A 
ATOM      5  C   UNL     1      15.184 -39.815   3.654  0.00  0.00    +0.048 A 
ATOM      6  C   UNL     1      14.086 -40.302   2.911  0.00  0.00    +0.116 A 
ATOM      7  N   UNL     1      14.233 -40.604   1.574  0.00  0.00    -0.223 NA
ATOM      8  C   UNL     1      15.447 -40.437   0.935  0.00  0.00    +0.220 A 
ATOM      9  N   UNL     1      15.620 -40.742  -0.406  0.00  0.00    -0.283 N 
ATOM     36  H   UNL     1      16.530 -40.598  -0.843  0.00  0.00    +0.155 HD
ATOM     37  N   UNL     1      16.512 -39.972   1.622  0.00  0.00    -0.214 NA
BRANCH   4   3
ATOM      1  C   UNL     1      19.591 -39.363   5.245  0.00  0.00    +0.020 A 
ATOM      2  C   UNL     1      18.384 -39.891   4.652  0.00  0.00    +0.013 A 
ATOM      3  C   UNL     1      17.683 -39.154   3.608  0.00  0.00    +0.019 A 
ATOM     38  C   UNL     1      18.234 -37.876   3.183  0.00  0.00    +0.120 A 
ATOM     39  N   UNL     1      19.397 -37.392   3.774  0.00  0.00    -0.263 NA
ATOM     40  C   UNL     1      20.079 -38.092   4.781  0.00  0.00    +0.111 A 
ENDBRANCH   4   3
ENDBRANCH  10   9
BRANCH  12  13
ATOM     13  N   UNL     1      11.559 -39.918  -3.159  0.00  0.00    -0.281 N 
ATOM     14  C   UNL     1      11.773 -39.000  -4.174  0.00  0.00    +0.248 C 
ATOM     30  O   UNL     1      12.876 -38.643  -4.561  0.00  0.00    -0.270 OA
ATOM     31  H   UNL     1      10.604 -39.980  -2.804  0.00  0.00    +0.155 HD
BRANCH  14  15
ATOM     15  C   UNL     1      10.592 -38.378  -4.846  0.00  0.00    +0.037 A 
ATOM     16  C   UNL     1      10.755 -37.303  -5.828  0.00  0.00    +0.013 A 
ATOM     17  C   UNL     1       9.598 -36.708  -6.449  0.00  0.00    +0.005 A 
ATOM     18  C   UNL     1       8.266 -37.190  -6.090  0.00  0.00    -0.033 A 
ATOM     28  C   UNL     1       8.133 -38.261  -5.117  0.00  0.00    +0.005 A 
ATOM     29  C   UNL     1       9.265 -38.845  -4.505  0.00  0.00    +0.013 A 
BRANCH  18  19
ATOM     19  C   UNL     1       6.974 -36.600  -6.687  0.00  0.00    +0.119 C 
BRANCH  19  20
ATOM     20  N   UNL     1       5.740 -37.437  -6.608  0.00  0.00    -0.302 NA
ATOM     21  C   UNL     1       4.746 -37.100  -7.723  0.00  0.00    +0.066 C 
ATOM     22  C   UNL     1       3.471 -38.000  -7.639  0.00  0.00    -0.064 C 
ATOM     23  N   UNL     1       2.821 -37.833  -6.265  0.00  0.00    +0.379 N 
ATOM     24  C   UNL     1       1.589 -38.634  -6.204  0.00  0.00    -0.096 C 
ATOM     25  H   UNL     1       2.533 -36.762  -6.155  0.00  0.00    -0.082 HD
ATOM     26  C   UNL     1       3.803 -38.164  -5.151  0.00  0.00    -0.064 C 
ATOM     27  C   UNL     1       5.080 -37.284  -5.260  0.00  0.00    +0.066 C 
ENDBRANCH  19  20
ENDBRANCH  18  19
ENDBRANCH  14  15
ENDBRANCH  12  13
TORSDOF 6
ENDMDL
