MODEL 1
REMARK VINA RESULT:     -10.0      0.000      0.000
REMARK  Name = C:\Users\Docking\Desktop\test protocol\1iep_ligandH.pdb
REMARK  8 active torsions:
REMARK  status: ('A' for Active; 'I' for Inactive)
REMARK    1  A    between atoms: _5  and  _11
REMARK    2  A    between atoms: _19  and  _21
REMARK    3  A    between atoms: _22  and  _66
REMARK    4  A    between atoms: _27  and  _30
REMARK    5  A    between atoms: _32  and  _33
REMARK    6  A    between atoms: _38  and  _43
REMARK    7  A    between atoms: _43  and  _46
REMARK    8  A    between atoms: _53  and  _55
REMARK                            x       y       z     vdW  Elec       q    Type
REMARK                         _______ _______ _______ _____ _____    ______ ____
ROOT
ATOM     10  C   UNL     1      25.533  26.315  36.217  0.00  0.00    +0.038 A 
ATOM     11  C   UNL     1      25.828  25.282  35.290  0.00  0.00    +0.047 A 
ATOM     12  C   UNL     1      26.275  23.973  35.739  0.00  0.00    +0.035 A 
ATOM     32  C   UNL     1      26.409  23.749  37.140  0.00  0.00    +0.024 A 
ATOM     33  C   UNL     1      26.115  24.787  38.096  0.00  0.00    +0.007 A 
ATOM     34  C   UNL     1      25.676  26.081  37.659  0.00  0.00    -0.029 A 
ATOM     35  C   UNL     1      25.381  27.159  38.728  0.00  0.00    +0.045 C 
ENDROOT
BRANCH  10   9
ATOM      4  C   UNL     1      22.096  29.356  34.813  0.00  0.00    +0.077 A 
ATOM      5  C   UNL     1      21.063  28.387  35.042  0.00  0.00    +0.048 A 
ATOM      6  C   UNL     1      21.459  27.116  35.515  0.00  0.00    +0.116 A 
ATOM      7  N   UNL     1      22.791  26.845  35.738  0.00  0.00    -0.223 NA
ATOM      8  C   UNL     1      23.763  27.801  35.505  0.00  0.00    +0.220 A 
ATOM      9  N   UNL     1      25.108  27.553  35.730  0.00  0.00    -0.283 N 
ATOM     36  H   UNL     1      25.794  28.282  35.539  0.00  0.00    +0.155 HD
ATOM     37  N   UNL     1      23.410  29.022  35.052  0.00  0.00    -0.214 NA
BRANCH   4   3
ATOM      1  C   UNL     1      20.737  32.391  32.753  0.00  0.00    +0.020 A 
ATOM      2  C   UNL     1      20.955  31.032  33.192  0.00  0.00    +0.013 A 
ATOM      3  C   UNL     1      21.836  30.744  34.317  0.00  0.00    +0.019 A 
ATOM     38  C   UNL     1      22.486  31.864  34.982  0.00  0.00    +0.120 A 
ATOM     39  N   UNL     1      22.259  33.162  34.536  0.00  0.00    -0.263 NA
ATOM     40  C   UNL     1      21.414  33.451  33.453  0.00  0.00    +0.111 A 
ENDBRANCH   4   3
ENDBRANCH  10   9
BRANCH  12  13
ATOM     13  N   UNL     1      26.596  22.889  34.844  0.00  0.00    -0.281 N 
ATOM     14  C   UNL     1      27.528  22.878  33.819  0.00  0.00    +0.248 C 
ATOM     30  O   UNL     1      28.079  23.875  33.376  0.00  0.00    -0.270 OA
ATOM     31  H   UNL     1      26.073  22.024  34.983  0.00  0.00    +0.155 HD
BRANCH  14  15
ATOM     15  C   UNL     1      27.889  21.574  33.185  0.00  0.00    +0.037 A 
ATOM     16  C   UNL     1      27.903  20.330  33.959  0.00  0.00    +0.013 A 
ATOM     17  C   UNL     1      28.272  19.089  33.327  0.00  0.00    +0.005 A 
ATOM     18  C   UNL     1      28.628  19.085  31.910  0.00  0.00    -0.033 A 
ATOM     28  C   UNL     1      28.600  20.332  31.164  0.00  0.00    +0.005 A 
ATOM     29  C   UNL     1      28.240  21.551  31.781  0.00  0.00    +0.013 A 
BRANCH  18  19
ATOM     19  C   UNL     1      29.054  17.809  31.158  0.00  0.00    +0.119 C 
BRANCH  19  20
ATOM     20  N   UNL     1      28.523  16.508  31.664  0.00  0.00    -0.302 NA
ATOM     21  C   UNL     1      29.599  15.688  32.381  0.00  0.00    +0.066 C 
ATOM     22  C   UNL     1      29.021  14.340  32.923  0.00  0.00    -0.064 C 
ATOM     23  N   UNL     1      28.417  13.545  31.764  0.00  0.00    +0.379 N 
ATOM     24  C   UNL     1      27.925  12.252  32.260  0.00  0.00    -0.096 C 
ATOM     25  H   UNL     1      29.234  13.339  31.034  0.00  0.00    -0.082 HD
ATOM     26  C   UNL     1      27.348  14.354  31.043  0.00  0.00    -0.064 C 
ATOM     27  C   UNL     1      27.926  15.705  30.535  0.00  0.00    +0.066 C 
ENDBRANCH  19  20
ENDBRANCH  18  19
ENDBRANCH  14  15
ENDBRANCH  12  13
TORSDOF 6
ENDMDL
MODEL 2
REMARK VINA RESULT:      -9.8      3.128     12.952
REMARK  Name = C:\Users\Docking\Desktop\test protocol\1iep_ligandH.pdb
REMARK  8 active torsions:
REMARK  status: ('A' for Active; 'I' for Inactive)
REMARK    1  A    between atoms: _5  and  _11
REMARK    2  A    between atoms: _19  and  _21
REMARK    3  A    between atoms: _22  and  _66
REMARK    4  A    between atoms: _27  and  _30
REMARK    5  A    between atoms: _32  and  _33
REMARK    6  A    between atoms: _38  and  _43
REMARK    7  A    between atoms: _43  and  _46
REMARK    8  A    between atoms: _53  and  _55
REMARK                            x       y       z     vdW  Elec       q    Type
REMARK                         _______ _______ _______ _____ _____    ______ ____
ROOT
ATOM     10  C   UNL     1      22.273  24.230  36.701  0.00  0.00    +0.038 A 
ATOM     11  C   UNL     1      22.017  25.457  36.037  0.00  0.00    +0.047 A 
ATOM     12  C   UNL     1      21.149  26.465  36.627  0.00  0.00    +0.035 A 
ATOM     32  C   UNL     1      20.561  26.191  37.896  0.00  0.00    +0.024 A 
ATOM     33  C   UNL     1      20.810  24.949  38.585  0.00  0.00    +0.007 A 
ATOM     34  C   UNL     1      21.663  23.950  38.006  0.00  0.00    -0.029 A 
ATOM     35  C   UNL     1      21.890  22.634  38.786  0.00  0.00    +0.045 C 
ENDROOT
BRANCH  10   9
ATOM      4  C   UNL     1      26.536  22.880  34.957  0.00  0.00    +0.077 A 
ATOM      5  C   UNL     1      27.131  24.148  35.267  0.00  0.00    +0.048 A 
ATOM      6  C   UNL     1      26.304  25.123  35.868  0.00  0.00    +0.116 A 
ATOM      7  N   UNL     1      24.982  24.840  36.135  0.00  0.00    -0.223 NA
ATOM      8  C   UNL     1      24.439  23.607  35.822  0.00  0.00    +0.220 A 
ATOM      9  N   UNL     1      23.114  23.298  36.089  0.00  0.00    -0.283 N 
ATOM     36  H   UNL     1      22.750  22.380  35.836  0.00  0.00    +0.155 HD
ATOM     37  N   UNL     1      25.208  22.660  35.246  0.00  0.00    -0.214 NA
BRANCH   4   3
ATOM      1  C   UNL     1      28.878  20.798  32.615  0.00  0.00    +0.020 A 
ATOM      2  C   UNL     1      28.182  21.926  33.190  0.00  0.00    +0.013 A 
ATOM      3  C   UNL     1      27.281  21.747  34.322  0.00  0.00    +0.019 A 
ATOM     38  C   UNL     1      27.107  20.403  34.853  0.00  0.00    +0.120 A 
ATOM     39  N   UNL     1      27.789  19.336  34.278  0.00  0.00    -0.263 NA
ATOM     40  C   UNL     1      28.657  19.496  33.187  0.00  0.00    +0.111 A 
ENDBRANCH   4   3
ENDBRANCH  10   9
BRANCH  12  13
ATOM     13  N   UNL     1      20.846  27.725  35.996  0.00  0.00    -0.281 N 
ATOM     14  C   UNL     1      21.693  28.532  35.254  0.00  0.00    +0.248 C 
ATOM     30  O   UNL     1      22.906  28.395  35.200  0.00  0.00    -0.270 OA
ATOM     31  H   UNL     1      19.890  28.064  36.110  0.00  0.00    +0.155 HD
BRANCH  14  15
ATOM     15  C   UNL     1      21.110  29.664  34.471  0.00  0.00    +0.037 A 
ATOM     16  C   UNL     1      19.757  29.584  33.913  0.00  0.00    +0.013 A 
ATOM     17  C   UNL     1      19.226  30.683  33.147  0.00  0.00    +0.005 A 
ATOM     18  C   UNL     1      20.047  31.873  32.936  0.00  0.00    -0.033 A 
ATOM     28  C   UNL     1      21.383  31.928  33.505  0.00  0.00    +0.005 A 
ATOM     29  C   UNL     1      21.908  30.852  34.256  0.00  0.00    +0.013 A 
BRANCH  18  19
ATOM     19  C   UNL     1      19.569  33.085  32.114  0.00  0.00    +0.119 C 
BRANCH  19  20
ATOM     20  N   UNL     1      20.023  33.169  30.694  0.00  0.00    -0.302 NA
ATOM     21  C   UNL     1      21.304  33.995  30.548  0.00  0.00    +0.066 C 
ATOM     22  C   UNL     1      21.777  34.055  29.059  0.00  0.00    -0.064 C 
ATOM     23  N   UNL     1      20.657  34.636  28.194  0.00  0.00    +0.379 N 
ATOM     24  C   UNL     1      21.120  34.747  26.803  0.00  0.00    -0.096 C 
ATOM     25  H   UNL     1      20.444  35.666  28.564  0.00  0.00    -0.082 HD
ATOM     26  C   UNL     1      19.379  33.822  28.335  0.00  0.00    -0.064 C 
ATOM     27  C   UNL     1      18.933  33.744  29.822  0.00  0.00    +0.066 C 
ENDBRANCH  19  20
ENDBRANCH  18  19
ENDBRANCH  14  15
ENDBRANCH  12  13
TORSDOF 6
ENDMDL
MODEL 3
REMARK VINA RESULT:      -9.7      3.235     13.565
REMARK  Name = C:\Users\Docking\Desktop\test protocol\1iep_ligandH.pdb
REMARK  8 active torsions:
REMARK  status: ('A' for Active; 'I' for Inactive)
REMARK    1  A    between atoms: _5  and  _11
REMARK    2  A    between atoms: _19  and  _21
REMARK    3  A    between atoms: _22  and  _66
REMARK    4  A    between atoms: _27  and  _30
REMARK    5  A    between atoms: _32  and  _33
REMARK    6  A    between atoms: _38  and  _43
REMARK    7  A    between atoms: _43  and  _46
REMARK    8  A    between atoms: _53  and  _55
REMARK                            x       y       z     vdW  Elec       q    Type
REMARK                         _______ _______ _______ _____ _____    ______ ____
ROOT
ATOM     10  C   UNL     1      22.214  24.212  36.630  0.00  0.00    +0.038 A 
ATOM     11  C   UNL     1      21.898  25.390  35.908  0.00  0.00    +0.047 A 
ATOM     12  C   UNL     1      21.022  26.406  36.471  0.00  0.00    +0.035 A 
ATOM     32  C   UNL     1      20.488  26.190  37.774  0.00  0.00    +0.024 A 
ATOM     33  C   UNL     1      20.798  24.997  38.522  0.00  0.00    +0.007 A 
ATOM     34  C   UNL     1      21.659  23.990  37.971  0.00  0.00    -0.029 A 
ATOM     35  C   UNL     1      21.952  22.728  38.815  0.00  0.00    +0.045 C 
ENDROOT
BRANCH  10   9
ATOM      4  C   UNL     1      26.506  22.811  35.000  0.00  0.00    +0.077 A 
ATOM      5  C   UNL     1      27.107  24.073  35.325  0.00  0.00    +0.048 A 
ATOM      6  C   UNL     1      26.275  25.058  35.903  0.00  0.00    +0.116 A 
ATOM      7  N   UNL     1      24.944  24.790  36.136  0.00  0.00    -0.223 NA
ATOM      8  C   UNL     1      24.395  23.563  35.809  0.00  0.00    +0.220 A 
ATOM      9  N   UNL     1      23.061  23.269  36.041  0.00  0.00    -0.283 N 
ATOM     36  H   UNL     1      22.693  22.355  35.779  0.00  0.00    +0.155 HD
ATOM     37  N   UNL     1      25.168  22.607  35.254  0.00  0.00    -0.214 NA
BRANCH   4   3
ATOM      1  C   UNL     1      27.851  19.224  34.209  0.00  0.00    +0.020 A 
ATOM      2  C   UNL     1      27.105  20.291  34.836  0.00  0.00    +0.013 A 
ATOM      3  C   UNL     1      27.255  21.669  34.387  0.00  0.00    +0.019 A 
ATOM     38  C   UNL     1      28.175  21.936  33.292  0.00  0.00    +0.120 A 
ATOM     39  N   UNL     1      28.882  20.889  32.708  0.00  0.00    -0.263 NA
ATOM     40  C   UNL     1      28.746  19.559  33.134  0.00  0.00    +0.111 A 
ENDBRANCH   4   3
ENDBRANCH  10   9
BRANCH  12  13
ATOM     13  N   UNL     1      20.659  27.619  35.781  0.00  0.00    -0.281 N 
ATOM     14  C   UNL     1      21.502  28.565  35.220  0.00  0.00    +0.248 C 
ATOM     30  O   UNL     1      22.707  28.618  35.415  0.00  0.00    -0.270 OA
ATOM     31  H   UNL     1      19.659  27.803  35.696  0.00  0.00    +0.155 HD
BRANCH  14  15
ATOM     15  C   UNL     1      20.920  29.611  34.326  0.00  0.00    +0.037 A 
ATOM     16  C   UNL     1      19.517  29.557  33.906  0.00  0.00    +0.013 A 
ATOM     17  C   UNL     1      18.985  30.570  33.029  0.00  0.00    +0.005 A 
ATOM     18  C   UNL     1      19.857  31.646  32.566  0.00  0.00    -0.033 A 
ATOM     28  C   UNL     1      21.243  31.678  33.002  0.00  0.00    +0.005 A 
ATOM     29  C   UNL     1      21.769  30.687  33.861  0.00  0.00    +0.013 A 
BRANCH  18  19
ATOM     19  C   UNL     1      19.380  32.757  31.612  0.00  0.00    +0.119 C 
BRANCH  19  20
ATOM     20  N   UNL     1      19.838  34.149  31.900  0.00  0.00    -0.302 NA
ATOM     21  C   UNL     1      18.670  35.077  32.251  0.00  0.00    +0.066 C 
ATOM     22  C   UNL     1      19.169  36.523  32.571  0.00  0.00    -0.064 C 
ATOM     23  N   UNL     1      19.952  37.067  31.375  0.00  0.00    +0.379 N 
ATOM     24  C   UNL     1      20.373  38.448  31.651  0.00  0.00    -0.096 C 
ATOM     25  H   UNL     1      19.260  37.092  30.501  0.00  0.00    -0.082 HD
ATOM     26  C   UNL     1      21.113  36.149  31.018  0.00  0.00    -0.064 C 
ATOM     27  C   UNL     1      20.610  34.707  30.730  0.00  0.00    +0.066 C 
ENDBRANCH  19  20
ENDBRANCH  18  19
ENDBRANCH  14  15
ENDBRANCH  12  13
TORSDOF 6
ENDMDL
MODEL 4
REMARK VINA RESULT:      -8.9      2.705     13.080
REMARK  Name = C:\Users\Docking\Desktop\test protocol\1iep_ligandH.pdb
REMARK  8 active torsions:
REMARK  status: ('A' for Active; 'I' for Inactive)
REMARK    1  A    between atoms: _5  and  _11
REMARK    2  A    between atoms: _19  and  _21
REMARK    3  A    between atoms: _22  and  _66
REMARK    4  A    between atoms: _27  and  _30
REMARK    5  A    between atoms: _32  and  _33
REMARK    6  A    between atoms: _38  and  _43
REMARK    7  A    between atoms: _43  and  _46
REMARK    8  A    between atoms: _53  and  _55
REMARK                            x       y       z     vdW  Elec       q    Type
REMARK                         _______ _______ _______ _____ _____    ______ ____
ROOT
ATOM     10  C   UNL     1      26.193  26.214  35.923  0.00  0.00    +0.038 A 
ATOM     11  C   UNL     1      25.283  27.050  35.228  0.00  0.00    +0.047 A 
ATOM     12  C   UNL     1      24.571  28.119  35.911  0.00  0.00    +0.035 A 
ATOM     32  C   UNL     1      24.812  28.310  37.303  0.00  0.00    +0.024 A 
ATOM     33  C   UNL     1      25.733  27.468  38.025  0.00  0.00    +0.007 A 
ATOM     34  C   UNL     1      26.436  26.411  37.358  0.00  0.00    -0.029 A 
ATOM     35  C   UNL     1      27.407  25.535  38.184  0.00  0.00    +0.045 C 
ENDROOT
BRANCH  10   9
ATOM      4  C   UNL     1      26.620  21.661  34.465  0.00  0.00    +0.077 A 
ATOM      5  C   UNL     1      25.451  21.257  35.192  0.00  0.00    +0.048 A 
ATOM      6  C   UNL     1      24.772  22.249  35.934  0.00  0.00    +0.116 A 
ATOM      7  N   UNL     1      25.237  23.547  35.942  0.00  0.00    -0.223 NA
ATOM      8  C   UNL     1      26.369  23.903  35.231  0.00  0.00    +0.220 A 
ATOM      9  N   UNL     1      26.850  25.203  35.218  0.00  0.00    -0.283 N 
ATOM     36  H   UNL     1      27.692  25.424  34.687  0.00  0.00    +0.155 HD
ATOM     37  N   UNL     1      27.035  22.973  34.516  0.00  0.00    -0.214 NA
BRANCH   4   3
ATOM      1  C   UNL     1      28.630  20.093  31.499  0.00  0.00    +0.020 A 
ATOM      2  C   UNL     1      27.835  21.028  32.260  0.00  0.00    +0.013 A 
ATOM      3  C   UNL     1      27.442  20.728  33.632  0.00  0.00    +0.019 A 
ATOM     38  C   UNL     1      27.876  19.464  34.207  0.00  0.00    +0.120 A 
ATOM     39  N   UNL     1      28.640  18.583  33.449  0.00  0.00    -0.263 NA
ATOM     40  C   UNL     1      29.022  18.860  32.128  0.00  0.00    +0.111 A 
ENDBRANCH   4   3
ENDBRANCH  10   9
BRANCH  12  13
ATOM     13  N   UNL     1      23.629  28.995  35.259  0.00  0.00    -0.281 N 
ATOM     14  C   UNL     1      22.250  28.872  35.203  0.00  0.00    +0.248 C 
ATOM     30  O   UNL     1      21.632  27.869  35.527  0.00  0.00    -0.270 OA
ATOM     31  H   UNL     1      24.027  29.803  34.780  0.00  0.00    +0.155 HD
BRANCH  14  15
ATOM     15  C   UNL     1      21.442  30.026  34.702  0.00  0.00    +0.037 A 
ATOM     16  C   UNL     1      20.300  29.822  33.808  0.00  0.00    +0.013 A 
ATOM     17  C   UNL     1      19.548  30.953  33.325  0.00  0.00    +0.005 A 
ATOM     18  C   UNL     1      19.936  32.300  33.738  0.00  0.00    -0.033 A 
ATOM     28  C   UNL     1      21.071  32.473  34.630  0.00  0.00    +0.005 A 
ATOM     29  C   UNL     1      21.811  31.366  35.104  0.00  0.00    +0.013 A 
BRANCH  18  19
ATOM     19  C   UNL     1      19.205  33.566  33.255  0.00  0.00    +0.119 C 
BRANCH  19  20
ATOM     20  N   UNL     1      19.500  34.040  31.870  0.00  0.00    -0.302 NA
ATOM     21  C   UNL     1      18.857  33.146  30.807  0.00  0.00    +0.066 C 
ATOM     22  C   UNL     1      19.157  33.670  29.365  0.00  0.00    -0.064 C 
ATOM     23  N   UNL     1      20.671  33.751  29.160  0.00  0.00    +0.379 N 
ATOM     24  C   UNL     1      20.957  34.188  27.786  0.00  0.00    -0.096 C 
ATOM     25  H   UNL     1      21.085  32.723  29.282  0.00  0.00    -0.082 HD
ATOM     26  C   UNL     1      21.319  34.637  30.215  0.00  0.00    -0.064 C 
ATOM     27  C   UNL     1      20.990  34.125  31.645  0.00  0.00    +0.066 C 
ENDBRANCH  19  20
ENDBRANCH  18  19
ENDBRANCH  14  15
ENDBRANCH  12  13
TORSDOF 6
ENDMDL
MODEL 5
REMARK VINA RESULT:      -8.8      3.266     13.201
REMARK  Name = C:\Users\Docking\Desktop\test protocol\1iep_ligandH.pdb
REMARK  8 active torsions:
REMARK  status: ('A' for Active; 'I' for Inactive)
REMARK    1  A    between atoms: _5  and  _11
REMARK    2  A    between atoms: _19  and  _21
REMARK    3  A    between atoms: _22  and  _66
REMARK    4  A    between atoms: _27  and  _30
REMARK    5  A    between atoms: _32  and  _33
REMARK    6  A    between atoms: _38  and  _43
REMARK    7  A    between atoms: _43  and  _46
REMARK    8  A    between atoms: _53  and  _55
REMARK                            x       y       z     vdW  Elec       q    Type
REMARK                         _______ _______ _______ _____ _____    ______ ____
ROOT
ATOM     10  C   UNL     1      23.336  25.907  36.933  0.00  0.00    +0.038 A 
ATOM     11  C   UNL     1      23.026  26.898  35.966  0.00  0.00    +0.047 A 
ATOM     12  C   UNL     1      22.450  28.175  36.357  0.00  0.00    +0.035 A 
ATOM     32  C   UNL     1      22.206  28.411  37.741  0.00  0.00    +0.024 A 
ATOM     33  C   UNL     1      22.513  27.415  38.736  0.00  0.00    +0.007 A 
ATOM     34  C   UNL     1      23.079  26.152  38.357  0.00  0.00    -0.029 A 
ATOM     35  C   UNL     1      23.383  25.118  39.466  0.00  0.00    +0.045 C 
ENDROOT
BRANCH  10   9
ATOM      4  C   UNL     1      26.835  23.346  34.876  0.00  0.00    +0.077 A 
ATOM      5  C   UNL     1      27.620  24.518  34.613  0.00  0.00    +0.048 A 
ATOM      6  C   UNL     1      27.083  25.761  35.016  0.00  0.00    +0.116 A 
ATOM      7  N   UNL     1      25.854  25.816  35.636  0.00  0.00    -0.223 NA
ATOM      8  C   UNL     1      25.122  24.667  35.873  0.00  0.00    +0.220 A 
ATOM      9  N   UNL     1      23.887  24.698  36.502  0.00  0.00    -0.283 N 
ATOM     36  H   UNL     1      23.376  23.829  36.652  0.00  0.00    +0.155 HD
ATOM     37  N   UNL     1      25.612  23.467  35.496  0.00  0.00    -0.214 NA
BRANCH   4   3
ATOM      1  C   UNL     1      28.494  20.312  33.047  0.00  0.00    +0.020 A 
ATOM      2  C   UNL     1      28.104  21.668  33.354  0.00  0.00    +0.013 A 
ATOM      3  C   UNL     1      27.268  21.959  34.512  0.00  0.00    +0.019 A 
ATOM     38  C   UNL     1      26.841  20.846  35.346  0.00  0.00    +0.120 A 
ATOM     39  N   UNL     1      27.231  19.550  35.025  0.00  0.00    -0.263 NA
ATOM     40  C   UNL     1      28.034  19.257  33.912  0.00  0.00    +0.111 A 
ENDBRANCH   4   3
ENDBRANCH  10   9
BRANCH  12  13
ATOM     13  N   UNL     1      22.108  29.216  35.420  0.00  0.00    -0.281 N 
ATOM     14  C   UNL     1      21.024  29.264  34.558  0.00  0.00    +0.248 C 
ATOM     30  O   UNL     1      20.297  28.314  34.310  0.00  0.00    -0.270 OA
ATOM     31  H   UNL     1      22.741  30.015  35.388  0.00  0.00    +0.155 HD
BRANCH  14  15
ATOM     15  C   UNL     1      20.711  30.549  33.862  0.00  0.00    +0.037 A 
ATOM     16  C   UNL     1      21.638  31.683  33.906  0.00  0.00    +0.013 A 
ATOM     17  C   UNL     1      21.303  32.916  33.240  0.00  0.00    +0.005 A 
ATOM     18  C   UNL     1      20.036  33.021  32.521  0.00  0.00    -0.033 A 
ATOM     28  C   UNL     1      19.138  31.879  32.488  0.00  0.00    +0.005 A 
ATOM     29  C   UNL     1      19.461  30.669  33.141  0.00  0.00    +0.013 A 
BRANCH  18  19
ATOM     19  C   UNL     1      19.588  34.306  31.799  0.00  0.00    +0.119 C 
BRANCH  19  20
ATOM     20  N   UNL     1      20.299  34.664  30.536  0.00  0.00    -0.302 NA
ATOM     21  C   UNL     1      21.004  33.456  29.911  0.00  0.00    +0.066 C 
ATOM     22  C   UNL     1      21.724  33.843  28.578  0.00  0.00    -0.064 C 
ATOM     23  N   UNL     1      22.721  34.971  28.850  0.00  0.00    +0.379 N 
ATOM     24  C   UNL     1      23.441  35.298  27.611  0.00  0.00    -0.096 C 
ATOM     25  H   UNL     1      23.468  34.591  29.586  0.00  0.00    -0.082 HD
ATOM     26  C   UNL     1      22.030  36.175  29.474  0.00  0.00    -0.064 C 
ATOM     27  C   UNL     1      21.292  35.773  30.782  0.00  0.00    +0.066 C 
ENDBRANCH  19  20
ENDBRANCH  18  19
ENDBRANCH  14  15
ENDBRANCH  12  13
TORSDOF 6
ENDMDL
