MODEL 1
REMARK VINA RESULT:      -9.4      0.000      0.000
REMARK  Name = C:\Users\Docking\Desktop\test protocol\1iep_ligandH.pdb
REMARK  8 active torsions:
REMARK  status: ('A' for Active; 'I' for Inactive)
REMARK    1  A    between atoms: _5  and  _11
REMARK    2  A    between atoms: _19  and  _21
REMARK    3  A    between atoms: _22  and  _66
REMARK    4  A    between atoms: _27  and  _30
REMARK    5  A    between atoms: _32  and  _33
REMARK    6  A    between atoms: _38  and  _43
REMARK    7  A    between atoms: _43  and  _46
REMARK    8  A    between atoms: _53  and  _55
REMARK                            x       y       z     vdW  Elec       q    Type
REMARK                         _______ _______ _______ _____ _____    ______ ____
ROOT
ATOM     10  C   UNL     1       5.968 -25.028  34.150  0.00  0.00    +0.038 A 
ATOM     11  C   UNL     1       6.945 -25.869  33.558  0.00  0.00    +0.047 A 
ATOM     12  C   UNL     1       7.720 -26.802  34.361  0.00  0.00    +0.035 A 
ATOM     32  C   UNL     1       7.474 -26.854  35.763  0.00  0.00    +0.024 A 
ATOM     33  C   UNL     1       6.486 -26.005  36.382  0.00  0.00    +0.007 A 
ATOM     34  C   UNL     1       5.719 -25.081  35.596  0.00  0.00    -0.029 A 
ATOM     35  C   UNL     1       4.678 -24.191  36.313  0.00  0.00    +0.045 C 
ENDROOT
BRANCH  10   9
ATOM      4  C   UNL     1       5.330 -20.752  32.066  0.00  0.00    +0.077 A 
ATOM      5  C   UNL     1       6.509 -20.211  32.679  0.00  0.00    +0.048 A 
ATOM      6  C   UNL     1       7.247 -21.064  33.530  0.00  0.00    +0.116 A 
ATOM      7  N   UNL     1       6.829 -22.359  33.744  0.00  0.00    -0.223 NA
ATOM      8  C   UNL     1       5.687 -22.849  33.138  0.00  0.00    +0.220 A 
ATOM      9  N   UNL     1       5.252 -24.151  33.332  0.00  0.00    -0.283 N 
ATOM     36  H   UNL     1       4.400 -24.472  32.873  0.00  0.00    +0.155 HD
ATOM     37  N   UNL     1       4.963 -22.054  32.322  0.00  0.00    -0.214 NA
BRANCH   4   3
ATOM      1  C   UNL     1       3.252 -17.871  30.428  0.00  0.00    +0.020 A 
ATOM      2  C   UNL     1       4.110 -18.574  31.353  0.00  0.00    +0.013 A 
ATOM      3  C   UNL     1       4.447 -19.976  31.139  0.00  0.00    +0.019 A 
ATOM     38  C   UNL     1       3.896 -20.642  29.968  0.00  0.00    +0.120 A 
ATOM     39  N   UNL     1       3.071 -19.939  29.095  0.00  0.00    -0.263 NA
ATOM     40  C   UNL     1       2.739 -18.591  29.292  0.00  0.00    +0.111 A 
ENDBRANCH   4   3
ENDBRANCH  10   9
BRANCH  12  13
ATOM     13  N   UNL     1       8.731 -27.675  33.816  0.00  0.00    -0.281 N 
ATOM     14  C   UNL     1      10.090 -27.677  34.086  0.00  0.00    +0.248 C 
ATOM     30  O   UNL     1      10.678 -26.784  34.678  0.00  0.00    -0.270 OA
ATOM     31  H   UNL     1       8.405 -28.377  33.152  0.00  0.00    +0.155 HD
BRANCH  14  15
ATOM     15  C   UNL     1      10.917 -28.830  33.618  0.00  0.00    +0.037 A 
ATOM     16  C   UNL     1      12.057 -28.632  32.719  0.00  0.00    +0.013 A 
ATOM     17  C   UNL     1      12.828 -29.764  32.269  0.00  0.00    +0.005 A 
ATOM     18  C   UNL     1      12.462 -31.105  32.719  0.00  0.00    -0.033 A 
ATOM     28  C   UNL     1      11.329 -31.272  33.614  0.00  0.00    +0.005 A 
ATOM     29  C   UNL     1      10.570 -30.165  34.057  0.00  0.00    +0.013 A 
BRANCH  18  19
ATOM     19  C   UNL     1      13.215 -32.372  32.272  0.00  0.00    +0.119 C 
BRANCH  19  20
ATOM     20  N   UNL     1      12.701 -33.083  31.063  0.00  0.00    -0.302 NA
ATOM     21  C   UNL     1      13.518 -32.751  29.812  0.00  0.00    +0.066 C 
ATOM     22  C   UNL     1      12.981 -33.521  28.561  0.00  0.00    -0.064 C 
ATOM     23  N   UNL     1      11.505 -33.179  28.350  0.00  0.00    +0.379 N 
ATOM     24  C   UNL     1      11.012 -33.855  27.142  0.00  0.00    -0.096 C 
ATOM     25  H   UNL     1      11.435 -32.080  28.176  0.00  0.00    -0.082 HD
ATOM     26  C   UNL     1      10.686 -33.502  29.592  0.00  0.00    -0.064 C 
ATOM     27  C   UNL     1      11.246 -32.756  30.834  0.00  0.00    +0.066 C 
ENDBRANCH  19  20
ENDBRANCH  18  19
ENDBRANCH  14  15
ENDBRANCH  12  13
TORSDOF 6
ENDMDL
MODEL 2
REMARK VINA RESULT:      -9.2      1.787      2.595
REMARK  Name = C:\Users\Docking\Desktop\test protocol\1iep_ligandH.pdb
REMARK  8 active torsions:
REMARK  status: ('A' for Active; 'I' for Inactive)
REMARK    1  A    between atoms: _5  and  _11
REMARK    2  A    between atoms: _19  and  _21
REMARK    3  A    between atoms: _22  and  _66
REMARK    4  A    between atoms: _27  and  _30
REMARK    5  A    between atoms: _32  and  _33
REMARK    6  A    between atoms: _38  and  _43
REMARK    7  A    between atoms: _43  and  _46
REMARK    8  A    between atoms: _53  and  _55
REMARK                            x       y       z     vdW  Elec       q    Type
REMARK                         _______ _______ _______ _____ _____    ______ ____
ROOT
ATOM     10  C   UNL     1       5.672 -25.304  34.335  0.00  0.00    +0.038 A 
ATOM     11  C   UNL     1       6.553 -26.266  33.779  0.00  0.00    +0.047 A 
ATOM     12  C   UNL     1       7.255 -27.221  34.623  0.00  0.00    +0.035 A 
ATOM     32  C   UNL     1       7.034 -27.168  36.030  0.00  0.00    +0.024 A 
ATOM     33  C   UNL     1       6.143 -26.195  36.612  0.00  0.00    +0.007 A 
ATOM     34  C   UNL     1       5.450 -25.249  35.785  0.00  0.00    -0.029 A 
ATOM     35  C   UNL     1       4.512 -24.225  36.464  0.00  0.00    +0.045 C 
ENDROOT
BRANCH  10   9
ATOM      4  C   UNL     1       5.322 -21.060  32.119  0.00  0.00    +0.077 A 
ATOM      5  C   UNL     1       6.516 -20.569  32.744  0.00  0.00    +0.048 A 
ATOM      6  C   UNL     1       7.187 -21.437  33.634  0.00  0.00    +0.116 A 
ATOM      7  N   UNL     1       6.692 -22.700  33.874  0.00  0.00    -0.223 NA
ATOM      8  C   UNL     1       5.536 -23.142  33.256  0.00  0.00    +0.220 A 
ATOM      9  N   UNL     1       5.024 -24.412  33.477  0.00  0.00    -0.283 N 
ATOM     36  H   UNL     1       4.165 -24.697  33.008  0.00  0.00    +0.155 HD
ATOM     37  N   UNL     1       4.876 -22.332  32.403  0.00  0.00    -0.214 NA
BRANCH   4   3
ATOM      1  C   UNL     1       3.434 -18.118  30.364  0.00  0.00    +0.020 A 
ATOM      2  C   UNL     1       4.231 -18.842  31.328  0.00  0.00    +0.013 A 
ATOM      3  C   UNL     1       4.503 -20.263  31.152  0.00  0.00    +0.019 A 
ATOM     38  C   UNL     1       3.951 -20.927  29.981  0.00  0.00    +0.120 A 
ATOM     39  N   UNL     1       3.186 -20.204  29.070  0.00  0.00    -0.263 NA
ATOM     40  C   UNL     1       2.916 -18.837  29.230  0.00  0.00    +0.111 A 
ENDBRANCH   4   3
ENDBRANCH  10   9
BRANCH  12  13
ATOM     13  N   UNL     1       8.167 -28.215  34.116  0.00  0.00    -0.281 N 
ATOM     14  C   UNL     1       7.876 -29.310  33.317  0.00  0.00    +0.248 C 
ATOM     30  O   UNL     1       6.747 -29.721  33.093  0.00  0.00    -0.270 OA
ATOM     31  H   UNL     1       9.146 -28.099  34.377  0.00  0.00    +0.155 HD
BRANCH  14  15
ATOM     15  C   UNL     1       9.003 -30.065  32.689  0.00  0.00    +0.037 A 
ATOM     16  C   UNL     1      10.239 -29.390  32.288  0.00  0.00    +0.013 A 
ATOM     17  C   UNL     1      11.304 -30.139  31.668  0.00  0.00    +0.005 A 
ATOM     18  C   UNL     1      11.136 -31.573  31.448  0.00  0.00    -0.033 A 
ATOM     28  C   UNL     1       9.901 -32.218  31.861  0.00  0.00    +0.005 A 
ATOM     29  C   UNL     1       8.855 -31.487  32.467  0.00  0.00    +0.013 A 
BRANCH  18  19
ATOM     19  C   UNL     1      12.211 -32.447  30.775  0.00  0.00    +0.119 C 
BRANCH  19  20
ATOM     20  N   UNL     1      12.741 -33.603  31.558  0.00  0.00    -0.302 NA
ATOM     21  C   UNL     1      13.136 -33.200  32.981  0.00  0.00    +0.066 C 
ATOM     22  C   UNL     1      13.668 -34.425  33.793  0.00  0.00    -0.064 C 
ATOM     23  N   UNL     1      14.856 -35.045  33.057  0.00  0.00    +0.379 N 
ATOM     24  C   UNL     1      15.395 -36.162  33.846  0.00  0.00    -0.096 C 
ATOM     25  H   UNL     1      15.652 -34.267  32.984  0.00  0.00    -0.082 HD
ATOM     26  C   UNL     1      14.473 -35.446  31.639  0.00  0.00    -0.064 C 
ATOM     27  C   UNL     1      13.919 -34.228  30.850  0.00  0.00    +0.066 C 
ENDBRANCH  19  20
ENDBRANCH  18  19
ENDBRANCH  14  15
ENDBRANCH  12  13
TORSDOF 6
ENDMDL
MODEL 3
REMARK VINA RESULT:      -8.9     20.269     28.314
REMARK  Name = C:\Users\Docking\Desktop\test protocol\1iep_ligandH.pdb
REMARK  8 active torsions:
REMARK  status: ('A' for Active; 'I' for Inactive)
REMARK    1  A    between atoms: _5  and  _11
REMARK    2  A    between atoms: _19  and  _21
REMARK    3  A    between atoms: _22  and  _66
REMARK    4  A    between atoms: _27  and  _30
REMARK    5  A    between atoms: _32  and  _33
REMARK    6  A    between atoms: _38  and  _43
REMARK    7  A    between atoms: _43  and  _46
REMARK    8  A    between atoms: _53  and  _55
REMARK                            x       y       z     vdW  Elec       q    Type
REMARK                         _______ _______ _______ _____ _____    ______ ____
ROOT
ATOM     10  C   UNL     1       6.430  -2.470  25.828  0.00  0.00    +0.038 A 
ATOM     11  C   UNL     1       5.208  -1.840  25.480  0.00  0.00    +0.047 A 
ATOM     12  C   UNL     1       4.715  -0.692  26.224  0.00  0.00    +0.035 A 
ATOM     32  C   UNL     1       5.494  -0.209  27.316  0.00  0.00    +0.024 A 
ATOM     33  C   UNL     1       6.738  -0.838  27.684  0.00  0.00    +0.007 A 
ATOM     34  C   UNL     1       7.228  -1.973  26.955  0.00  0.00    -0.029 A 
ATOM     35  C   UNL     1       8.565  -2.612  27.398  0.00  0.00    +0.045 C 
ENDROOT
BRANCH  10   9
ATOM      4  C   UNL     1       6.195  -7.106  24.605  0.00  0.00    +0.077 A 
ATOM      5  C   UNL     1       5.154  -7.365  25.557  0.00  0.00    +0.048 A 
ATOM      6  C   UNL     1       4.712  -6.280  26.347  0.00  0.00    +0.116 A 
ATOM      7  N   UNL     1       5.276  -5.033  26.188  0.00  0.00    -0.223 NA
ATOM      8  C   UNL     1       6.280  -4.817  25.261  0.00  0.00    +0.220 A 
ATOM      9  N   UNL     1       6.856  -3.570  25.079  0.00  0.00    -0.283 N 
ATOM     36  H   UNL     1       7.599  -3.453  24.390  0.00  0.00    +0.155 HD
ATOM     37  N   UNL     1       6.720  -5.837  24.496  0.00  0.00    -0.214 NA
BRANCH   4   3
ATOM      1  C   UNL     1       7.010  -9.261  21.444  0.00  0.00    +0.020 A 
ATOM      2  C   UNL     1       6.430  -8.234  22.279  0.00  0.00    +0.013 A 
ATOM      3  C   UNL     1       6.766  -8.148  23.695  0.00  0.00    +0.019 A 
ATOM     38  C   UNL     1       7.699  -9.123  24.238  0.00  0.00    +0.120 A 
ATOM     39  N   UNL     1       8.241 -10.102  23.410  0.00  0.00    -0.263 NA
ATOM     40  C   UNL     1       7.924 -10.195  22.046  0.00  0.00    +0.111 A 
ENDBRANCH   4   3
ENDBRANCH  10   9
BRANCH  12  13
ATOM     13  N   UNL     1       3.478  -0.016  25.922  0.00  0.00    -0.281 N 
ATOM     14  C   UNL     1       3.093   0.561  24.723  0.00  0.00    +0.248 C 
ATOM     30  O   UNL     1       3.847   0.772  23.784  0.00  0.00    -0.270 OA
ATOM     31  H   UNL     1       2.804   0.045  26.685  0.00  0.00    +0.155 HD
BRANCH  14  15
ATOM     15  C   UNL     1       1.669   0.978  24.546  0.00  0.00    +0.037 A 
ATOM     16  C   UNL     1       1.270   2.384  24.647  0.00  0.00    +0.013 A 
ATOM     17  C   UNL     1      -0.114   2.756  24.489  0.00  0.00    +0.005 A 
ATOM     18  C   UNL     1      -1.109   1.719  24.227  0.00  0.00    -0.033 A 
ATOM     28  C   UNL     1      -0.685   0.333  24.127  0.00  0.00    +0.005 A 
ATOM     29  C   UNL     1       0.670  -0.036  24.282  0.00  0.00    +0.013 A 
BRANCH  18  19
ATOM     19  C   UNL     1      -2.611   2.023  24.066  0.00  0.00    +0.119 C 
BRANCH  19  20
ATOM     20  N   UNL     1      -3.562   1.227  24.898  0.00  0.00    -0.302 NA
ATOM     21  C   UNL     1      -5.021   1.584  24.600  0.00  0.00    +0.066 C 
ATOM     22  C   UNL     1      -6.004   0.726  25.463  0.00  0.00    -0.064 C 
ATOM     23  N   UNL     1      -5.688   0.930  26.945  0.00  0.00    +0.379 N 
ATOM     24  C   UNL     1      -6.647   0.170  27.760  0.00  0.00    -0.096 C 
ATOM     25  H   UNL     1      -5.830   2.011  27.175  0.00  0.00    -0.082 HD
ATOM     26  C   UNL     1      -4.238   0.581  27.249  0.00  0.00    -0.064 C 
ATOM     27  C   UNL     1      -3.271   1.417  26.366  0.00  0.00    +0.066 C 
ENDBRANCH  19  20
ENDBRANCH  18  19
ENDBRANCH  14  15
ENDBRANCH  12  13
TORSDOF 6
ENDMDL
MODEL 4
REMARK VINA RESULT:      -8.8     20.126     24.461
REMARK  Name = C:\Users\Docking\Desktop\test protocol\1iep_ligandH.pdb
REMARK  8 active torsions:
REMARK  status: ('A' for Active; 'I' for Inactive)
REMARK    1  A    between atoms: _5  and  _11
REMARK    2  A    between atoms: _19  and  _21
REMARK    3  A    between atoms: _22  and  _66
REMARK    4  A    between atoms: _27  and  _30
REMARK    5  A    between atoms: _32  and  _33
REMARK    6  A    between atoms: _38  and  _43
REMARK    7  A    between atoms: _43  and  _46
REMARK    8  A    between atoms: _53  and  _55
REMARK                            x       y       z     vdW  Elec       q    Type
REMARK                         _______ _______ _______ _____ _____    ______ ____
ROOT
ATOM     10  C   UNL     1       7.089  -5.273  28.845  0.00  0.00    +0.038 A 
ATOM     11  C   UNL     1       8.441  -4.952  29.127  0.00  0.00    +0.047 A 
ATOM     12  C   UNL     1       8.783  -3.919  30.092  0.00  0.00    +0.035 A 
ATOM     32  C   UNL     1       7.723  -3.235  30.754  0.00  0.00    +0.024 A 
ATOM     33  C   UNL     1       6.343  -3.548  30.479  0.00  0.00    +0.007 A 
ATOM     34  C   UNL     1       5.999  -4.565  29.526  0.00  0.00    -0.029 A 
ATOM     35  C   UNL     1       4.502  -4.854  29.266  0.00  0.00    +0.045 C 
ENDROOT
BRANCH  10   9
ATOM      4  C   UNL     1       6.681  -6.847  24.329  0.00  0.00    +0.077 A 
ATOM      5  C   UNL     1       7.010  -5.560  23.788  0.00  0.00    +0.048 A 
ATOM      6  C   UNL     1       7.271  -4.518  24.706  0.00  0.00    +0.116 A 
ATOM      7  N   UNL     1       7.204  -4.756  26.061  0.00  0.00    -0.223 NA
ATOM      8  C   UNL     1       6.882  -6.009  26.550  0.00  0.00    +0.220 A 
ATOM      9  N   UNL     1       6.817  -6.274  27.909  0.00  0.00    -0.283 N 
ATOM     36  H   UNL     1       6.569  -7.210  28.229  0.00  0.00    +0.155 HD
ATOM     37  N   UNL     1       6.628  -7.021  25.694  0.00  0.00    -0.214 NA
BRANCH   4   3
ATOM      1  C   UNL     1       6.623  -9.421  21.384  0.00  0.00    +0.020 A 
ATOM      2  C   UNL     1       6.942  -8.242  22.156  0.00  0.00    +0.013 A 
ATOM      3  C   UNL     1       6.383  -8.049  23.488  0.00  0.00    +0.019 A 
ATOM     38  C   UNL     1       5.497  -9.076  24.015  0.00  0.00    +0.120 A 
ATOM     39  N   UNL     1       5.207 -10.201  23.248  0.00  0.00    -0.263 NA
ATOM     40  C   UNL     1       5.738 -10.397  21.965  0.00  0.00    +0.111 A 
ENDBRANCH   4   3
ENDBRANCH  10   9
BRANCH  12  13
ATOM     13  N   UNL     1      10.138  -3.543  30.413  0.00  0.00    -0.281 N 
ATOM     14  C   UNL     1      11.234  -4.373  30.584  0.00  0.00    +0.248 C 
ATOM     30  O   UNL     1      11.170  -5.588  30.697  0.00  0.00    -0.270 OA
ATOM     31  H   UNL     1      10.310  -2.544  30.528  0.00  0.00    +0.155 HD
BRANCH  14  15
ATOM     15  C   UNL     1      12.597  -3.764  30.653  0.00  0.00    +0.037 A 
ATOM     16  C   UNL     1      13.644  -4.132  29.697  0.00  0.00    +0.013 A 
ATOM     17  C   UNL     1      14.955  -3.542  29.797  0.00  0.00    +0.005 A 
ATOM     18  C   UNL     1      15.227  -2.575  30.858  0.00  0.00    -0.033 A 
ATOM     28  C   UNL     1      14.168  -2.224  31.790  0.00  0.00    +0.005 A 
ATOM     29  C   UNL     1      12.882  -2.801  31.696  0.00  0.00    +0.013 A 
BRANCH  18  19
ATOM     19  C   UNL     1      16.603  -1.911  31.053  0.00  0.00    +0.119 C 
BRANCH  19  20
ATOM     20  N   UNL     1      16.701  -0.447  30.777  0.00  0.00    -0.302 NA
ATOM     21  C   UNL     1      16.409   0.393  32.024  0.00  0.00    +0.066 C 
ATOM     22  C   UNL     1      16.538   1.922  31.723  0.00  0.00    -0.064 C 
ATOM     23  N   UNL     1      15.589   2.296  30.584  0.00  0.00    +0.379 N 
ATOM     24  C   UNL     1      15.666   3.744  30.337  0.00  0.00    -0.096 C 
ATOM     25  H   UNL     1      14.551   2.064  30.918  0.00  0.00    -0.082 HD
ATOM     26  C   UNL     1      15.870   1.464  29.341  0.00  0.00    -0.064 C 
ATOM     27  C   UNL     1      15.768  -0.054  29.658  0.00  0.00    +0.066 C 
ENDBRANCH  19  20
ENDBRANCH  18  19
ENDBRANCH  14  15
ENDBRANCH  12  13
TORSDOF 6
ENDMDL
MODEL 5
REMARK VINA RESULT:      -8.8     19.182     27.853
REMARK  Name = C:\Users\Docking\Desktop\test protocol\1iep_ligandH.pdb
REMARK  8 active torsions:
REMARK  status: ('A' for Active; 'I' for Inactive)
REMARK    1  A    between atoms: _5  and  _11
REMARK    2  A    between atoms: _19  and  _21
REMARK    3  A    between atoms: _22  and  _66
REMARK    4  A    between atoms: _27  and  _30
REMARK    5  A    between atoms: _32  and  _33
REMARK    6  A    between atoms: _38  and  _43
REMARK    7  A    between atoms: _43  and  _46
REMARK    8  A    between atoms: _53  and  _55
REMARK                            x       y       z     vdW  Elec       q    Type
REMARK                         _______ _______ _______ _____ _____    ______ ____
ROOT
ATOM     10  C   UNL     1       5.870  -3.453  26.812  0.00  0.00    +0.038 A 
ATOM     11  C   UNL     1       4.764  -2.716  26.316  0.00  0.00    +0.047 A 
ATOM     12  C   UNL     1       4.566  -1.321  26.679  0.00  0.00    +0.035 A 
ATOM     32  C   UNL     1       5.515  -0.707  27.547  0.00  0.00    +0.024 A 
ATOM     33  C   UNL     1       6.645  -1.442  28.061  0.00  0.00    +0.007 A 
ATOM     34  C   UNL     1       6.844  -2.819  27.709  0.00  0.00    -0.029 A 
ATOM     35  C   UNL     1       8.069  -3.559  28.295  0.00  0.00    +0.045 C 
ENDROOT
BRANCH  10   9
ATOM      4  C   UNL     1       7.596  -6.868  23.915  0.00  0.00    +0.077 A 
ATOM      5  C   UNL     1       8.249  -5.907  23.073  0.00  0.00    +0.048 A 
ATOM      6  C   UNL     1       8.110  -4.544  23.416  0.00  0.00    +0.116 A 
ATOM      7  N   UNL     1       7.371  -4.180  24.521  0.00  0.00    -0.223 NA
ATOM      8  C   UNL     1       6.753  -5.132  25.311  0.00  0.00    +0.220 A 
ATOM      9  N   UNL     1       6.012  -4.789  26.431  0.00  0.00    -0.283 N 
ATOM     36  H   UNL     1       5.565  -5.521  26.983  0.00  0.00    +0.155 HD
ATOM     37  N   UNL     1       6.869  -6.440  25.003  0.00  0.00    -0.214 NA
BRANCH   4   3
ATOM      1  C   UNL     1       8.590 -10.400  22.559  0.00  0.00    +0.020 A 
ATOM      2  C   UNL     1       8.576  -8.967  22.744  0.00  0.00    +0.013 A 
ATOM      3  C   UNL     1       7.652  -8.346  23.685  0.00  0.00    +0.019 A 
ATOM     38  C   UNL     1       6.749  -9.211  24.430  0.00  0.00    +0.120 A 
ATOM     39  N   UNL     1       6.785 -10.587  24.230  0.00  0.00    -0.263 NA
ATOM     40  C   UNL     1       7.668 -11.196  23.326  0.00  0.00    +0.111 A 
ENDBRANCH   4   3
ENDBRANCH  10   9
BRANCH  12  13
ATOM     13  N   UNL     1       3.458  -0.524  26.213  0.00  0.00    -0.281 N 
ATOM     14  C   UNL     1       3.262   0.005  24.948  0.00  0.00    +0.248 C 
ATOM     30  O   UNL     1       4.120   0.053  24.079  0.00  0.00    -0.270 OA
ATOM     31  H   UNL     1       2.730  -0.327  26.899  0.00  0.00    +0.155 HD
BRANCH  14  15
ATOM     15  C   UNL     1       1.925   0.577  24.604  0.00  0.00    +0.037 A 
ATOM     16  C   UNL     1       1.643   2.005  24.770  0.00  0.00    +0.013 A 
ATOM     17  C   UNL     1       0.339   2.527  24.447  0.00  0.00    +0.005 A 
ATOM     18  C   UNL     1      -0.693   1.620  23.951  0.00  0.00    -0.033 A 
ATOM     28  C   UNL     1      -0.385   0.208  23.790  0.00  0.00    +0.005 A 
ATOM     29  C   UNL     1       0.892  -0.307  24.108  0.00  0.00    +0.013 A 
BRANCH  18  19
ATOM     19  C   UNL     1      -2.119   2.086  23.601  0.00  0.00    +0.119 C 
BRANCH  19  20
ATOM     20  N   UNL     1      -3.232   1.587  24.462  0.00  0.00    -0.302 NA
ATOM     21  C   UNL     1      -2.715   0.846  25.698  0.00  0.00    +0.066 C 
ATOM     22  C   UNL     1      -3.893   0.350  26.599  0.00  0.00    -0.064 C 
ATOM     23  N   UNL     1      -4.817  -0.549  25.776  0.00  0.00    +0.379 N 
ATOM     24  C   UNL     1      -5.893  -1.064  26.635  0.00  0.00    -0.096 C 
ATOM     25  H   UNL     1      -4.216  -1.421  25.427  0.00  0.00    -0.082 HD
ATOM     26  C   UNL     1      -5.333   0.178  24.543  0.00  0.00    -0.064 C 
ATOM     27  C   UNL     1      -4.155   0.693  23.670  0.00  0.00    +0.066 C 
ENDBRANCH  19  20
ENDBRANCH  18  19
ENDBRANCH  14  15
ENDBRANCH  12  13
TORSDOF 6
ENDMDL
