MODEL 1
REMARK VINA RESULT:     -12.4      0.000      0.000
REMARK  Name = C:\Users\Docking\Desktop\test protocol\1iep_ligandH.pdb
REMARK  8 active torsions:
REMARK  status: ('A' for Active; 'I' for Inactive)
REMARK    1  A    between atoms: _5  and  _11
REMARK    2  A    between atoms: _19  and  _21
REMARK    3  A    between atoms: _22  and  _66
REMARK    4  A    between atoms: _27  and  _30
REMARK    5  A    between atoms: _32  and  _33
REMARK    6  A    between atoms: _38  and  _43
REMARK    7  A    between atoms: _43  and  _46
REMARK    8  A    between atoms: _53  and  _55
REMARK                            x       y       z     vdW  Elec       q    Type
REMARK                         _______ _______ _______ _____ _____    ______ ____
ROOT
ATOM     10  C   UNL     1     -21.835   9.154   2.354  0.00  0.00    +0.038 A 
ATOM     11  C   UNL     1     -21.770   8.982   0.948  0.00  0.00    +0.047 A 
ATOM     12  C   UNL     1     -21.431  10.090   0.069  0.00  0.00    +0.035 A 
ATOM     32  C   UNL     1     -21.160  11.360   0.656  0.00  0.00    +0.024 A 
ATOM     33  C   UNL     1     -21.222  11.553   2.084  0.00  0.00    +0.007 A 
ATOM     34  C   UNL     1     -21.559  10.464   2.956  0.00  0.00    -0.029 A 
ATOM     35  C   UNL     1     -21.618  10.731   4.478  0.00  0.00    +0.045 C 
ENDROOT
BRANCH  10   9
ATOM      4  C   UNL     1     -20.641   5.424   5.128  0.00  0.00    +0.077 A 
ATOM      5  C   UNL     1     -19.238   5.668   4.955  0.00  0.00    +0.048 A 
ATOM      6  C   UNL     1     -18.865   6.759   4.138  0.00  0.00    +0.116 A 
ATOM      7  N   UNL     1     -19.832   7.542   3.544  0.00  0.00    -0.223 NA
ATOM      8  C   UNL     1     -21.177   7.278   3.731  0.00  0.00    +0.220 A 
ATOM      9  N   UNL     1     -22.166   8.056   3.150  0.00  0.00    -0.283 N 
ATOM     36  H   UNL     1     -23.147   7.824   3.307  0.00  0.00    +0.155 HD
ATOM     37  N   UNL     1     -21.558   6.241   4.506  0.00  0.00    -0.214 NA
BRANCH   4   3
ATOM      1  C   UNL     1     -23.101   2.985   6.945  0.00  0.00    +0.020 A 
ATOM      2  C   UNL     1     -22.621   4.075   6.126  0.00  0.00    +0.013 A 
ATOM      3  C   UNL     1     -21.192   4.312   5.965  0.00  0.00    +0.019 A 
ATOM     38  C   UNL     1     -20.268   3.421   6.650  0.00  0.00    +0.120 A 
ATOM     39  N   UNL     1     -20.759   2.381   7.433  0.00  0.00    -0.263 NA
ATOM     40  C   UNL     1     -22.132   2.144   7.597  0.00  0.00    +0.111 A 
ENDBRANCH   4   3
ENDBRANCH  10   9
BRANCH  12  13
ATOM     13  N   UNL     1     -21.357   9.977  -1.367  0.00  0.00    -0.281 N 
ATOM     14  C   UNL     1     -21.570   8.851  -2.145  0.00  0.00    +0.248 C 
ATOM     30  O   UNL     1     -21.648   7.713  -1.706  0.00  0.00    -0.270 OA
ATOM     31  H   UNL     1     -21.119  10.831  -1.871  0.00  0.00    +0.155 HD
BRANCH  14  15
ATOM     15  C   UNL     1     -21.702   9.009  -3.625  0.00  0.00    +0.037 A 
ATOM     16  C   UNL     1     -22.335   7.975  -4.447  0.00  0.00    +0.013 A 
ATOM     17  C   UNL     1     -22.434   8.145  -5.875  0.00  0.00    +0.005 A 
ATOM     18  C   UNL     1     -21.900   9.358  -6.490  0.00  0.00    -0.033 A 
ATOM     28  C   UNL     1     -21.282  10.371  -5.650  0.00  0.00    +0.005 A 
ATOM     29  C   UNL     1     -21.182  10.207  -4.250  0.00  0.00    +0.013 A 
BRANCH  18  19
ATOM     19  C   UNL     1     -21.943   9.615  -8.008  0.00  0.00    +0.119 C 
BRANCH  19  20
ATOM     20  N   UNL     1     -20.679  10.070  -8.660  0.00  0.00    -0.302 NA
ATOM     21  C   UNL     1     -20.906  10.504 -10.111  0.00  0.00    +0.066 C 
ATOM     22  C   UNL     1     -19.578  11.000 -10.772  0.00  0.00    -0.064 C 
ATOM     23  N   UNL     1     -18.530   9.889 -10.697  0.00  0.00    +0.379 N 
ATOM     24  C   UNL     1     -17.299  10.330 -11.368  0.00  0.00    -0.096 C 
ATOM     25  H   UNL     1     -18.926   9.011 -11.259  0.00  0.00    -0.082 HD
ATOM     26  C   UNL     1     -18.300   9.449  -9.258  0.00  0.00    -0.064 C 
ATOM     27  C   UNL     1     -19.631   8.987  -8.601  0.00  0.00    +0.066 C 
ENDBRANCH  19  20
ENDBRANCH  18  19
ENDBRANCH  14  15
ENDBRANCH  12  13
TORSDOF 6
ENDMDL
MODEL 2
REMARK VINA RESULT:     -10.2      1.079      2.019
REMARK  Name = C:\Users\Docking\Desktop\test protocol\1iep_ligandH.pdb
REMARK  8 active torsions:
REMARK  status: ('A' for Active; 'I' for Inactive)
REMARK    1  A    between atoms: _5  and  _11
REMARK    2  A    between atoms: _19  and  _21
REMARK    3  A    between atoms: _22  and  _66
REMARK    4  A    between atoms: _27  and  _30
REMARK    5  A    between atoms: _32  and  _33
REMARK    6  A    between atoms: _38  and  _43
REMARK    7  A    between atoms: _43  and  _46
REMARK    8  A    between atoms: _53  and  _55
REMARK                            x       y       z     vdW  Elec       q    Type
REMARK                         _______ _______ _______ _____ _____    ______ ____
ROOT
ATOM     10  C   UNL     1     -20.379   8.853   2.375  0.00  0.00    +0.038 A 
ATOM     11  C   UNL     1     -20.379   8.684   0.967  0.00  0.00    +0.047 A 
ATOM     12  C   UNL     1     -20.850   9.739   0.083  0.00  0.00    +0.035 A 
ATOM     32  C   UNL     1     -21.311  10.954   0.667  0.00  0.00    +0.024 A 
ATOM     33  C   UNL     1     -21.318  11.143   2.096  0.00  0.00    +0.007 A 
ATOM     34  C   UNL     1     -20.858  10.105   2.974  0.00  0.00    -0.029 A 
ATOM     35  C   UNL     1     -20.894  10.359   4.499  0.00  0.00    +0.045 C 
ENDROOT
BRANCH  10   9
ATOM      4  C   UNL     1     -21.110   5.044   5.203  0.00  0.00    +0.077 A 
ATOM      5  C   UNL     1     -22.535   5.163   5.095  0.00  0.00    +0.048 A 
ATOM      6  C   UNL     1     -23.040   6.223   4.309  0.00  0.00    +0.116 A 
ATOM      7  N   UNL     1     -22.174   7.092   3.681  0.00  0.00    -0.223 NA
ATOM      8  C   UNL     1     -20.805   6.950   3.806  0.00  0.00    +0.220 A 
ATOM      9  N   UNL     1     -19.916   7.807   3.177  0.00  0.00    -0.283 N 
ATOM     36  H   UNL     1     -18.912   7.673   3.301  0.00  0.00    +0.155 HD
ATOM     37  N   UNL     1     -20.298   5.947   4.553  0.00  0.00    -0.214 NA
BRANCH   4   3
ATOM      1  C   UNL     1     -18.362   2.799   6.849  0.00  0.00    +0.020 A 
ATOM      2  C   UNL     1     -18.974   3.850   6.069  0.00  0.00    +0.013 A 
ATOM      3  C   UNL     1     -20.424   3.974   5.995  0.00  0.00    +0.019 A 
ATOM     38  C   UNL     1     -21.233   3.013   6.729  0.00  0.00    +0.120 A 
ATOM     39  N   UNL     1     -20.616   2.010   7.471  0.00  0.00    -0.263 NA
ATOM     40  C   UNL     1     -19.221   1.879   7.548  0.00  0.00    +0.111 A 
ENDBRANCH   4   3
ENDBRANCH  10   9
BRANCH  12  13
ATOM     13  N   UNL     1     -20.881   9.621  -1.354  0.00  0.00    -0.281 N 
ATOM     14  C   UNL     1     -21.669   8.780  -2.123  0.00  0.00    +0.248 C 
ATOM     30  O   UNL     1     -22.317   7.844  -1.679  0.00  0.00    -0.270 OA
ATOM     31  H   UNL     1     -20.246  10.233  -1.867  0.00  0.00    +0.155 HD
BRANCH  14  15
ATOM     15  C   UNL     1     -21.735   9.002  -3.599  0.00  0.00    +0.037 A 
ATOM     16  C   UNL     1     -21.292  10.263  -4.199  0.00  0.00    +0.013 A 
ATOM     17  C   UNL     1     -21.382  10.458  -5.624  0.00  0.00    +0.005 A 
ATOM     18  C   UNL     1     -21.917   9.386  -6.460  0.00  0.00    -0.033 A 
ATOM     28  C   UNL     1     -22.345   8.143  -5.840  0.00  0.00    +0.005 A 
ATOM     29  C   UNL     1     -22.258   7.949  -4.443  0.00  0.00    +0.013 A 
BRANCH  18  19
ATOM     19  C   UNL     1     -22.069   9.514  -7.988  0.00  0.00    +0.119 C 
BRANCH  19  20
ATOM     20  N   UNL     1     -20.823   9.717  -8.785  0.00  0.00    -0.302 NA
ATOM     21  C   UNL     1     -19.781   8.630  -8.509  0.00  0.00    +0.066 C 
ATOM     22  C   UNL     1     -18.492   8.845  -9.367  0.00  0.00    -0.064 C 
ATOM     23  N   UNL     1     -17.916  10.232  -9.079  0.00  0.00    +0.379 N 
ATOM     24  C   UNL     1     -16.673  10.416  -9.841  0.00  0.00    -0.096 C 
ATOM     25  H   UNL     1     -17.658  10.273  -7.995  0.00  0.00    -0.082 HD
ATOM     26  C   UNL     1     -18.947  11.320  -9.348  0.00  0.00    -0.064 C 
ATOM     27  C   UNL     1     -20.235  11.080  -8.512  0.00  0.00    +0.066 C 
ENDBRANCH  19  20
ENDBRANCH  18  19
ENDBRANCH  14  15
ENDBRANCH  12  13
TORSDOF 6
ENDMDL
MODEL 3
REMARK VINA RESULT:     -10.2      3.205     12.993
REMARK  Name = C:\Users\Docking\Desktop\test protocol\1iep_ligandH.pdb
REMARK  8 active torsions:
REMARK  status: ('A' for Active; 'I' for Inactive)
REMARK    1  A    between atoms: _5  and  _11
REMARK    2  A    between atoms: _19  and  _21
REMARK    3  A    between atoms: _22  and  _66
REMARK    4  A    between atoms: _27  and  _30
REMARK    5  A    between atoms: _32  and  _33
REMARK    6  A    between atoms: _38  and  _43
REMARK    7  A    between atoms: _43  and  _46
REMARK    8  A    between atoms: _53  and  _55
REMARK                            x       y       z     vdW  Elec       q    Type
REMARK                         _______ _______ _______ _____ _____    ______ ____
ROOT
ATOM     10  C   UNL     1     -21.206  10.129  -5.167  0.00  0.00    +0.038 A 
ATOM     11  C   UNL     1     -20.893   9.848  -3.813  0.00  0.00    +0.047 A 
ATOM     12  C   UNL     1     -21.483   8.710  -3.125  0.00  0.00    +0.035 A 
ATOM     32  C   UNL     1     -22.386   7.877  -3.848  0.00  0.00    +0.024 A 
ATOM     33  C   UNL     1     -22.716   8.149  -5.225  0.00  0.00    +0.007 A 
ATOM     34  C   UNL     1     -22.139   9.272  -5.908  0.00  0.00    -0.029 A 
ATOM     35  C   UNL     1     -22.534   9.520  -7.383  0.00  0.00    +0.045 C 
ENDROOT
BRANCH  10   9
ATOM      4  C   UNL     1     -17.374  12.799  -6.278  0.00  0.00    +0.077 A 
ATOM      5  C   UNL     1     -16.488  11.931  -5.557  0.00  0.00    +0.048 A 
ATOM      6  C   UNL     1     -17.058  10.813  -4.909  0.00  0.00    +0.116 A 
ATOM      7  N   UNL     1     -18.416  10.589  -4.982  0.00  0.00    -0.223 NA
ATOM      8  C   UNL     1     -19.243  11.446  -5.685  0.00  0.00    +0.220 A 
ATOM      9  N   UNL     1     -20.610  11.235  -5.778  0.00  0.00    -0.283 N 
ATOM     36  H   UNL     1     -21.188  11.895  -6.300  0.00  0.00    +0.155 HD
ATOM     37  N   UNL     1     -18.723  12.521  -6.311  0.00  0.00    -0.214 NA
BRANCH   4   3
ATOM      1  C   UNL     1     -16.247  16.447  -7.124  0.00  0.00    +0.020 A 
ATOM      2  C   UNL     1     -16.684  15.299  -6.363  0.00  0.00    +0.013 A 
ATOM      3  C   UNL     1     -16.922  14.019  -7.018  0.00  0.00    +0.019 A 
ATOM     38  C   UNL     1     -16.707  13.933  -8.455  0.00  0.00    +0.120 A 
ATOM     39  N   UNL     1     -16.287  15.056  -9.161  0.00  0.00    -0.263 NA
ATOM     40  C   UNL     1     -16.056  16.294  -8.542  0.00  0.00    +0.111 A 
ENDBRANCH   4   3
ENDBRANCH  10   9
BRANCH  12  13
ATOM     13  N   UNL     1     -21.209   8.379  -1.749  0.00  0.00    -0.281 N 
ATOM     14  C   UNL     1     -21.448   9.151  -0.624  0.00  0.00    +0.248 C 
ATOM     30  O   UNL     1     -21.740  10.337  -0.649  0.00  0.00    -0.270 OA
ATOM     31  H   UNL     1     -20.787   7.465  -1.584  0.00  0.00    +0.155 HD
BRANCH  14  15
ATOM     15  C   UNL     1     -21.333   8.517   0.725  0.00  0.00    +0.037 A 
ATOM     16  C   UNL     1     -22.298   7.512   1.177  0.00  0.00    +0.013 A 
ATOM     17  C   UNL     1     -22.173   6.928   2.489  0.00  0.00    +0.005 A 
ATOM     18  C   UNL     1     -21.077   7.348   3.359  0.00  0.00    -0.033 A 
ATOM     28  C   UNL     1     -20.130   8.343   2.883  0.00  0.00    +0.005 A 
ATOM     29  C   UNL     1     -20.250   8.918   1.598  0.00  0.00    +0.013 A 
BRANCH  18  19
ATOM     19  C   UNL     1     -20.879   6.794   4.782  0.00  0.00    +0.119 C 
BRANCH  19  20
ATOM     20  N   UNL     1     -20.786   5.311   4.932  0.00  0.00    -0.302 NA
ATOM     21  C   UNL     1     -21.698   4.788   6.045  0.00  0.00    +0.066 C 
ATOM     22  C   UNL     1     -21.605   3.232   6.173  0.00  0.00    -0.064 C 
ATOM     23  N   UNL     1     -20.152   2.831   6.430  0.00  0.00    +0.379 N 
ATOM     24  C   UNL     1     -20.070   1.374   6.609  0.00  0.00    -0.096 C 
ATOM     25  H   UNL     1     -19.833   3.307   7.387  0.00  0.00    -0.082 HD
ATOM     26  C   UNL     1     -19.237   3.349   5.330  0.00  0.00    -0.064 C 
ATOM     27  C   UNL     1     -19.359   4.893   5.191  0.00  0.00    +0.066 C 
ENDBRANCH  19  20
ENDBRANCH  18  19
ENDBRANCH  14  15
ENDBRANCH  12  13
TORSDOF 6
ENDMDL
MODEL 4
REMARK VINA RESULT:     -10.1      5.952     11.939
REMARK  Name = C:\Users\Docking\Desktop\test protocol\1iep_ligandH.pdb
REMARK  8 active torsions:
REMARK  status: ('A' for Active; 'I' for Inactive)
REMARK    1  A    between atoms: _5  and  _11
REMARK    2  A    between atoms: _19  and  _21
REMARK    3  A    between atoms: _22  and  _66
REMARK    4  A    between atoms: _27  and  _30
REMARK    5  A    between atoms: _32  and  _33
REMARK    6  A    between atoms: _38  and  _43
REMARK    7  A    between atoms: _43  and  _46
REMARK    8  A    between atoms: _53  and  _55
REMARK                            x       y       z     vdW  Elec       q    Type
REMARK                         _______ _______ _______ _____ _____    ______ ____
ROOT
ATOM     10  C   UNL     1     -18.541  -0.952   9.268  0.00  0.00    +0.038 A 
ATOM     11  C   UNL     1     -19.156   0.065   8.494  0.00  0.00    +0.047 A 
ATOM     12  C   UNL     1     -18.708   1.446   8.575  0.00  0.00    +0.035 A 
ATOM     32  C   UNL     1     -17.629   1.756   9.454  0.00  0.00    +0.024 A 
ATOM     33  C   UNL     1     -16.994   0.735  10.249  0.00  0.00    +0.007 A 
ATOM     34  C   UNL     1     -17.433  -0.629  10.175  0.00  0.00    -0.029 A 
ATOM     35  C   UNL     1     -16.719  -1.681  11.055  0.00  0.00    +0.045 C 
ENDROOT
BRANCH  10   9
ATOM      4  C   UNL     1     -21.667  -4.438  10.325  0.00  0.00    +0.077 A 
ATOM      5  C   UNL     1     -22.411  -3.585  11.206  0.00  0.00    +0.048 A 
ATOM      6  C   UNL     1     -21.952  -2.258  11.365  0.00  0.00    +0.116 A 
ATOM      7  N   UNL     1     -20.831  -1.828  10.689  0.00  0.00    -0.223 NA
ATOM      8  C   UNL     1     -20.136  -2.677   9.848  0.00  0.00    +0.220 A 
ATOM      9  N   UNL     1     -19.011  -2.262   9.151  0.00  0.00    -0.283 N 
ATOM     36  H   UNL     1     -18.521  -2.921   8.546  0.00  0.00    +0.155 HD
ATOM     37  N   UNL     1     -20.553  -3.949   9.680  0.00  0.00    -0.214 NA
BRANCH   4   3
ATOM      1  C   UNL     1     -23.623  -7.818  10.107  0.00  0.00    +0.020 A 
ATOM      2  C   UNL     1     -23.325  -6.434  10.395  0.00  0.00    +0.013 A 
ATOM      3  C   UNL     1     -22.028  -5.865  10.050  0.00  0.00    +0.019 A 
ATOM     38  C   UNL     1     -21.048  -6.730   9.410  0.00  0.00    +0.120 A 
ATOM     39  N   UNL     1     -21.363  -8.059   9.147  0.00  0.00    -0.263 NA
ATOM     40  C   UNL     1     -22.607  -8.619   9.476  0.00  0.00    +0.111 A 
ENDBRANCH   4   3
ENDBRANCH  10   9
BRANCH  12  13
ATOM     13  N   UNL     1     -19.299   2.523   7.820  0.00  0.00    -0.281 N 
ATOM     14  C   UNL     1     -18.672   3.390   6.940  0.00  0.00    +0.248 C 
ATOM     30  O   UNL     1     -17.461   3.509   6.832  0.00  0.00    -0.270 OA
ATOM     31  H   UNL     1     -20.301   2.662   7.949  0.00  0.00    +0.155 HD
BRANCH  14  15
ATOM     15  C   UNL     1     -19.512   4.263   6.065  0.00  0.00    +0.037 A 
ATOM     16  C   UNL     1     -18.906   5.261   5.180  0.00  0.00    +0.013 A 
ATOM     17  C   UNL     1     -19.740   6.102   4.359  0.00  0.00    +0.005 A 
ATOM     18  C   UNL     1     -21.192   5.947   4.418  0.00  0.00    -0.033 A 
ATOM     28  C   UNL     1     -21.767   4.945   5.300  0.00  0.00    +0.005 A 
ATOM     29  C   UNL     1     -20.952   4.120   6.108  0.00  0.00    +0.013 A 
BRANCH  18  19
ATOM     19  C   UNL     1     -22.160   6.815   3.592  0.00  0.00    +0.119 C 
BRANCH  19  20
ATOM     20  N   UNL     1     -21.566   7.923   2.785  0.00  0.00    -0.302 NA
ATOM     21  C   UNL     1     -21.556   9.249   3.551  0.00  0.00    +0.066 C 
ATOM     22  C   UNL     1     -20.911  10.392   2.701  0.00  0.00    -0.064 C 
ATOM     23  N   UNL     1     -21.672  10.534   1.382  0.00  0.00    +0.379 N 
ATOM     24  C   UNL     1     -21.105  11.646   0.606  0.00  0.00    -0.096 C 
ATOM     25  H   UNL     1     -22.728  10.796   1.628  0.00  0.00    -0.082 HD
ATOM     26  C   UNL     1     -21.690   9.219   0.615  0.00  0.00    -0.064 C 
ATOM     27  C   UNL     1     -22.306   8.083   1.480  0.00  0.00    +0.066 C 
ENDBRANCH  19  20
ENDBRANCH  18  19
ENDBRANCH  14  15
ENDBRANCH  12  13
TORSDOF 6
ENDMDL
MODEL 5
REMARK VINA RESULT:      -9.8      6.725     14.041
REMARK  Name = C:\Users\Docking\Desktop\test protocol\1iep_ligandH.pdb
REMARK  8 active torsions:
REMARK  status: ('A' for Active; 'I' for Inactive)
REMARK    1  A    between atoms: _5  and  _11
REMARK    2  A    between atoms: _19  and  _21
REMARK    3  A    between atoms: _22  and  _66
REMARK    4  A    between atoms: _27  and  _30
REMARK    5  A    between atoms: _32  and  _33
REMARK    6  A    between atoms: _38  and  _43
REMARK    7  A    between atoms: _43  and  _46
REMARK    8  A    between atoms: _53  and  _55
REMARK                            x       y       z     vdW  Elec       q    Type
REMARK                         _______ _______ _______ _____ _____    ______ ____
ROOT
ATOM     10  C   UNL     1     -19.907   7.366   3.512  0.00  0.00    +0.038 A 
ATOM     11  C   UNL     1     -19.871   6.356   4.507  0.00  0.00    +0.047 A 
ATOM     12  C   UNL     1     -21.076   5.639   4.895  0.00  0.00    +0.035 A 
ATOM     32  C   UNL     1     -22.300   5.974   4.247  0.00  0.00    +0.024 A 
ATOM     33  C   UNL     1     -22.355   6.999   3.234  0.00  0.00    +0.007 A 
ATOM     34  C   UNL     1     -21.170   7.711   2.849  0.00  0.00    -0.029 A 
ATOM     35  C   UNL     1     -21.289   8.805   1.762  0.00  0.00    +0.045 C 
ENDROOT
BRANCH  10   9
ATOM      4  C   UNL     1     -15.117   7.663   3.414  0.00  0.00    +0.077 A 
ATOM      5  C   UNL     1     -14.967   6.418   4.111  0.00  0.00    +0.048 A 
ATOM      6  C   UNL     1     -16.147   5.735   4.483  0.00  0.00    +0.116 A 
ATOM      7  N   UNL     1     -17.380   6.268   4.176  0.00  0.00    -0.223 NA
ATOM      8  C   UNL     1     -17.490   7.472   3.504  0.00  0.00    +0.220 A 
ATOM      9  N   UNL     1     -18.720   8.022   3.178  0.00  0.00    -0.283 N 
ATOM     36  H   UNL     1     -18.759   8.916   2.689  0.00  0.00    +0.155 HD
ATOM     37  N   UNL     1     -16.378   8.143   3.140  0.00  0.00    -0.214 NA
BRANCH   4   3
ATOM      1  C   UNL     1     -12.630  10.639   2.912  0.00  0.00    +0.020 A 
ATOM      2  C   UNL     1     -13.759   9.875   3.388  0.00  0.00    +0.013 A 
ATOM      3  C   UNL     1     -13.965   8.499   2.952  0.00  0.00    +0.019 A 
ATOM     38  C   UNL     1     -13.001   7.922   2.028  0.00  0.00    +0.120 A 
ATOM     39  N   UNL     1     -11.923   8.682   1.585  0.00  0.00    -0.263 NA
ATOM     40  C   UNL     1     -11.716  10.008   1.996  0.00  0.00    +0.111 A 
ENDBRANCH   4   3
ENDBRANCH  10   9
BRANCH  12  13
ATOM     13  N   UNL     1     -21.102   4.609   5.904  0.00  0.00    -0.281 N 
ATOM     14  C   UNL     1     -20.226   3.547   6.061  0.00  0.00    +0.248 C 
ATOM     30  O   UNL     1     -19.406   3.199   5.224  0.00  0.00    -0.270 OA
ATOM     31  H   UNL     1     -21.859   4.670   6.586  0.00  0.00    +0.155 HD
BRANCH  14  15
ATOM     15  C   UNL     1     -20.278   2.749   7.323  0.00  0.00    +0.037 A 
ATOM     16  C   UNL     1     -19.056   2.397   8.050  0.00  0.00    +0.013 A 
ATOM     17  C   UNL     1     -19.133   1.611   9.256  0.00  0.00    +0.005 A 
ATOM     18  C   UNL     1     -20.439   1.173   9.743  0.00  0.00    -0.033 A 
ATOM     28  C   UNL     1     -21.635   1.541   9.005  0.00  0.00    +0.005 A 
ATOM     29  C   UNL     1     -21.564   2.310   7.822  0.00  0.00    +0.013 A 
BRANCH  18  19
ATOM     19  C   UNL     1     -20.614   0.313  11.009  0.00  0.00    +0.119 C 
BRANCH  19  20
ATOM     20  N   UNL     1     -20.506  -1.168  10.851  0.00  0.00    -0.302 NA
ATOM     21  C   UNL     1     -19.680  -1.555   9.621  0.00  0.00    +0.066 C 
ATOM     22  C   UNL     1     -19.558  -3.107   9.483  0.00  0.00    -0.064 C 
ATOM     23  N   UNL     1     -20.957  -3.722   9.412  0.00  0.00    +0.379 N 
ATOM     24  C   UNL     1     -20.846  -5.176   9.224  0.00  0.00    -0.096 C 
ATOM     25  H   UNL     1     -21.465  -3.302   8.512  0.00  0.00    -0.082 HD
ATOM     26  C   UNL     1     -21.786  -3.339  10.630  0.00  0.00    -0.064 C 
ATOM     27  C   UNL     1     -21.876  -1.794  10.775  0.00  0.00    +0.066 C 
ENDBRANCH  19  20
ENDBRANCH  18  19
ENDBRANCH  14  15
ENDBRANCH  12  13
TORSDOF 6
ENDMDL
