MODEL 1
REMARK VINA RESULT:      -7.8      0.000      0.000
REMARK  Name = C:\Users\Docking\Desktop\test protocol\1iep_ligandH.pdb
REMARK  8 active torsions:
REMARK  status: ('A' for Active; 'I' for Inactive)
REMARK    1  A    between atoms: _5  and  _11
REMARK    2  A    between atoms: _19  and  _21
REMARK    3  A    between atoms: _22  and  _66
REMARK    4  A    between atoms: _27  and  _30
REMARK    5  A    between atoms: _32  and  _33
REMARK    6  A    between atoms: _38  and  _43
REMARK    7  A    between atoms: _43  and  _46
REMARK    8  A    between atoms: _53  and  _55
REMARK                            x       y       z     vdW  Elec       q    Type
REMARK                         _______ _______ _______ _____ _____    ______ ____
ROOT
ATOM     10  C   UNL     1     -14.463  18.563  -0.664  0.00  0.00    +0.038 A 
ATOM     11  C   UNL     1     -14.247  17.518   0.271  0.00  0.00    +0.047 A 
ATOM     12  C   UNL     1     -15.179  17.280   1.362  0.00  0.00    +0.035 A 
ATOM     32  C   UNL     1     -16.322  18.124   1.470  0.00  0.00    +0.024 A 
ATOM     33  C   UNL     1     -16.557  19.191   0.529  0.00  0.00    +0.007 A 
ATOM     34  C   UNL     1     -15.640  19.432  -0.548  0.00  0.00    -0.029 A 
ATOM     35  C   UNL     1     -15.938  20.594  -1.523  0.00  0.00    +0.045 C 
ENDROOT
BRANCH  10   9
ATOM      4  C   UNL     1     -10.225  20.093  -2.319  0.00  0.00    +0.077 A 
ATOM      5  C   UNL     1      -9.836  20.592  -1.031  0.00  0.00    +0.048 A 
ATOM      6  C   UNL     1     -10.758  20.443   0.028  0.00  0.00    +0.116 A 
ATOM      7  N   UNL     1     -11.976  19.836  -0.194  0.00  0.00    -0.223 NA
ATOM      8  C   UNL     1     -12.320  19.367  -1.448  0.00  0.00    +0.220 A 
ATOM      9  N   UNL     1     -13.535  18.746  -1.692  0.00  0.00    -0.283 N 
ATOM     36  H   UNL     1     -13.755  18.420  -2.633  0.00  0.00    +0.155 HD
ATOM     37  N   UNL     1     -11.457  19.499  -2.477  0.00  0.00    -0.214 NA
BRANCH   4   3
ATOM      1  C   UNL     1      -8.722  19.484  -5.878  0.00  0.00    +0.020 A 
ATOM      2  C   UNL     1      -9.589  19.367  -4.728  0.00  0.00    +0.013 A 
ATOM      3  C   UNL     1      -9.358  20.174  -3.537  0.00  0.00    +0.019 A 
ATOM     38  C   UNL     1      -8.234  21.097  -3.541  0.00  0.00    +0.120 A 
ATOM     39  N   UNL     1      -7.415  21.187  -4.663  0.00  0.00    -0.263 NA
ATOM     40  C   UNL     1      -7.626  20.415  -5.815  0.00  0.00    +0.111 A 
ENDBRANCH   4   3
ENDBRANCH  10   9
BRANCH  12  13
ATOM     13  N   UNL     1     -15.007  16.240   2.346  0.00  0.00    -0.281 N 
ATOM     14  C   UNL     1     -13.892  15.980   3.125  0.00  0.00    +0.248 C 
ATOM     30  O   UNL     1     -12.789  16.474   2.940  0.00  0.00    -0.270 OA
ATOM     31  H   UNL     1     -15.806  15.620   2.485  0.00  0.00    +0.155 HD
BRANCH  14  15
ATOM     15  C   UNL     1     -14.015  15.022   4.265  0.00  0.00    +0.037 A 
ATOM     16  C   UNL     1     -14.226  15.495   5.636  0.00  0.00    +0.013 A 
ATOM     17  C   UNL     1     -14.324  14.550   6.720  0.00  0.00    +0.005 A 
ATOM     18  C   UNL     1     -14.213  13.121   6.437  0.00  0.00    -0.033 A 
ATOM     28  C   UNL     1     -14.009  12.679   5.068  0.00  0.00    +0.005 A 
ATOM     29  C   UNL     1     -13.911  13.602   4.002  0.00  0.00    +0.013 A 
BRANCH  18  19
ATOM     19  C   UNL     1     -14.285  12.043   7.535  0.00  0.00    +0.119 C 
BRANCH  19  20
ATOM     20  N   UNL     1     -14.295  10.617   7.093  0.00  0.00    -0.302 NA
ATOM     21  C   UNL     1     -15.714  10.112   6.814  0.00  0.00    +0.066 C 
ATOM     22  C   UNL     1     -15.704   8.625   6.331  0.00  0.00    -0.064 C 
ATOM     23  N   UNL     1     -15.016   7.754   7.384  0.00  0.00    +0.379 N 
ATOM     24  C   UNL     1     -15.057   6.347   6.959  0.00  0.00    -0.096 C 
ATOM     25  H   UNL     1     -15.602   7.840   8.328  0.00  0.00    -0.082 HD
ATOM     26  C   UNL     1     -13.606   8.251   7.669  0.00  0.00    -0.064 C 
ATOM     27  C   UNL     1     -13.624   9.738   8.120  0.00  0.00    +0.066 C 
ENDBRANCH  19  20
ENDBRANCH  18  19
ENDBRANCH  14  15
ENDBRANCH  12  13
TORSDOF 6
ENDMDL
MODEL 2
REMARK VINA RESULT:      -7.6      1.634      2.568
REMARK  Name = C:\Users\Docking\Desktop\test protocol\1iep_ligandH.pdb
REMARK  8 active torsions:
REMARK  status: ('A' for Active; 'I' for Inactive)
REMARK    1  A    between atoms: _5  and  _11
REMARK    2  A    between atoms: _19  and  _21
REMARK    3  A    between atoms: _22  and  _66
REMARK    4  A    between atoms: _27  and  _30
REMARK    5  A    between atoms: _32  and  _33
REMARK    6  A    between atoms: _38  and  _43
REMARK    7  A    between atoms: _43  and  _46
REMARK    8  A    between atoms: _53  and  _55
REMARK                            x       y       z     vdW  Elec       q    Type
REMARK                         _______ _______ _______ _____ _____    ______ ____
ROOT
ATOM     10  C   UNL     1     -14.261  18.641  -0.518  0.00  0.00    +0.038 A 
ATOM     11  C   UNL     1     -14.101  17.517   0.333  0.00  0.00    +0.047 A 
ATOM     12  C   UNL     1     -15.030  17.259   1.422  0.00  0.00    +0.035 A 
ATOM     32  C   UNL     1     -16.112  18.166   1.616  0.00  0.00    +0.024 A 
ATOM     33  C   UNL     1     -16.289  19.314   0.762  0.00  0.00    +0.007 A 
ATOM     34  C   UNL     1     -15.375  19.575  -0.313  0.00  0.00    -0.029 A 
ATOM     35  C   UNL     1     -15.610  20.824  -1.193  0.00  0.00    +0.045 C 
ENDROOT
BRANCH  10   9
ATOM      4  C   UNL     1     -10.050  20.230  -2.183  0.00  0.00    +0.077 A 
ATOM      5  C   UNL     1      -9.663  20.731  -0.896  0.00  0.00    +0.048 A 
ATOM      6  C   UNL     1     -10.579  20.566   0.167  0.00  0.00    +0.116 A 
ATOM      7  N   UNL     1     -11.789  19.944  -0.052  0.00  0.00    -0.223 NA
ATOM      8  C   UNL     1     -12.132  19.474  -1.307  0.00  0.00    +0.220 A 
ATOM      9  N   UNL     1     -13.341  18.839  -1.549  0.00  0.00    -0.283 N 
ATOM     36  H   UNL     1     -13.559  18.514  -2.490  0.00  0.00    +0.155 HD
ATOM     37  N   UNL     1     -11.275  19.621  -2.339  0.00  0.00    -0.214 NA
BRANCH   4   3
ATOM      1  C   UNL     1      -8.584  19.690  -5.769  0.00  0.00    +0.020 A 
ATOM      2  C   UNL     1      -9.446  19.560  -4.617  0.00  0.00    +0.013 A 
ATOM      3  C   UNL     1      -9.189  20.326  -3.404  0.00  0.00    +0.019 A 
ATOM     38  C   UNL     1      -8.043  21.223  -3.390  0.00  0.00    +0.120 A 
ATOM     39  N   UNL     1      -7.229  21.327  -4.514  0.00  0.00    -0.263 NA
ATOM     40  C   UNL     1      -7.466  20.593  -5.686  0.00  0.00    +0.111 A 
ENDBRANCH   4   3
ENDBRANCH  10   9
BRANCH  12  13
ATOM     13  N   UNL     1     -14.913  16.139   2.323  0.00  0.00    -0.281 N 
ATOM     14  C   UNL     1     -13.873  15.848   3.191  0.00  0.00    +0.248 C 
ATOM     30  O   UNL     1     -12.781  16.397   3.169  0.00  0.00    -0.270 OA
ATOM     31  H   UNL     1     -15.692  15.480   2.320  0.00  0.00    +0.155 HD
BRANCH  14  15
ATOM     15  C   UNL     1     -14.069  14.785   4.222  0.00  0.00    +0.037 A 
ATOM     16  C   UNL     1     -14.140  13.369   3.850  0.00  0.00    +0.013 A 
ATOM     17  C   UNL     1     -14.347  12.365   4.862  0.00  0.00    +0.005 A 
ATOM     18  C   UNL     1     -14.483  12.773   6.259  0.00  0.00    -0.033 A 
ATOM     28  C   UNL     1     -14.403  14.183   6.601  0.00  0.00    +0.005 A 
ATOM     29  C   UNL     1     -14.201  15.171   5.611  0.00  0.00    +0.013 A 
BRANCH  18  19
ATOM     19  C   UNL     1     -14.726  11.771   7.403  0.00  0.00    +0.119 C 
BRANCH  19  20
ATOM     20  N   UNL     1     -14.356  12.205   8.783  0.00  0.00    -0.302 NA
ATOM     21  C   UNL     1     -13.392  11.223   9.455  0.00  0.00    +0.066 C 
ATOM     22  C   UNL     1     -12.998  11.704  10.889  0.00  0.00    -0.064 C 
ATOM     23  N   UNL     1     -14.263  11.883  11.730  0.00  0.00    +0.379 N 
ATOM     24  C   UNL     1     -13.891  12.280  13.096  0.00  0.00    -0.096 C 
ATOM     25  H   UNL     1     -14.771  10.893  11.791  0.00  0.00    -0.082 HD
ATOM     26  C   UNL     1     -15.228  12.856  11.068  0.00  0.00    -0.064 C 
ATOM     27  C   UNL     1     -15.590  12.384   9.632  0.00  0.00    +0.066 C 
ENDBRANCH  19  20
ENDBRANCH  18  19
ENDBRANCH  14  15
ENDBRANCH  12  13
TORSDOF 6
ENDMDL
MODEL 3
REMARK VINA RESULT:      -7.3      8.028     14.971
REMARK  Name = C:\Users\Docking\Desktop\test protocol\1iep_ligandH.pdb
REMARK  8 active torsions:
REMARK  status: ('A' for Active; 'I' for Inactive)
REMARK    1  A    between atoms: _5  and  _11
REMARK    2  A    between atoms: _19  and  _21
REMARK    3  A    between atoms: _22  and  _66
REMARK    4  A    between atoms: _27  and  _30
REMARK    5  A    between atoms: _32  and  _33
REMARK    6  A    between atoms: _38  and  _43
REMARK    7  A    between atoms: _43  and  _46
REMARK    8  A    between atoms: _53  and  _55
REMARK                            x       y       z     vdW  Elec       q    Type
REMARK                         _______ _______ _______ _____ _____    ______ ____
ROOT
ATOM     10  C   UNL     1     -10.296  11.586  14.588  0.00  0.00    +0.038 A 
ATOM     11  C   UNL     1     -10.842  11.703  13.284  0.00  0.00    +0.047 A 
ATOM     12  C   UNL     1     -11.823  10.748  12.792  0.00  0.00    +0.035 A 
ATOM     32  C   UNL     1     -12.226   9.687  13.655  0.00  0.00    +0.024 A 
ATOM     33  C   UNL     1     -11.680   9.554  14.982  0.00  0.00    +0.007 A 
ATOM     34  C   UNL     1     -10.711  10.491  15.473  0.00  0.00    -0.029 A 
ATOM     35  C   UNL     1     -10.154  10.295  16.902  0.00  0.00    +0.045 C 
ENDROOT
BRANCH  10   9
ATOM      4  C   UNL     1      -9.125  15.765  16.638  0.00  0.00    +0.077 A 
ATOM      5  C   UNL     1     -10.500  16.107  16.865  0.00  0.00    +0.048 A 
ATOM      6  C   UNL     1     -11.478  15.183  16.432  0.00  0.00    +0.116 A 
ATOM      7  N   UNL     1     -11.098  14.009  15.820  0.00  0.00    -0.223 NA
ATOM      8  C   UNL     1      -9.763  13.711  15.616  0.00  0.00    +0.220 A 
ATOM      9  N   UNL     1      -9.358  12.531  15.010  0.00  0.00    -0.283 N 
ATOM     36  H   UNL     1      -8.364  12.352  14.870  0.00  0.00    +0.155 HD
ATOM     37  N   UNL     1      -8.810  14.577  16.019  0.00  0.00    -0.214 NA
BRANCH   4   3
ATOM      1  C   UNL     1      -6.487  18.652  16.748  0.00  0.00    +0.020 A 
ATOM      2  C   UNL     1      -7.606  17.845  16.316  0.00  0.00    +0.013 A 
ATOM      3  C   UNL     1      -7.977  16.637  17.042  0.00  0.00    +0.019 A 
ATOM     38  C   UNL     1      -7.190  16.270  18.210  0.00  0.00    +0.120 A 
ATOM     39  N   UNL     1      -6.118  17.066  18.601  0.00  0.00    -0.263 NA
ATOM     40  C   UNL     1      -5.750  18.230  17.910  0.00  0.00    +0.111 A 
ENDBRANCH   4   3
ENDBRANCH  10   9
BRANCH  12  13
ATOM     13  N   UNL     1     -12.406  10.810  11.475  0.00  0.00    -0.281 N 
ATOM     14  C   UNL     1     -13.309  11.741  10.986  0.00  0.00    +0.248 C 
ATOM     30  O   UNL     1     -13.918  12.542  11.679  0.00  0.00    -0.270 OA
ATOM     31  H   UNL     1     -12.119  10.079  10.823  0.00  0.00    +0.155 HD
BRANCH  14  15
ATOM     15  C   UNL     1     -13.585  11.777   9.518  0.00  0.00    +0.037 A 
ATOM     16  C   UNL     1     -13.469  10.572   8.693  0.00  0.00    +0.013 A 
ATOM     17  C   UNL     1     -13.724  10.638   7.276  0.00  0.00    +0.005 A 
ATOM     18  C   UNL     1     -14.101  11.916   6.675  0.00  0.00    -0.033 A 
ATOM     28  C   UNL     1     -14.215  13.094   7.518  0.00  0.00    +0.005 A 
ATOM     29  C   UNL     1     -13.964  13.033   8.907  0.00  0.00    +0.013 A 
BRANCH  18  19
ATOM     19  C   UNL     1     -14.372  12.084   5.168  0.00  0.00    +0.119 C 
BRANCH  19  20
ATOM     20  N   UNL     1     -15.042  13.344   4.730  0.00  0.00    -0.302 NA
ATOM     21  C   UNL     1     -16.173  13.078   3.733  0.00  0.00    +0.066 C 
ATOM     22  C   UNL     1     -16.878  14.405   3.303  0.00  0.00    -0.064 C 
ATOM     23  N   UNL     1     -15.842  15.359   2.704  0.00  0.00    +0.379 N 
ATOM     24  C   UNL     1     -16.510  16.585   2.246  0.00  0.00    -0.096 C 
ATOM     25  H   UNL     1     -15.400  14.860   1.811  0.00  0.00    -0.082 HD
ATOM     26  C   UNL     1     -14.712  15.627   3.689  0.00  0.00    -0.064 C 
ATOM     27  C   UNL     1     -14.038  14.299   4.132  0.00  0.00    +0.066 C 
ENDBRANCH  19  20
ENDBRANCH  18  19
ENDBRANCH  14  15
ENDBRANCH  12  13
TORSDOF 6
ENDMDL
MODEL 4
REMARK VINA RESULT:      -7.3     10.472     12.100
REMARK  Name = C:\Users\Docking\Desktop\test protocol\1iep_ligandH.pdb
REMARK  8 active torsions:
REMARK  status: ('A' for Active; 'I' for Inactive)
REMARK    1  A    between atoms: _5  and  _11
REMARK    2  A    between atoms: _19  and  _21
REMARK    3  A    between atoms: _22  and  _66
REMARK    4  A    between atoms: _27  and  _30
REMARK    5  A    between atoms: _32  and  _33
REMARK    6  A    between atoms: _38  and  _43
REMARK    7  A    between atoms: _43  and  _46
REMARK    8  A    between atoms: _53  and  _55
REMARK                            x       y       z     vdW  Elec       q    Type
REMARK                         _______ _______ _______ _____ _____    ______ ____
ROOT
ATOM     10  C   UNL     1      -9.234   8.186  -8.227  0.00  0.00    +0.038 A 
ATOM     11  C   UNL     1      -9.463   7.950  -6.847  0.00  0.00    +0.047 A 
ATOM     12  C   UNL     1     -10.297   6.846  -6.401  0.00  0.00    +0.035 A 
ATOM     32  C   UNL     1     -10.882   5.999  -7.387  0.00  0.00    +0.024 A 
ATOM     33  C   UNL     1     -10.661   6.225  -8.794  0.00  0.00    +0.007 A 
ATOM     34  C   UNL     1      -9.841   7.314  -9.240  0.00  0.00    -0.029 A 
ATOM     35  C   UNL     1      -9.644   7.513 -10.761  0.00  0.00    +0.045 C 
ENDROOT
BRANCH  10   9
ATOM      4  C   UNL     1      -4.936  10.189  -8.966  0.00  0.00    +0.077 A 
ATOM      5  C   UNL     1      -4.245   9.003  -8.549  0.00  0.00    +0.048 A 
ATOM      6  C   UNL     1      -5.033   7.902  -8.145  0.00  0.00    +0.116 A 
ATOM      7  N   UNL     1      -6.408   7.992  -8.161  0.00  0.00    -0.223 NA
ATOM      8  C   UNL     1      -7.042   9.151  -8.568  0.00  0.00    +0.220 A 
ATOM      9  N   UNL     1      -8.424   9.261  -8.600  0.00  0.00    -0.283 N 
ATOM     36  H   UNL     1      -8.853  10.136  -8.899  0.00  0.00    +0.155 HD
ATOM     37  N   UNL     1      -6.312  10.217  -8.957  0.00  0.00    -0.214 NA
BRANCH   4   3
ATOM      1  C   UNL     1      -2.294  12.657 -10.460  0.00  0.00    +0.020 A 
ATOM      2  C   UNL     1      -2.919  11.426 -10.034  0.00  0.00    +0.013 A 
ATOM      3  C   UNL     1      -4.242  11.435  -9.424  0.00  0.00    +0.019 A 
ATOM     38  C   UNL     1      -4.912  12.716  -9.258  0.00  0.00    +0.120 A 
ATOM     39  N   UNL     1      -4.285  13.886  -9.677  0.00  0.00    -0.263 NA
ATOM     40  C   UNL     1      -3.011  13.890 -10.264  0.00  0.00    +0.111 A 
ENDBRANCH   4   3
ENDBRANCH  10   9
BRANCH  12  13
ATOM     13  N   UNL     1     -10.572   6.563  -5.014  0.00  0.00    -0.281 N 
ATOM     14  C   UNL     1      -9.919   5.667  -4.182  0.00  0.00    +0.248 C 
ATOM     30  O   UNL     1      -9.133   4.814  -4.567  0.00  0.00    -0.270 OA
ATOM     31  H   UNL     1     -11.340   7.086  -4.594  0.00  0.00    +0.155 HD
BRANCH  14  15
ATOM     15  C   UNL     1     -10.190   5.717  -2.713  0.00  0.00    +0.037 A 
ATOM     16  C   UNL     1      -9.891   4.574  -1.846  0.00  0.00    +0.013 A 
ATOM     17  C   UNL     1     -10.178   4.642  -0.435  0.00  0.00    +0.005 A 
ATOM     18  C   UNL     1     -10.765   5.860   0.118  0.00  0.00    -0.033 A 
ATOM     28  C   UNL     1     -11.046   6.981  -0.764  0.00  0.00    +0.005 A 
ATOM     29  C   UNL     1     -10.768   6.917  -2.148  0.00  0.00    +0.013 A 
BRANCH  18  19
ATOM     19  C   UNL     1     -11.123   6.014   1.608  0.00  0.00    +0.119 C 
BRANCH  19  20
ATOM     20  N   UNL     1     -11.836   4.875   2.261  0.00  0.00    -0.302 NA
ATOM     21  C   UNL     1     -13.090   4.461   1.485  0.00  0.00    +0.066 C 
ATOM     22  C   UNL     1     -13.810   3.254   2.169  0.00  0.00    -0.064 C 
ATOM     23  N   UNL     1     -14.163   3.625   3.611  0.00  0.00    +0.379 N 
ATOM     24  C   UNL     1     -14.892   2.514   4.239  0.00  0.00    -0.096 C 
ATOM     25  H   UNL     1     -14.849   4.503   3.575  0.00  0.00    -0.082 HD
ATOM     26  C   UNL     1     -12.922   4.041   4.389  0.00  0.00    -0.064 C 
ATOM     27  C   UNL     1     -12.198   5.221   3.684  0.00  0.00    +0.066 C 
ENDBRANCH  19  20
ENDBRANCH  18  19
ENDBRANCH  14  15
ENDBRANCH  12  13
TORSDOF 6
ENDMDL
MODEL 5
REMARK VINA RESULT:      -7.2     10.028     15.384
REMARK  Name = C:\Users\Docking\Desktop\test protocol\1iep_ligandH.pdb
REMARK  8 active torsions:
REMARK  status: ('A' for Active; 'I' for Inactive)
REMARK    1  A    between atoms: _5  and  _11
REMARK    2  A    between atoms: _19  and  _21
REMARK    3  A    between atoms: _22  and  _66
REMARK    4  A    between atoms: _27  and  _30
REMARK    5  A    between atoms: _32  and  _33
REMARK    6  A    between atoms: _38  and  _43
REMARK    7  A    between atoms: _43  and  _46
REMARK    8  A    between atoms: _53  and  _55
REMARK                            x       y       z     vdW  Elec       q    Type
REMARK                         _______ _______ _______ _____ _____    ______ ____
ROOT
ATOM     10  C   UNL     1     -13.293   4.886   4.536  0.00  0.00    +0.038 A 
ATOM     11  C   UNL     1     -12.791   5.333   3.287  0.00  0.00    +0.047 A 
ATOM     12  C   UNL     1     -13.005   4.564   2.071  0.00  0.00    +0.035 A 
ATOM     32  C   UNL     1     -13.736   3.344   2.163  0.00  0.00    +0.024 A 
ATOM     33  C   UNL     1     -14.252   2.874   3.425  0.00  0.00    +0.007 A 
ATOM     34  C   UNL     1     -14.043   3.628   4.628  0.00  0.00    -0.029 A 
ATOM     35  C   UNL     1     -14.613   3.072   5.954  0.00  0.00    +0.045 C 
ENDROOT
BRANCH  10   9
ATOM      4  C   UNL     1     -14.603   8.232   7.718  0.00  0.00    +0.077 A 
ATOM      5  C   UNL     1     -15.848   8.468   7.046  0.00  0.00    +0.048 A 
ATOM      6  C   UNL     1     -16.110   7.713   5.881  0.00  0.00    +0.116 A 
ATOM      7  N   UNL     1     -15.188   6.792   5.431  0.00  0.00    -0.223 NA
ATOM      8  C   UNL     1     -13.996   6.590   6.102  0.00  0.00    +0.220 A 
ATOM      9  N   UNL     1     -13.058   5.665   5.672  0.00  0.00    -0.283 N 
ATOM     36  H   UNL     1     -12.188   5.551   6.190  0.00  0.00    +0.155 HD
ATOM     37  N   UNL     1     -13.722   7.300   7.216  0.00  0.00    -0.214 NA
BRANCH   4   3
ATOM      1  C   UNL     1     -13.809  11.043  10.320  0.00  0.00    +0.020 A 
ATOM      2  C   UNL     1     -14.225  10.400   9.094  0.00  0.00    +0.013 A 
ATOM      3  C   UNL     1     -14.184   8.949   8.964  0.00  0.00    +0.019 A 
ATOM     38  C   UNL     1     -13.714   8.171  10.100  0.00  0.00    +0.120 A 
ATOM     39  N   UNL     1     -13.318   8.818  11.267  0.00  0.00    -0.263 NA
ATOM     40  C   UNL     1     -13.352  10.214  11.404  0.00  0.00    +0.111 A 
ENDBRANCH   4   3
ENDBRANCH  10   9
BRANCH  12  13
ATOM     13  N   UNL     1     -12.512   4.964   0.776  0.00  0.00    -0.281 N 
ATOM     14  C   UNL     1     -11.318   5.601   0.479  0.00  0.00    +0.248 C 
ATOM     30  O   UNL     1     -10.585   6.117   1.308  0.00  0.00    -0.270 OA
ATOM     31  H   UNL     1     -13.117   4.752  -0.017  0.00  0.00    +0.155 HD
BRANCH  14  15
ATOM     15  C   UNL     1     -10.883   5.689  -0.949  0.00  0.00    +0.037 A 
ATOM     16  C   UNL     1     -11.101   6.906  -1.735  0.00  0.00    +0.013 A 
ATOM     17  C   UNL     1     -10.687   6.958  -3.115  0.00  0.00    +0.005 A 
ATOM     18  C   UNL     1     -10.049   5.789  -3.717  0.00  0.00    -0.033 A 
ATOM     28  C   UNL     1      -9.841   4.597  -2.912  0.00  0.00    +0.005 A 
ATOM     29  C   UNL     1     -10.247   4.542  -1.559  0.00  0.00    +0.013 A 
BRANCH  18  19
ATOM     19  C   UNL     1      -9.595   5.749  -5.188  0.00  0.00    +0.119 C 
BRANCH  19  20
ATOM     20  N   UNL     1     -10.036   6.870  -6.071  0.00  0.00    -0.302 NA
ATOM     21  C   UNL     1     -11.294   6.513  -6.867  0.00  0.00    +0.066 C 
ATOM     22  C   UNL     1     -11.754   7.705  -7.768  0.00  0.00    -0.064 C 
ATOM     23  N   UNL     1     -10.614   8.100  -8.707  0.00  0.00    +0.379 N 
ATOM     24  C   UNL     1     -11.063   9.182  -9.596  0.00  0.00    -0.096 C 
ATOM     25  H   UNL     1     -10.377   7.216  -9.343  0.00  0.00    -0.082 HD
ATOM     26  C   UNL     1      -9.357   8.454  -7.924  0.00  0.00    -0.064 C 
ATOM     27  C   UNL     1      -8.926   7.274  -7.009  0.00  0.00    +0.066 C 
ENDBRANCH  19  20
ENDBRANCH  18  19
ENDBRANCH  14  15
ENDBRANCH  12  13
TORSDOF 6
ENDMDL
