MODEL 1
REMARK VINA RESULT:      -7.3      0.000      0.000
REMARK  Name = C:\Users\Docking\Desktop\test protocol\1iep_ligandH.pdb
REMARK  8 active torsions:
REMARK  status: ('A' for Active; 'I' for Inactive)
REMARK    1  A    between atoms: _5  and  _11
REMARK    2  A    between atoms: _19  and  _21
REMARK    3  A    between atoms: _22  and  _66
REMARK    4  A    between atoms: _27  and  _30
REMARK    5  A    between atoms: _32  and  _33
REMARK    6  A    between atoms: _38  and  _43
REMARK    7  A    between atoms: _43  and  _46
REMARK    8  A    between atoms: _53  and  _55
REMARK                            x       y       z     vdW  Elec       q    Type
REMARK                         _______ _______ _______ _____ _____    ______ ____
ROOT
ATOM     10  C   UNL     1      17.286  -3.166 -14.880  0.00  0.00    +0.038 A 
ATOM     11  C   UNL     1      17.309  -3.281 -13.466  0.00  0.00    +0.047 A 
ATOM     12  C   UNL     1      17.419  -4.579 -12.818  0.00  0.00    +0.035 A 
ATOM     32  C   UNL     1      17.507  -5.739 -13.641  0.00  0.00    +0.024 A 
ATOM     33  C   UNL     1      17.484  -5.641 -15.080  0.00  0.00    +0.007 A 
ATOM     34  C   UNL     1      17.373  -4.363 -15.724  0.00  0.00    -0.029 A 
ATOM     35  C   UNL     1      17.347  -4.318 -17.270  0.00  0.00    +0.045 C 
ENDROOT
BRANCH  10   9
ATOM      4  C   UNL     1      19.213   0.896 -16.559  0.00  0.00    +0.077 A 
ATOM      5  C   UNL     1      20.545   0.460 -16.253  0.00  0.00    +0.048 A 
ATOM      6  C   UNL     1      20.691  -0.813 -15.657  0.00  0.00    +0.116 A 
ATOM      7  N   UNL     1      19.580  -1.584 -15.393  0.00  0.00    -0.223 NA
ATOM      8  C   UNL     1      18.309  -1.133 -15.699  0.00  0.00    +0.220 A 
ATOM      9  N   UNL     1      17.178  -1.895 -15.449  0.00  0.00    -0.283 N 
ATOM     36  H   UNL     1      16.258  -1.523 -15.682  0.00  0.00    +0.155 HD
ATOM     37  N   UNL     1      18.143   0.080 -16.267  0.00  0.00    -0.214 NA
BRANCH   4   3
ATOM      1  C   UNL     1      18.987   4.735 -17.277  0.00  0.00    +0.020 A 
ATOM      2  C   UNL     1      19.318   3.489 -16.625  0.00  0.00    +0.013 A 
ATOM      3  C   UNL     1      18.897   2.215 -17.194  0.00  0.00    +0.019 A 
ATOM     38  C   UNL     1      18.137   2.236 -18.434  0.00  0.00    +0.120 A 
ATOM     39  N   UNL     1      17.831   3.452 -19.039  0.00  0.00    -0.263 NA
ATOM     40  C   UNL     1      18.230   4.684 -18.500  0.00  0.00    +0.111 A 
ENDBRANCH   4   3
ENDBRANCH  10   9
BRANCH  12  13
ATOM     13  N   UNL     1      17.439  -4.758 -11.388  0.00  0.00    -0.281 N 
ATOM     14  C   UNL     1      16.614  -5.562 -10.619  0.00  0.00    +0.248 C 
ATOM     30  O   UNL     1      15.588  -6.088 -11.025  0.00  0.00    -0.270 OA
ATOM     31  H   UNL     1      18.148  -4.228 -10.881  0.00  0.00    +0.155 HD
BRANCH  14  15
ATOM     15  C   UNL     1      16.971  -5.804  -9.188  0.00  0.00    +0.037 A 
ATOM     16  C   UNL     1      16.205  -6.740  -8.361  0.00  0.00    +0.013 A 
ATOM     17  C   UNL     1      16.561  -6.943  -6.979  0.00  0.00    +0.005 A 
ATOM     18  C   UNL     1      17.691  -6.208  -6.415  0.00  0.00    -0.033 A 
ATOM     28  C   UNL     1      18.436  -5.289  -7.259  0.00  0.00    +0.005 A 
ATOM     29  C   UNL     1      18.090  -5.087  -8.614  0.00  0.00    +0.013 A 
BRANCH  18  19
ATOM     19  C   UNL     1      18.128  -6.345  -4.945  0.00  0.00    +0.119 C 
BRANCH  19  20
ATOM     20  N   UNL     1      19.588  -6.237  -4.653  0.00  0.00    -0.302 NA
ATOM     21  C   UNL     1      20.104  -7.434  -3.849  0.00  0.00    +0.066 C 
ATOM     22  C   UNL     1      21.638  -7.316  -3.572  0.00  0.00    -0.064 C 
ATOM     23  N   UNL     1      21.920  -6.006  -2.834  0.00  0.00    +0.379 N 
ATOM     24  C   UNL     1      23.354  -5.919  -2.521  0.00  0.00    -0.096 C 
ATOM     25  H   UNL     1      21.364  -6.035  -1.868  0.00  0.00    -0.082 HD
ATOM     26  C   UNL     1      21.409  -4.810  -3.626  0.00  0.00    -0.064 C 
ATOM     27  C   UNL     1      19.889  -4.952  -3.921  0.00  0.00    +0.066 C 
ENDBRANCH  19  20
ENDBRANCH  18  19
ENDBRANCH  14  15
ENDBRANCH  12  13
TORSDOF 6
ENDMDL
MODEL 2
REMARK VINA RESULT:      -7.1      7.328     14.351
REMARK  Name = C:\Users\Docking\Desktop\test protocol\1iep_ligandH.pdb
REMARK  8 active torsions:
REMARK  status: ('A' for Active; 'I' for Inactive)
REMARK    1  A    between atoms: _5  and  _11
REMARK    2  A    between atoms: _19  and  _21
REMARK    3  A    between atoms: _22  and  _66
REMARK    4  A    between atoms: _27  and  _30
REMARK    5  A    between atoms: _32  and  _33
REMARK    6  A    between atoms: _38  and  _43
REMARK    7  A    between atoms: _43  and  _46
REMARK    8  A    between atoms: _53  and  _55
REMARK                            x       y       z     vdW  Elec       q    Type
REMARK                         _______ _______ _______ _____ _____    ______ ____
ROOT
ATOM     10  C   UNL     1      23.253  -3.477   0.037  0.00  0.00    +0.038 A 
ATOM     11  C   UNL     1      22.376  -3.586  -1.073  0.00  0.00    +0.047 A 
ATOM     12  C   UNL     1      22.608  -4.568  -2.121  0.00  0.00    +0.035 A 
ATOM     32  C   UNL     1      23.741  -5.425  -2.005  0.00  0.00    +0.024 A 
ATOM     33  C   UNL     1      24.644  -5.326  -0.885  0.00  0.00    +0.007 A 
ATOM     34  C   UNL     1      24.422  -4.358   0.150  0.00  0.00    -0.029 A 
ATOM     35  C   UNL     1      25.425  -4.293   1.325  0.00  0.00    +0.045 C 
ENDROOT
BRANCH  10   9
ATOM      4  C   UNL     1      23.178   1.058   1.608  0.00  0.00    +0.077 A 
ATOM      5  C   UNL     1      23.751   1.552   0.389  0.00  0.00    +0.048 A 
ATOM      6  C   UNL     1      24.057   0.606  -0.615  0.00  0.00    +0.116 A 
ATOM      7  N   UNL     1      23.804  -0.732  -0.404  0.00  0.00    -0.223 NA
ATOM      8  C   UNL     1      23.253  -1.176   0.784  0.00  0.00    +0.220 A 
ATOM      9  N   UNL     1      22.983  -2.516   1.014  0.00  0.00    -0.283 N 
ATOM     36  H   UNL     1      22.583  -2.804   1.906  0.00  0.00    +0.155 HD
ATOM     37  N   UNL     1      22.953  -0.292   1.758  0.00  0.00    -0.214 NA
BRANCH   4   3
ATOM      1  C   UNL     1      21.868   2.304   5.076  0.00  0.00    +0.020 A 
ATOM      2  C   UNL     1      22.218   1.415   3.993  0.00  0.00    +0.013 A 
ATOM      3  C   UNL     1      22.798   1.934   2.761  0.00  0.00    +0.019 A 
ATOM     38  C   UNL     1      23.013   3.370   2.656  0.00  0.00    +0.120 A 
ATOM     39  N   UNL     1      22.666   4.202   3.716  0.00  0.00    -0.263 NA
ATOM     40  C   UNL     1      22.105   3.713   4.906  0.00  0.00    +0.111 A 
ENDBRANCH   4   3
ENDBRANCH  10   9
BRANCH  12  13
ATOM     13  N   UNL     1      21.757  -4.720  -3.275  0.00  0.00    -0.281 N 
ATOM     14  C   UNL     1      21.055  -5.846  -3.672  0.00  0.00    +0.248 C 
ATOM     30  O   UNL     1      21.223  -6.965  -3.210  0.00  0.00    -0.270 OA
ATOM     31  H   UNL     1      21.660  -3.898  -3.871  0.00  0.00    +0.155 HD
BRANCH  14  15
ATOM     15  C   UNL     1      20.028  -5.714  -4.750  0.00  0.00    +0.037 A 
ATOM     16  C   UNL     1      18.606  -5.936  -4.476  0.00  0.00    +0.013 A 
ATOM     17  C   UNL     1      17.638  -5.818  -5.538  0.00  0.00    +0.005 A 
ATOM     18  C   UNL     1      18.089  -5.474  -6.884  0.00  0.00    -0.033 A 
ATOM     28  C   UNL     1      19.505  -5.254  -7.127  0.00  0.00    +0.005 A 
ATOM     29  C   UNL     1      20.457  -5.370  -6.089  0.00  0.00    +0.013 A 
BRANCH  18  19
ATOM     19  C   UNL     1      17.129  -5.348  -8.082  0.00  0.00    +0.119 C 
BRANCH  19  20
ATOM     20  N   UNL     1      16.525  -6.608  -8.609  0.00  0.00    -0.302 NA
ATOM     21  C   UNL     1      16.307  -6.550 -10.124  0.00  0.00    +0.066 C 
ATOM     22  C   UNL     1      15.695  -7.884 -10.662  0.00  0.00    -0.064 C 
ATOM     23  N   UNL     1      14.379  -8.168  -9.937  0.00  0.00    +0.379 N 
ATOM     24  C   UNL     1      13.772  -9.391 -10.481  0.00  0.00    -0.096 C 
ATOM     25  H   UNL     1      13.686  -7.322 -10.151  0.00  0.00    -0.082 HD
ATOM     26  C   UNL     1      14.586  -8.224  -8.430  0.00  0.00    -0.064 C 
ATOM     27  C   UNL     1      15.222  -6.905  -7.909  0.00  0.00    +0.066 C 
ENDBRANCH  19  20
ENDBRANCH  18  19
ENDBRANCH  14  15
ENDBRANCH  12  13
TORSDOF 6
ENDMDL
MODEL 3
REMARK VINA RESULT:      -7.1     13.932     20.786
REMARK  Name = C:\Users\Docking\Desktop\test protocol\1iep_ligandH.pdb
REMARK  8 active torsions:
REMARK  status: ('A' for Active; 'I' for Inactive)
REMARK    1  A    between atoms: _5  and  _11
REMARK    2  A    between atoms: _19  and  _21
REMARK    3  A    between atoms: _22  and  _66
REMARK    4  A    between atoms: _27  and  _30
REMARK    5  A    between atoms: _32  and  _33
REMARK    6  A    between atoms: _38  and  _43
REMARK    7  A    between atoms: _43  and  _46
REMARK    8  A    between atoms: _53  and  _55
REMARK                            x       y       z     vdW  Elec       q    Type
REMARK                         _______ _______ _______ _____ _____    ______ ____
ROOT
ATOM     10  C   UNL     1      11.798  -3.938   8.066  0.00  0.00    +0.038 A 
ATOM     11  C   UNL     1      11.727  -4.220   6.678  0.00  0.00    +0.047 A 
ATOM     12  C   UNL     1      11.269  -5.513   6.196  0.00  0.00    +0.035 A 
ATOM     32  C   UNL     1      10.887  -6.496   7.155  0.00  0.00    +0.024 A 
ATOM     33  C   UNL     1      10.954  -6.227   8.570  0.00  0.00    +0.007 A 
ATOM     34  C   UNL     1      11.408  -4.954   9.052  0.00  0.00    -0.029 A 
ATOM     35  C   UNL     1      11.466  -4.722  10.580  0.00  0.00    +0.045 C 
ENDROOT
BRANCH  10   9
ATOM      4  C   UNL     1      11.112   0.745   8.862  0.00  0.00    +0.077 A 
ATOM      5  C   UNL     1       9.755   0.685   8.402  0.00  0.00    +0.048 A 
ATOM      6  C   UNL     1       9.274  -0.568   7.962  0.00  0.00    +0.116 A 
ATOM      7  N   UNL     1      10.098  -1.673   7.985  0.00  0.00    -0.223 NA
ATOM      8  C   UNL     1      11.402  -1.580   8.434  0.00  0.00    +0.220 A 
ATOM      9  N   UNL     1      12.246  -2.679   8.474  0.00  0.00    -0.283 N 
ATOM     36  H   UNL     1      13.204  -2.568   8.805  0.00  0.00    +0.155 HD
ATOM     37  N   UNL     1      11.886  -0.394   8.858  0.00  0.00    -0.214 NA
BRANCH   4   3
ATOM      1  C   UNL     1      11.693   4.286  10.420  0.00  0.00    +0.020 A 
ATOM      2  C   UNL     1      11.015   3.099   9.953  0.00  0.00    +0.013 A 
ATOM      3  C   UNL     1      11.764   1.997   9.362  0.00  0.00    +0.019 A 
ATOM     38  C   UNL     1      13.210   2.129   9.259  0.00  0.00    +0.120 A 
ATOM     39  N   UNL     1      13.835   3.284   9.716  0.00  0.00    -0.263 NA
ATOM     40  C   UNL     1      13.125   4.352  10.285  0.00  0.00    +0.111 A 
ENDBRANCH   4   3
ENDBRANCH  10   9
BRANCH  12  13
ATOM     13  N   UNL     1      11.183  -5.860   4.799  0.00  0.00    -0.281 N 
ATOM     14  C   UNL     1      10.075  -5.791   3.970  0.00  0.00    +0.248 C 
ATOM     30  O   UNL     1       8.929  -5.622   4.361  0.00  0.00    -0.270 OA
ATOM     31  H   UNL     1      12.044  -6.196   4.368  0.00  0.00    +0.155 HD
BRANCH  14  15
ATOM     15  C   UNL     1      10.264  -5.947   2.496  0.00  0.00    +0.037 A 
ATOM     16  C   UNL     1       9.125  -6.177   1.604  0.00  0.00    +0.013 A 
ATOM     17  C   UNL     1       9.337  -6.340   0.187  0.00  0.00    +0.005 A 
ATOM     18  C   UNL     1      10.696  -6.273  -0.345  0.00  0.00    -0.033 A 
ATOM     28  C   UNL     1      11.807  -6.039   0.562  0.00  0.00    +0.005 A 
ATOM     29  C   UNL     1      11.603  -5.879   1.951  0.00  0.00    +0.013 A 
BRANCH  18  19
ATOM     19  C   UNL     1      11.018  -6.458  -1.840  0.00  0.00    +0.119 C 
BRANCH  19  20
ATOM     20  N   UNL     1      11.298  -7.847  -2.313  0.00  0.00    -0.302 NA
ATOM     21  C   UNL     1      11.043  -8.004  -3.815  0.00  0.00    +0.066 C 
ATOM     22  C   UNL     1      11.362  -9.457  -4.297  0.00  0.00    -0.064 C 
ATOM     23  N   UNL     1      10.520 -10.453  -3.498  0.00  0.00    +0.379 N 
ATOM     24  C   UNL     1      10.774 -11.815  -3.988  0.00  0.00    -0.096 C 
ATOM     25  H   UNL     1       9.447 -10.219  -3.690  0.00  0.00    -0.082 HD
ATOM     26  C   UNL     1      10.764 -10.301  -2.003  0.00  0.00    -0.064 C 
ATOM     27  C   UNL     1      10.473  -8.846  -1.540  0.00  0.00    +0.066 C 
ENDBRANCH  19  20
ENDBRANCH  18  19
ENDBRANCH  14  15
ENDBRANCH  12  13
TORSDOF 6
ENDMDL
MODEL 4
REMARK VINA RESULT:      -7.0      6.699     15.424
REMARK  Name = C:\Users\Docking\Desktop\test protocol\1iep_ligandH.pdb
REMARK  8 active torsions:
REMARK  status: ('A' for Active; 'I' for Inactive)
REMARK    1  A    between atoms: _5  and  _11
REMARK    2  A    between atoms: _19  and  _21
REMARK    3  A    between atoms: _22  and  _66
REMARK    4  A    between atoms: _27  and  _30
REMARK    5  A    between atoms: _32  and  _33
REMARK    6  A    between atoms: _38  and  _43
REMARK    7  A    between atoms: _43  and  _46
REMARK    8  A    between atoms: _53  and  _55
REMARK                            x       y       z     vdW  Elec       q    Type
REMARK                         _______ _______ _______ _____ _____    ______ ____
ROOT
ATOM     10  C   UNL     1      23.701  -2.904   1.148  0.00  0.00    +0.038 A 
ATOM     11  C   UNL     1      22.772  -3.160   0.108  0.00  0.00    +0.047 A 
ATOM     12  C   UNL     1      23.166  -3.879  -1.094  0.00  0.00    +0.035 A 
ATOM     32  C   UNL     1      24.516  -4.324  -1.202  0.00  0.00    +0.024 A 
ATOM     33  C   UNL     1      25.474  -4.072  -0.155  0.00  0.00    +0.007 A 
ATOM     34  C   UNL     1      25.091  -3.361   1.032  0.00  0.00    -0.029 A 
ATOM     35  C   UNL     1      26.162  -3.113   2.119  0.00  0.00    +0.045 C 
ENDROOT
BRANCH  10   9
ATOM      4  C   UNL     1      22.429   1.136   3.406  0.00  0.00    +0.077 A 
ATOM      5  C   UNL     1      22.674   1.935   2.240  0.00  0.00    +0.048 A 
ATOM      6  C   UNL     1      23.134   1.269   1.082  0.00  0.00    +0.116 A 
ATOM      7  N   UNL     1      23.330  -0.095   1.100  0.00  0.00    -0.223 NA
ATOM      8  C   UNL     1      23.085  -0.836   2.242  0.00  0.00    +0.220 A 
ATOM      9  N   UNL     1      23.268  -2.210   2.280  0.00  0.00    -0.283 N 
ATOM     36  H   UNL     1      23.084  -2.719   3.144  0.00  0.00    +0.155 HD
ATOM     37  N   UNL     1      22.648  -0.223   3.361  0.00  0.00    -0.214 NA
BRANCH   4   3
ATOM      1  C   UNL     1      20.784   1.477   6.939  0.00  0.00    +0.020 A 
ATOM      2  C   UNL     1      21.237   0.889   5.699  0.00  0.00    +0.013 A 
ATOM      3  C   UNL     1      21.939   1.693   4.706  0.00  0.00    +0.019 A 
ATOM     38  C   UNL     1      22.168   3.100   5.002  0.00  0.00    +0.120 A 
ATOM     39  N   UNL     1      21.719   3.638   6.203  0.00  0.00    -0.263 NA
ATOM     40  C   UNL     1      21.042   2.874   7.166  0.00  0.00    +0.111 A 
ENDBRANCH   4   3
ENDBRANCH  10   9
BRANCH  12  13
ATOM     13  N   UNL     1      22.269  -4.161  -2.187  0.00  0.00    -0.281 N 
ATOM     14  C   UNL     1      21.996  -5.388  -2.769  0.00  0.00    +0.248 C 
ATOM     30  O   UNL     1      22.647  -6.404  -2.578  0.00  0.00    -0.270 OA
ATOM     31  H   UNL     1      21.774  -3.359  -2.578  0.00  0.00    +0.155 HD
BRANCH  14  15
ATOM     15  C   UNL     1      20.841  -5.498  -3.712  0.00  0.00    +0.037 A 
ATOM     16  C   UNL     1      20.962  -5.087  -5.113  0.00  0.00    +0.013 A 
ATOM     17  C   UNL     1      19.827  -5.188  -5.997  0.00  0.00    +0.005 A 
ATOM     18  C   UNL     1      18.562  -5.705  -5.481  0.00  0.00    -0.033 A 
ATOM     28  C   UNL     1      18.472  -6.111  -4.089  0.00  0.00    +0.005 A 
ATOM     29  C   UNL     1      19.581  -6.012  -3.219  0.00  0.00    +0.013 A 
BRANCH  18  19
ATOM     19  C   UNL     1      17.294  -5.829  -6.347  0.00  0.00    +0.119 C 
BRANCH  19  20
ATOM     20  N   UNL     1      17.467  -6.317  -7.748  0.00  0.00    -0.302 NA
ATOM     21  C   UNL     1      17.352  -5.182  -8.770  0.00  0.00    +0.066 C 
ATOM     22  C   UNL     1      17.558  -5.706 -10.228  0.00  0.00    -0.064 C 
ATOM     23  N   UNL     1      16.536  -6.806 -10.521  0.00  0.00    +0.379 N 
ATOM     24  C   UNL     1      16.689  -7.260 -11.911  0.00  0.00    -0.096 C 
ATOM     25  H   UNL     1      15.520  -6.357 -10.422  0.00  0.00    -0.082 HD
ATOM     26  C   UNL     1      16.642  -7.937  -9.508  0.00  0.00    -0.064 C 
ATOM     27  C   UNL     1      16.465  -7.400  -8.060  0.00  0.00    +0.066 C 
ENDBRANCH  19  20
ENDBRANCH  18  19
ENDBRANCH  14  15
ENDBRANCH  12  13
TORSDOF 6
ENDMDL
MODEL 5
REMARK VINA RESULT:      -6.9     14.221     20.911
REMARK  Name = C:\Users\Docking\Desktop\test protocol\1iep_ligandH.pdb
REMARK  8 active torsions:
REMARK  status: ('A' for Active; 'I' for Inactive)
REMARK    1  A    between atoms: _5  and  _11
REMARK    2  A    between atoms: _19  and  _21
REMARK    3  A    between atoms: _22  and  _66
REMARK    4  A    between atoms: _27  and  _30
REMARK    5  A    between atoms: _32  and  _33
REMARK    6  A    between atoms: _38  and  _43
REMARK    7  A    between atoms: _43  and  _46
REMARK    8  A    between atoms: _53  and  _55
REMARK                            x       y       z     vdW  Elec       q    Type
REMARK                         _______ _______ _______ _____ _____    ______ ____
ROOT
ATOM     10  C   UNL     1      10.738  -3.486   8.233  0.00  0.00    +0.038 A 
ATOM     11  C   UNL     1      10.630  -3.866   6.871  0.00  0.00    +0.047 A 
ATOM     12  C   UNL     1      11.365  -5.007   6.347  0.00  0.00    +0.035 A 
ATOM     32  C   UNL     1      12.199  -5.740   7.240  0.00  0.00    +0.024 A 
ATOM     33  C   UNL     1      12.322  -5.367   8.627  0.00  0.00    +0.007 A 
ATOM     34  C   UNL     1      11.602  -4.241   9.149  0.00  0.00    -0.029 A 
ATOM     35  C   UNL     1      11.776  -3.883  10.643  0.00  0.00    +0.045 C 
ENDROOT
BRANCH  10   9
ATOM      4  C   UNL     1       9.699   1.200   8.192  0.00  0.00    +0.077 A 
ATOM      5  C   UNL     1      10.710   1.476   7.213  0.00  0.00    +0.048 A 
ATOM      6  C   UNL     1      11.481   0.386   6.751  0.00  0.00    +0.116 A 
ATOM      7  N   UNL     1      11.248  -0.882   7.238  0.00  0.00    -0.223 NA
ATOM      8  C   UNL     1      10.266  -1.114   8.184  0.00  0.00    +0.220 A 
ATOM      9  N   UNL     1      10.010  -2.382   8.682  0.00  0.00    -0.283 N 
ATOM     36  H   UNL     1       9.282  -2.510   9.384  0.00  0.00    +0.155 HD
ATOM     37  N   UNL     1       9.518  -0.089   8.642  0.00  0.00    -0.214 NA
BRANCH   4   3
ATOM      1  C   UNL     1       7.954   4.615   8.961  0.00  0.00    +0.020 A 
ATOM      2  C   UNL     1       8.843   3.645   8.367  0.00  0.00    +0.013 A 
ATOM      3  C   UNL     1       8.801   2.246   8.776  0.00  0.00    +0.019 A 
ATOM     38  C   UNL     1       7.838   1.860   9.796  0.00  0.00    +0.120 A 
ATOM     39  N   UNL     1       6.995   2.817  10.352  0.00  0.00    -0.263 NA
ATOM     40  C   UNL     1       7.028   4.166   9.967  0.00  0.00    +0.111 A 
ENDBRANCH   4   3
ENDBRANCH  10   9
BRANCH  12  13
ATOM     13  N   UNL     1      11.300  -5.435   4.972  0.00  0.00    -0.281 N 
ATOM     14  C   UNL     1      10.174  -5.752   4.230  0.00  0.00    +0.248 C 
ATOM     30  O   UNL     1       9.060  -5.921   4.704  0.00  0.00    -0.270 OA
ATOM     31  H   UNL     1      12.194  -5.514   4.486  0.00  0.00    +0.155 HD
BRANCH  14  15
ATOM     15  C   UNL     1      10.307  -5.919   2.751  0.00  0.00    +0.037 A 
ATOM     16  C   UNL     1       9.146  -6.235   1.915  0.00  0.00    +0.013 A 
ATOM     17  C   UNL     1       9.305  -6.407   0.492  0.00  0.00    +0.005 A 
ATOM     18  C   UNL     1      10.631  -6.263  -0.103  0.00  0.00    -0.033 A 
ATOM     28  C   UNL     1      11.765  -5.944   0.750  0.00  0.00    +0.005 A 
ATOM     29  C   UNL     1      11.613  -5.775   2.144  0.00  0.00    +0.013 A 
BRANCH  18  19
ATOM     19  C   UNL     1      10.897  -6.451  -1.608  0.00  0.00    +0.119 C 
BRANCH  19  20
ATOM     20  N   UNL     1      10.530  -7.768  -2.208  0.00  0.00    -0.302 NA
ATOM     21  C   UNL     1      10.894  -8.939  -1.291  0.00  0.00    +0.066 C 
ATOM     22  C   UNL     1      10.482 -10.308  -1.924  0.00  0.00    -0.064 C 
ATOM     23  N   UNL     1      11.157 -10.458  -3.289  0.00  0.00    +0.379 N 
ATOM     24  C   UNL     1      10.819 -11.770  -3.861  0.00  0.00    -0.096 C 
ATOM     25  H   UNL     1      12.260 -10.435  -3.124  0.00  0.00    -0.082 HD
ATOM     26  C   UNL     1      10.803  -9.297  -4.206  0.00  0.00    -0.064 C 
ATOM     27  C   UNL     1      11.189  -7.940  -3.555  0.00  0.00    +0.066 C 
ENDBRANCH  19  20
ENDBRANCH  18  19
ENDBRANCH  14  15
ENDBRANCH  12  13
TORSDOF 6
ENDMDL
