MODEL 1
REMARK VINA RESULT:      -7.6      0.000      0.000
REMARK  Name = C:\Users\Docking\Desktop\test protocol\1iep_ligandH.pdb
REMARK  8 active torsions:
REMARK  status: ('A' for Active; 'I' for Inactive)
REMARK    1  A    between atoms: _5  and  _11
REMARK    2  A    between atoms: _19  and  _21
REMARK    3  A    between atoms: _22  and  _66
REMARK    4  A    between atoms: _27  and  _30
REMARK    5  A    between atoms: _32  and  _33
REMARK    6  A    between atoms: _38  and  _43
REMARK    7  A    between atoms: _43  and  _46
REMARK    8  A    between atoms: _53  and  _55
REMARK                            x       y       z     vdW  Elec       q    Type
REMARK                         _______ _______ _______ _____ _____    ______ ____
ROOT
ATOM     10  C   UNL     1      -3.476  -6.658   0.674  0.00  0.00    +0.038 A 
ATOM     11  C   UNL     1      -3.693  -7.443   1.836  0.00  0.00    +0.047 A 
ATOM     12  C   UNL     1      -4.920  -7.322   2.607  0.00  0.00    +0.035 A 
ATOM     32  C   UNL     1      -5.907  -6.394   2.165  0.00  0.00    +0.024 A 
ATOM     33  C   UNL     1      -5.703  -5.587   0.988  0.00  0.00    +0.007 A 
ATOM     34  C   UNL     1      -4.493  -5.700   0.224  0.00  0.00    -0.029 A 
ATOM     35  C   UNL     1      -4.325  -4.806  -1.026  0.00  0.00    +0.045 C 
ENDROOT
BRANCH  10   9
ATOM      4  C   UNL     1       1.082  -5.465  -0.242  0.00  0.00    +0.077 A 
ATOM      5  C   UNL     1       1.069  -4.424   0.745  0.00  0.00    +0.048 A 
ATOM      6  C   UNL     1      -0.132  -4.223   1.461  0.00  0.00    +0.116 A 
ATOM      7  N   UNL     1      -1.232  -5.011   1.202  0.00  0.00    -0.223 NA
ATOM      8  C   UNL     1      -1.187  -6.006   0.243  0.00  0.00    +0.220 A 
ATOM      9  N   UNL     1      -2.279  -6.815  -0.028  0.00  0.00    -0.283 N 
ATOM     36  H   UNL     1      -2.208  -7.533  -0.749  0.00  0.00    +0.155 HD
ATOM     37  N   UNL     1      -0.052  -6.217  -0.456  0.00  0.00    -0.214 NA
BRANCH   4   3
ATOM      1  C   UNL     1       4.012  -5.248  -2.823  0.00  0.00    +0.020 A 
ATOM      2  C   UNL     1       2.857  -4.874  -2.041  0.00  0.00    +0.013 A 
ATOM      3  C   UNL     1       2.277  -5.802  -1.078  0.00  0.00    +0.019 A 
ATOM     38  C   UNL     1       2.895  -7.111  -0.930  0.00  0.00    +0.120 A 
ATOM     39  N   UNL     1       4.006  -7.444  -1.698  0.00  0.00    -0.263 NA
ATOM     40  C   UNL     1       4.572  -6.560  -2.629  0.00  0.00    +0.111 A 
ENDBRANCH   4   3
ENDBRANCH  10   9
BRANCH  12  13
ATOM     13  N   UNL     1      -5.193  -8.087   3.799  0.00  0.00    -0.281 N 
ATOM     14  C   UNL     1      -5.723  -9.363   3.890  0.00  0.00    +0.248 C 
ATOM     30  O   UNL     1      -6.245  -9.962   2.961  0.00  0.00    -0.270 OA
ATOM     31  H   UNL     1      -4.967  -7.631   4.684  0.00  0.00    +0.155 HD
BRANCH  14  15
ATOM     15  C   UNL     1      -5.680 -10.071   5.205  0.00  0.00    +0.037 A 
ATOM     16  C   UNL     1      -5.974 -11.503   5.307  0.00  0.00    +0.013 A 
ATOM     17  C   UNL     1      -5.943 -12.158   6.591  0.00  0.00    +0.005 A 
ATOM     18  C   UNL     1      -5.613 -11.381   7.783  0.00  0.00    -0.033 A 
ATOM     28  C   UNL     1      -5.320  -9.963   7.653  0.00  0.00    +0.005 A 
ATOM     29  C   UNL     1      -5.352  -9.318   6.396  0.00  0.00    +0.013 A 
BRANCH  18  19
ATOM     19  C   UNL     1      -5.576 -11.993   9.196  0.00  0.00    +0.119 C 
BRANCH  19  20
ATOM     20  N   UNL     1      -6.340 -13.258   9.414  0.00  0.00    -0.302 NA
ATOM     21  C   UNL     1      -7.850 -13.014   9.473  0.00  0.00    +0.066 C 
ATOM     22  C   UNL     1      -8.635 -14.351   9.678  0.00  0.00    -0.064 C 
ATOM     23  N   UNL     1      -8.146 -15.034  10.957  0.00  0.00    +0.379 N 
ATOM     24  C   UNL     1      -8.923 -16.262  11.184  0.00  0.00    -0.096 C 
ATOM     25  H   UNL     1      -8.349 -14.343  11.808  0.00  0.00    -0.082 HD
ATOM     26  C   UNL     1      -6.645 -15.278  10.908  0.00  0.00    -0.064 C 
ATOM     27  C   UNL     1      -5.876 -13.947  10.674  0.00  0.00    +0.066 C 
ENDBRANCH  19  20
ENDBRANCH  18  19
ENDBRANCH  14  15
ENDBRANCH  12  13
TORSDOF 6
ENDMDL
MODEL 2
REMARK VINA RESULT:      -7.4      1.499      2.119
REMARK  Name = C:\Users\Docking\Desktop\test protocol\1iep_ligandH.pdb
REMARK  8 active torsions:
REMARK  status: ('A' for Active; 'I' for Inactive)
REMARK    1  A    between atoms: _5  and  _11
REMARK    2  A    between atoms: _19  and  _21
REMARK    3  A    between atoms: _22  and  _66
REMARK    4  A    between atoms: _27  and  _30
REMARK    5  A    between atoms: _32  and  _33
REMARK    6  A    between atoms: _38  and  _43
REMARK    7  A    between atoms: _43  and  _46
REMARK    8  A    between atoms: _53  and  _55
REMARK                            x       y       z     vdW  Elec       q    Type
REMARK                         _______ _______ _______ _____ _____    ______ ____
ROOT
ATOM     10  C   UNL     1      -2.464  -6.347  -0.053  0.00  0.00    +0.038 A 
ATOM     11  C   UNL     1      -2.843  -7.286   0.940  0.00  0.00    +0.047 A 
ATOM     12  C   UNL     1      -4.111  -7.169   1.642  0.00  0.00    +0.035 A 
ATOM     32  C   UNL     1      -4.972  -6.084   1.306  0.00  0.00    +0.024 A 
ATOM     33  C   UNL     1      -4.603  -5.119   0.300  0.00  0.00    +0.007 A 
ATOM     34  C   UNL     1      -3.352  -5.228  -0.394  0.00  0.00    -0.029 A 
ATOM     35  C   UNL     1      -3.005  -4.162  -1.459  0.00  0.00    +0.045 C 
ENDROOT
BRANCH  10   9
ATOM      4  C   UNL     1       2.287  -5.722  -0.318  0.00  0.00    +0.077 A 
ATOM      5  C   UNL     1       2.319  -4.991   0.916  0.00  0.00    +0.048 A 
ATOM      6  C   UNL     1       1.090  -4.791   1.584  0.00  0.00    +0.116 A 
ATOM      7  N   UNL     1      -0.077  -5.290   1.049  0.00  0.00    -0.223 NA
ATOM      8  C   UNL     1      -0.073  -5.990  -0.144  0.00  0.00    +0.220 A 
ATOM      9  N   UNL     1      -1.235  -6.507  -0.696  0.00  0.00    -0.283 N 
ATOM     36  H   UNL     1      -1.191  -7.011  -1.581  0.00  0.00    +0.155 HD
ATOM     37  N   UNL     1       1.087  -6.193  -0.802  0.00  0.00    -0.214 NA
BRANCH   4   3
ATOM      1  C   UNL     1       5.994  -5.983  -1.539  0.00  0.00    +0.020 A 
ATOM      2  C   UNL     1       4.853  -5.674  -0.708  0.00  0.00    +0.013 A 
ATOM      3  C   UNL     1       3.504  -6.018  -1.139  0.00  0.00    +0.019 A 
ATOM     38  C   UNL     1       3.342  -6.679  -2.425  0.00  0.00    +0.120 A 
ATOM     39  N   UNL     1       4.460  -6.962  -3.204  0.00  0.00    -0.263 NA
ATOM     40  C   UNL     1       5.763  -6.634  -2.801  0.00  0.00    +0.111 A 
ENDBRANCH   4   3
ENDBRANCH  10   9
BRANCH  12  13
ATOM     13  N   UNL     1      -4.545  -8.088   2.665  0.00  0.00    -0.281 N 
ATOM     14  C   UNL     1      -5.404  -7.840   3.724  0.00  0.00    +0.248 C 
ATOM     30  O   UNL     1      -5.764  -6.726   4.076  0.00  0.00    -0.270 OA
ATOM     31  H   UNL     1      -4.174  -9.036   2.602  0.00  0.00    +0.155 HD
BRANCH  14  15
ATOM     15  C   UNL     1      -5.927  -8.995   4.515  0.00  0.00    +0.037 A 
ATOM     16  C   UNL     1      -6.818  -8.791   5.660  0.00  0.00    +0.013 A 
ATOM     17  C   UNL     1      -7.295  -9.922   6.416  0.00  0.00    +0.005 A 
ATOM     18  C   UNL     1      -6.882 -11.268   6.028  0.00  0.00    -0.033 A 
ATOM     28  C   UNL     1      -6.002 -11.443   4.884  0.00  0.00    +0.005 A 
ATOM     29  C   UNL     1      -5.531 -10.337   4.142  0.00  0.00    +0.013 A 
BRANCH  18  19
ATOM     19  C   UNL     1      -7.325 -12.531   6.790  0.00  0.00    +0.119 C 
BRANCH  19  20
ATOM     20  N   UNL     1      -7.031 -12.585   8.253  0.00  0.00    -0.302 NA
ATOM     21  C   UNL     1      -5.533 -12.452   8.543  0.00  0.00    +0.066 C 
ATOM     22  C   UNL     1      -5.245 -12.488  10.079  0.00  0.00    -0.064 C 
ATOM     23  N   UNL     1      -5.798 -13.787  10.668  0.00  0.00    +0.379 N 
ATOM     24  C   UNL     1      -5.478 -13.851  12.102  0.00  0.00    -0.096 C 
ATOM     25  H   UNL     1      -5.275 -14.635  10.167  0.00  0.00    -0.082 HD
ATOM     26  C   UNL     1      -7.286 -13.929  10.382  0.00  0.00    -0.064 C 
ATOM     27  C   UNL     1      -7.564 -13.863   8.854  0.00  0.00    +0.066 C 
ENDBRANCH  19  20
ENDBRANCH  18  19
ENDBRANCH  14  15
ENDBRANCH  12  13
TORSDOF 6
ENDMDL
MODEL 3
REMARK VINA RESULT:      -7.2      1.912     12.944
REMARK  Name = C:\Users\Docking\Desktop\test protocol\1iep_ligandH.pdb
REMARK  8 active torsions:
REMARK  status: ('A' for Active; 'I' for Inactive)
REMARK    1  A    between atoms: _5  and  _11
REMARK    2  A    between atoms: _19  and  _21
REMARK    3  A    between atoms: _22  and  _66
REMARK    4  A    between atoms: _27  and  _30
REMARK    5  A    between atoms: _32  and  _33
REMARK    6  A    between atoms: _38  and  _43
REMARK    7  A    between atoms: _43  and  _46
REMARK    8  A    between atoms: _53  and  _55
REMARK                            x       y       z     vdW  Elec       q    Type
REMARK                         _______ _______ _______ _____ _____    ______ ____
ROOT
ATOM     10  C   UNL     1      -5.732  -8.458   3.298  0.00  0.00    +0.038 A 
ATOM     11  C   UNL     1      -4.445  -8.190   2.765  0.00  0.00    +0.047 A 
ATOM     12  C   UNL     1      -4.202  -7.018   1.938  0.00  0.00    +0.035 A 
ATOM     32  C   UNL     1      -5.292  -6.138   1.677  0.00  0.00    +0.024 A 
ATOM     33  C   UNL     1      -6.607  -6.395   2.210  0.00  0.00    +0.007 A 
ATOM     34  C   UNL     1      -6.853  -7.551   3.023  0.00  0.00    -0.029 A 
ATOM     35  C   UNL     1      -8.284  -7.781   3.563  0.00  0.00    +0.045 C 
ENDROOT
BRANCH  10   9
ATOM      4  C   UNL     1      -5.882 -10.687   7.546  0.00  0.00    +0.077 A 
ATOM      5  C   UNL     1      -5.552  -9.484   8.255  0.00  0.00    +0.048 A 
ATOM      6  C   UNL     1      -5.346  -8.315   7.489  0.00  0.00    +0.116 A 
ATOM      7  N   UNL     1      -5.462  -8.357   6.116  0.00  0.00    -0.223 NA
ATOM      8  C   UNL     1      -5.779  -9.534   5.464  0.00  0.00    +0.220 A 
ATOM      9  N   UNL     1      -5.909  -9.598   4.085  0.00  0.00    -0.283 N 
ATOM     36  H   UNL     1      -6.137 -10.487   3.640  0.00  0.00    +0.155 HD
ATOM     37  N   UNL     1      -5.980 -10.665   6.172  0.00  0.00    -0.214 NA
BRANCH   4   3
ATOM      1  C   UNL     1      -7.005 -14.369   8.237  0.00  0.00    +0.020 A 
ATOM      2  C   UNL     1      -6.787 -13.120   7.546  0.00  0.00    +0.013 A 
ATOM      3  C   UNL     1      -6.133 -12.002   8.215  0.00  0.00    +0.019 A 
ATOM     38  C   UNL     1      -5.708 -12.184   9.595  0.00  0.00    +0.120 A 
ATOM     39  N   UNL     1      -5.932 -13.398  10.236  0.00  0.00    -0.263 NA
ATOM     40  C   UNL     1      -6.562 -14.480   9.602  0.00  0.00    +0.111 A 
ENDBRANCH   4   3
ENDBRANCH  10   9
BRANCH  12  13
ATOM     13  N   UNL     1      -2.919  -6.699   1.363  0.00  0.00    -0.281 N 
ATOM     14  C   UNL     1      -2.625  -6.417   0.039  0.00  0.00    +0.248 C 
ATOM     30  O   UNL     1      -3.391  -6.607  -0.894  0.00  0.00    -0.270 OA
ATOM     31  H   UNL     1      -2.131  -6.679   2.011  0.00  0.00    +0.155 HD
BRANCH  14  15
ATOM     15  C   UNL     1      -1.282  -5.857  -0.300  0.00  0.00    +0.037 A 
ATOM     16  C   UNL     1      -0.907  -5.567  -1.686  0.00  0.00    +0.013 A 
ATOM     17  C   UNL     1       0.402  -5.043  -1.986  0.00  0.00    +0.005 A 
ATOM     18  C   UNL     1       1.345  -4.804  -0.897  0.00  0.00    -0.033 A 
ATOM     28  C   UNL     1       0.945  -5.095   0.470  0.00  0.00    +0.005 A 
ATOM     29  C   UNL     1      -0.336  -5.610   0.768  0.00  0.00    +0.013 A 
BRANCH  18  19
ATOM     19  C   UNL     1       2.770  -4.266  -1.127  0.00  0.00    +0.119 C 
BRANCH  19  20
ATOM     20  N   UNL     1       3.782  -5.221  -1.669  0.00  0.00    -0.302 NA
ATOM     21  C   UNL     1       5.185  -4.945  -1.120  0.00  0.00    +0.066 C 
ATOM     22  C   UNL     1       6.227  -5.967  -1.680  0.00  0.00    -0.064 C 
ATOM     23  N   UNL     1       6.222  -5.910  -3.209  0.00  0.00    +0.379 N 
ATOM     24  C   UNL     1       7.242  -6.828  -3.737  0.00  0.00    -0.096 C 
ATOM     25  H   UNL     1       6.510  -4.876  -3.509  0.00  0.00    -0.082 HD
ATOM     26  C   UNL     1       4.830  -6.181  -3.763  0.00  0.00    -0.064 C 
ATOM     27  C   UNL     1       3.797  -5.178  -3.177  0.00  0.00    +0.066 C 
ENDBRANCH  19  20
ENDBRANCH  18  19
ENDBRANCH  14  15
ENDBRANCH  12  13
TORSDOF 6
ENDMDL
MODEL 4
REMARK VINA RESULT:      -7.1      2.173     12.722
REMARK  Name = C:\Users\Docking\Desktop\test protocol\1iep_ligandH.pdb
REMARK  8 active torsions:
REMARK  status: ('A' for Active; 'I' for Inactive)
REMARK    1  A    between atoms: _5  and  _11
REMARK    2  A    between atoms: _19  and  _21
REMARK    3  A    between atoms: _22  and  _66
REMARK    4  A    between atoms: _27  and  _30
REMARK    5  A    between atoms: _32  and  _33
REMARK    6  A    between atoms: _38  and  _43
REMARK    7  A    between atoms: _43  and  _46
REMARK    8  A    between atoms: _53  and  _55
REMARK                            x       y       z     vdW  Elec       q    Type
REMARK                         _______ _______ _______ _____ _____    ______ ____
ROOT
ATOM     10  C   UNL     1      -6.884 -12.339   6.554  0.00  0.00    +0.038 A 
ATOM     11  C   UNL     1      -6.309 -11.357   5.708  0.00  0.00    +0.047 A 
ATOM     12  C   UNL     1      -7.035 -10.834   4.561  0.00  0.00    +0.035 A 
ATOM     32  C   UNL     1      -8.345 -11.333   4.306  0.00  0.00    +0.024 A 
ATOM     33  C   UNL     1      -8.944 -12.332   5.155  0.00  0.00    +0.007 A 
ATOM     34  C   UNL     1      -8.232 -12.854   6.287  0.00  0.00    -0.029 A 
ATOM     35  C   UNL     1      -8.921 -13.929   7.159  0.00  0.00    +0.045 C 
ENDROOT
BRANCH  10   9
ATOM      4  C   UNL     1      -5.705 -12.290  11.207  0.00  0.00    +0.077 A 
ATOM      5  C   UNL     1      -6.625 -11.227  11.489  0.00  0.00    +0.048 A 
ATOM      6  C   UNL     1      -7.377 -10.715  10.408  0.00  0.00    +0.116 A 
ATOM      7  N   UNL     1      -7.214 -11.237   9.143  0.00  0.00    -0.223 NA
ATOM      8  C   UNL     1      -6.317 -12.261   8.905  0.00  0.00    +0.220 A 
ATOM      9  N   UNL     1      -6.142 -12.806   7.642  0.00  0.00    -0.283 N 
ATOM     36  H   UNL     1      -5.465 -13.556   7.506  0.00  0.00    +0.155 HD
ATOM     37  N   UNL     1      -5.586 -12.766   9.920  0.00  0.00    -0.214 NA
BRANCH   4   3
ATOM      1  C   UNL     1      -3.344 -12.861  14.273  0.00  0.00    +0.020 A 
ATOM      2  C   UNL     1      -4.167 -12.187  13.295  0.00  0.00    +0.013 A 
ATOM      3  C   UNL     1      -4.841 -12.938  12.244  0.00  0.00    +0.019 A 
ATOM     38  C   UNL     1      -4.662 -14.382  12.211  0.00  0.00    +0.120 A 
ATOM     39  N   UNL     1      -3.863 -15.003  13.165  0.00  0.00    -0.263 NA
ATOM     40  C   UNL     1      -3.207 -14.290  14.180  0.00  0.00    +0.111 A 
ENDBRANCH   4   3
ENDBRANCH  10   9
BRANCH  12  13
ATOM     13  N   UNL     1      -6.499  -9.841   3.662  0.00  0.00    -0.281 N 
ATOM     14  C   UNL     1      -6.173  -8.525   3.944  0.00  0.00    +0.248 C 
ATOM     30  O   UNL     1      -6.494  -7.937   4.966  0.00  0.00    -0.270 OA
ATOM     31  H   UNL     1      -6.342 -10.147   2.702  0.00  0.00    +0.155 HD
BRANCH  14  15
ATOM     15  C   UNL     1      -5.389  -7.744   2.939  0.00  0.00    +0.037 A 
ATOM     16  C   UNL     1      -5.961  -6.569   2.276  0.00  0.00    +0.013 A 
ATOM     17  C   UNL     1      -5.189  -5.845   1.298  0.00  0.00    +0.005 A 
ATOM     18  C   UNL     1      -3.836  -6.292   0.978  0.00  0.00    -0.033 A 
ATOM     28  C   UNL     1      -3.292  -7.458   1.655  0.00  0.00    +0.005 A 
ATOM     29  C   UNL     1      -4.045  -8.172   2.613  0.00  0.00    +0.013 A 
BRANCH  18  19
ATOM     19  C   UNL     1      -2.948  -5.592  -0.068  0.00  0.00    +0.119 C 
BRANCH  19  20
ATOM     20  N   UNL     1      -1.510  -5.991  -0.122  0.00  0.00    -0.302 NA
ATOM     21  C   UNL     1      -0.628  -5.076   0.732  0.00  0.00    +0.066 C 
ATOM     22  C   UNL     1       0.870  -5.521   0.682  0.00  0.00    -0.064 C 
ATOM     23  N   UNL     1       1.348  -5.533  -0.771  0.00  0.00    +0.379 N 
ATOM     24  C   UNL     1       2.772  -5.895  -0.817  0.00  0.00    -0.096 C 
ATOM     25  H   UNL     1       1.250  -4.495  -1.168  0.00  0.00    -0.082 HD
ATOM     26  C   UNL     1       0.474  -6.438  -1.628  0.00  0.00    -0.064 C 
ATOM     27  C   UNL     1      -1.016  -6.005  -1.548  0.00  0.00    +0.066 C 
ENDBRANCH  19  20
ENDBRANCH  18  19
ENDBRANCH  14  15
ENDBRANCH  12  13
TORSDOF 6
ENDMDL
MODEL 5
REMARK VINA RESULT:      -6.9      2.588     12.936
REMARK  Name = C:\Users\Docking\Desktop\test protocol\1iep_ligandH.pdb
REMARK  8 active torsions:
REMARK  status: ('A' for Active; 'I' for Inactive)
REMARK    1  A    between atoms: _5  and  _11
REMARK    2  A    between atoms: _19  and  _21
REMARK    3  A    between atoms: _22  and  _66
REMARK    4  A    between atoms: _27  and  _30
REMARK    5  A    between atoms: _32  and  _33
REMARK    6  A    between atoms: _38  and  _43
REMARK    7  A    between atoms: _43  and  _46
REMARK    8  A    between atoms: _53  and  _55
REMARK                            x       y       z     vdW  Elec       q    Type
REMARK                         _______ _______ _______ _____ _____    ______ ____
ROOT
ATOM     10  C   UNL     1      -6.463 -12.518   7.311  0.00  0.00    +0.038 A 
ATOM     11  C   UNL     1      -5.968 -11.578   6.371  0.00  0.00    +0.047 A 
ATOM     12  C   UNL     1      -6.759 -11.180   5.217  0.00  0.00    +0.035 A 
ATOM     32  C   UNL     1      -8.052 -11.757   5.052  0.00  0.00    +0.024 A 
ATOM     33  C   UNL     1      -8.570 -12.715   5.997  0.00  0.00    +0.007 A 
ATOM     34  C   UNL     1      -7.794 -13.114   7.136  0.00  0.00    -0.029 A 
ATOM     35  C   UNL     1      -8.397 -14.150   8.113  0.00  0.00    +0.045 C 
ENDROOT
BRANCH  10   9
ATOM      4  C   UNL     1      -5.210 -12.152  11.930  0.00  0.00    +0.077 A 
ATOM      5  C   UNL     1      -6.221 -11.167  12.187  0.00  0.00    +0.048 A 
ATOM      6  C   UNL     1      -7.038 -10.776  11.102  0.00  0.00    +0.116 A 
ATOM      7  N   UNL     1      -6.849 -11.336   9.857  0.00  0.00    -0.223 NA
ATOM      8  C   UNL     1      -5.864 -12.283   9.643  0.00  0.00    +0.220 A 
ATOM      9  N   UNL     1      -5.661 -12.865   8.401  0.00  0.00    -0.283 N 
ATOM     36  H   UNL     1      -4.919 -13.554   8.282  0.00  0.00    +0.155 HD
ATOM     37  N   UNL     1      -5.070 -12.671  10.662  0.00  0.00    -0.214 NA
BRANCH   4   3
ATOM      1  C   UNL     1      -2.888 -12.402  15.067  0.00  0.00    +0.020 A 
ATOM      2  C   UNL     1      -3.794 -11.854  14.085  0.00  0.00    +0.013 A 
ATOM      3  C   UNL     1      -4.271 -12.669  12.974  0.00  0.00    +0.019 A 
ATOM     38  C   UNL     1      -3.808 -14.045  12.887  0.00  0.00    +0.120 A 
ATOM     39  N   UNL     1      -2.933 -14.545  13.847  0.00  0.00    -0.263 NA
ATOM     40  C   UNL     1      -2.467 -13.770  14.919  0.00  0.00    +0.111 A 
ENDBRANCH   4   3
ENDBRANCH  10   9
BRANCH  12  13
ATOM     13  N   UNL     1      -6.306 -10.236   4.226  0.00  0.00    -0.281 N 
ATOM     14  C   UNL     1      -6.686  -8.912   4.074  0.00  0.00    +0.248 C 
ATOM     30  O   UNL     1      -7.639  -8.398   4.639  0.00  0.00    -0.270 OA
ATOM     31  H   UNL     1      -5.621 -10.586   3.555  0.00  0.00    +0.155 HD
BRANCH  14  15
ATOM     15  C   UNL     1      -5.903  -8.038   3.148  0.00  0.00    +0.037 A 
ATOM     16  C   UNL     1      -4.498  -8.322   2.841  0.00  0.00    +0.013 A 
ATOM     17  C   UNL     1      -3.761  -7.453   1.958  0.00  0.00    +0.005 A 
ATOM     18  C   UNL     1      -4.428  -6.292   1.375  0.00  0.00    -0.033 A 
ATOM     28  C   UNL     1      -5.824  -6.037   1.693  0.00  0.00    +0.005 A 
ATOM     29  C   UNL     1      -6.549  -6.886   2.558  0.00  0.00    +0.013 A 
BRANCH  18  19
ATOM     19  C   UNL     1      -3.713  -5.299   0.440  0.00  0.00    +0.119 C 
BRANCH  19  20
ATOM     20  N   UNL     1      -2.907  -5.872  -0.679  0.00  0.00    -0.302 NA
ATOM     21  C   UNL     1      -1.409  -5.608  -0.502  0.00  0.00    +0.066 C 
ATOM     22  C   UNL     1      -0.579  -6.235  -1.669  0.00  0.00    -0.064 C 
ATOM     23  N   UNL     1      -1.074  -5.672  -3.003  0.00  0.00    +0.379 N 
ATOM     24  C   UNL     1      -0.257  -6.215  -4.098  0.00  0.00    -0.096 C 
ATOM     25  H   UNL     1      -0.921  -4.568  -2.981  0.00  0.00    -0.082 HD
ATOM     26  C   UNL     1      -2.564  -5.928  -3.186  0.00  0.00    -0.064 C 
ATOM     27  C   UNL     1      -3.377  -5.327  -2.005  0.00  0.00    +0.066 C 
ENDBRANCH  19  20
ENDBRANCH  18  19
ENDBRANCH  14  15
ENDBRANCH  12  13
TORSDOF 6
ENDMDL
