MODEL 1
REMARK VINA RESULT:      -8.2      0.000      0.000
REMARK  Name = C:\Users\Docking\Desktop\test protocol\1iep_ligandH.pdb
REMARK  8 active torsions:
REMARK  status: ('A' for Active; 'I' for Inactive)
REMARK    1  A    between atoms: _5  and  _11
REMARK    2  A    between atoms: _19  and  _21
REMARK    3  A    between atoms: _22  and  _66
REMARK    4  A    between atoms: _27  and  _30
REMARK    5  A    between atoms: _32  and  _33
REMARK    6  A    between atoms: _38  and  _43
REMARK    7  A    between atoms: _43  and  _46
REMARK    8  A    between atoms: _53  and  _55
REMARK                            x       y       z     vdW  Elec       q    Type
REMARK                         _______ _______ _______ _____ _____    ______ ____
ROOT
ATOM     10  C   UNL     1       0.561 152.075  36.238  0.00  0.00    +0.038 A 
ATOM     11  C   UNL     1      -0.132 150.841  36.326  0.00  0.00    +0.047 A 
ATOM     12  C   UNL     1       0.109 149.919  37.426  0.00  0.00    +0.035 A 
ATOM     32  C   UNL     1       1.062 150.288  38.420  0.00  0.00    +0.024 A 
ATOM     33  C   UNL     1       1.776 151.539  38.345  0.00  0.00    +0.007 A 
ATOM     34  C   UNL     1       1.543 152.450  37.262  0.00  0.00    -0.029 A 
ATOM     35  C   UNL     1       2.342 153.774  37.229  0.00  0.00    +0.045 C 
ENDROOT
BRANCH  10   9
ATOM      4  C   UNL     1       1.411 153.676  31.794  0.00  0.00    +0.077 A 
ATOM      5  C   UNL     1       2.505 152.766  31.612  0.00  0.00    +0.048 A 
ATOM      6  C   UNL     1       2.821 151.908  32.689  0.00  0.00    +0.116 A 
ATOM      7  N   UNL     1       2.091 151.964  33.856  0.00  0.00    -0.223 NA
ATOM      8  C   UNL     1       1.043 152.854  33.999  0.00  0.00    +0.220 A 
ATOM      9  N   UNL     1       0.289 152.922  35.161  0.00  0.00    -0.283 N 
ATOM     36  H   UNL     1      -0.471 153.598  35.230  0.00  0.00    +0.155 HD
ATOM     37  N   UNL     1       0.722 153.685  32.986  0.00  0.00    -0.214 NA
BRANCH   4   3
ATOM      1  C   UNL     1       0.962 156.910  29.641  0.00  0.00    +0.020 A 
ATOM      2  C   UNL     1       1.435 156.016  30.672  0.00  0.00    +0.013 A 
ATOM      3  C   UNL     1       0.953 154.643  30.747  0.00  0.00    +0.019 A 
ATOM     38  C   UNL     1      -0.015 154.201  29.754  0.00  0.00    +0.120 A 
ATOM     39  N   UNL     1      -0.454 155.085  28.773  0.00  0.00    -0.263 NA
ATOM     40  C   UNL     1       0.002 156.409  28.692  0.00  0.00    +0.111 A 
ENDBRANCH   4   3
ENDBRANCH  10   9
BRANCH  12  13
ATOM     13  N   UNL     1      -0.558 148.648  37.563  0.00  0.00    -0.281 N 
ATOM     14  C   UNL     1      -0.377 147.504  36.803  0.00  0.00    +0.248 C 
ATOM     30  O   UNL     1       0.237 147.466  35.747  0.00  0.00    -0.270 OA
ATOM     31  H   UNL     1      -1.247 148.584  38.312  0.00  0.00    +0.155 HD
BRANCH  14  15
ATOM     15  C   UNL     1      -0.976 146.220  37.278  0.00  0.00    +0.037 A 
ATOM     16  C   UNL     1      -0.657 145.675  38.600  0.00  0.00    +0.013 A 
ATOM     17  C   UNL     1      -1.236 144.425  39.026  0.00  0.00    +0.005 A 
ATOM     18  C   UNL     1      -2.141 143.712  38.128  0.00  0.00    -0.033 A 
ATOM     28  C   UNL     1      -2.444 144.278  36.824  0.00  0.00    +0.005 A 
ATOM     29  C   UNL     1      -1.878 145.502  36.402  0.00  0.00    +0.013 A 
BRANCH  18  19
ATOM     19  C   UNL     1      -2.787 142.362  38.491  0.00  0.00    +0.119 C 
BRANCH  19  20
ATOM     20  N   UNL     1      -3.038 141.402  37.375  0.00  0.00    -0.302 NA
ATOM     21  C   UNL     1      -4.089 140.352  37.746  0.00  0.00    +0.066 C 
ATOM     22  C   UNL     1      -4.356 139.370  36.559  0.00  0.00    -0.064 C 
ATOM     23  N   UNL     1      -3.042 138.701  36.150  0.00  0.00    +0.379 N 
ATOM     24  C   UNL     1      -3.299 137.733  35.073  0.00  0.00    -0.096 C 
ATOM     25  H   UNL     1      -2.663 138.133  37.031  0.00  0.00    -0.082 HD
ATOM     26  C   UNL     1      -1.991 139.738  35.782  0.00  0.00    -0.064 C 
ATOM     27  C   UNL     1      -1.755 140.727  36.957  0.00  0.00    +0.066 C 
ENDBRANCH  19  20
ENDBRANCH  18  19
ENDBRANCH  14  15
ENDBRANCH  12  13
TORSDOF 6
ENDMDL
MODEL 2
REMARK VINA RESULT:      -8.1     23.734     29.070
REMARK  Name = C:\Users\Docking\Desktop\test protocol\1iep_ligandH.pdb
REMARK  8 active torsions:
REMARK  status: ('A' for Active; 'I' for Inactive)
REMARK    1  A    between atoms: _5  and  _11
REMARK    2  A    between atoms: _19  and  _21
REMARK    3  A    between atoms: _22  and  _66
REMARK    4  A    between atoms: _27  and  _30
REMARK    5  A    between atoms: _32  and  _33
REMARK    6  A    between atoms: _38  and  _43
REMARK    7  A    between atoms: _43  and  _46
REMARK    8  A    between atoms: _53  and  _55
REMARK                            x       y       z     vdW  Elec       q    Type
REMARK                         _______ _______ _______ _____ _____    ______ ____
ROOT
ATOM     10  C   UNL     1      18.329 165.544  41.459  0.00  0.00    +0.038 A 
ATOM     11  C   UNL     1      19.497 164.766  41.662  0.00  0.00    +0.047 A 
ATOM     12  C   UNL     1      20.608 165.268  42.455  0.00  0.00    +0.035 A 
ATOM     32  C   UNL     1      20.493 166.567  43.031  0.00  0.00    +0.024 A 
ATOM     33  C   UNL     1      19.314 167.372  42.834  0.00  0.00    +0.007 A 
ATOM     34  C   UNL     1      18.216 166.883  42.050  0.00  0.00    -0.029 A 
ATOM     35  C   UNL     1      16.978 167.792  41.867  0.00  0.00    +0.045 C 
ENDROOT
BRANCH  10   9
ATOM      4  C   UNL     1      15.953 165.061  37.317  0.00  0.00    +0.077 A 
ATOM      5  C   UNL     1      16.835 165.966  36.637  0.00  0.00    +0.048 A 
ATOM      6  C   UNL     1      17.883 166.540  37.391  0.00  0.00    +0.116 A 
ATOM      7  N   UNL     1      18.029 166.224  38.725  0.00  0.00    -0.223 NA
ATOM      8  C   UNL     1      17.160 165.349  39.350  0.00  0.00    +0.220 A 
ATOM      9  N   UNL     1      17.293 165.012  40.688  0.00  0.00    -0.283 N 
ATOM     36  H   UNL     1      16.626 164.368  41.114  0.00  0.00    +0.155 HD
ATOM     37  N   UNL     1      16.150 164.789  38.652  0.00  0.00    -0.214 NA
BRANCH   4   3
ATOM      1  C   UNL     1      13.606 163.457  34.630  0.00  0.00    +0.020 A 
ATOM      2  C   UNL     1      14.742 164.128  35.219  0.00  0.00    +0.013 A 
ATOM      3  C   UNL     1      14.801 164.372  36.655  0.00  0.00    +0.019 A 
ATOM     38  C   UNL     1      13.685 163.920  37.473  0.00  0.00    +0.120 A 
ATOM     39  N   UNL     1      12.604 163.278  36.877  0.00  0.00    -0.263 NA
ATOM     40  C   UNL     1      12.535 163.040  35.496  0.00  0.00    +0.111 A 
ENDBRANCH   4   3
ENDBRANCH  10   9
BRANCH  12  13
ATOM     13  N   UNL     1      21.822 164.527  42.689  0.00  0.00    -0.281 N 
ATOM     14  C   UNL     1      22.660 163.947  41.750  0.00  0.00    +0.248 C 
ATOM     30  O   UNL     1      22.377 163.795  40.571  0.00  0.00    -0.270 OA
ATOM     31  H   UNL     1      22.097 164.415  43.665  0.00  0.00    +0.155 HD
BRANCH  14  15
ATOM     15  C   UNL     1      24.001 163.452  42.187  0.00  0.00    +0.037 A 
ATOM     16  C   UNL     1      25.045 164.378  42.631  0.00  0.00    +0.013 A 
ATOM     17  C   UNL     1      26.336 163.875  43.031  0.00  0.00    +0.005 A 
ATOM     18  C   UNL     1      26.588 162.437  42.990  0.00  0.00    -0.033 A 
ATOM     28  C   UNL     1      25.532 161.540  42.550  0.00  0.00    +0.005 A 
ATOM     29  C   UNL     1      24.266 162.029  42.156  0.00  0.00    +0.013 A 
BRANCH  18  19
ATOM     19  C   UNL     1      27.942 161.814  43.378  0.00  0.00    +0.119 C 
BRANCH  19  20
ATOM     20  N   UNL     1      29.056 162.751  43.711  0.00  0.00    -0.302 NA
ATOM     21  C   UNL     1      30.392 162.285  43.128  0.00  0.00    +0.066 C 
ATOM     22  C   UNL     1      31.542 163.288  43.466  0.00  0.00    -0.064 C 
ATOM     23  N   UNL     1      31.641 163.454  44.984  0.00  0.00    +0.379 N 
ATOM     24  C   UNL     1      32.759 164.352  45.308  0.00  0.00    -0.096 C 
ATOM     25  H   UNL     1      31.874 162.454  45.418  0.00  0.00    -0.082 HD
ATOM     26  C   UNL     1      30.315 163.915  45.572  0.00  0.00    -0.064 C 
ATOM     27  C   UNL     1      29.174 162.926  45.205  0.00  0.00    +0.066 C 
ENDBRANCH  19  20
ENDBRANCH  18  19
ENDBRANCH  14  15
ENDBRANCH  12  13
TORSDOF 6
ENDMDL
MODEL 3
REMARK VINA RESULT:      -8.0     13.206     17.159
REMARK  Name = C:\Users\Docking\Desktop\test protocol\1iep_ligandH.pdb
REMARK  8 active torsions:
REMARK  status: ('A' for Active; 'I' for Inactive)
REMARK    1  A    between atoms: _5  and  _11
REMARK    2  A    between atoms: _19  and  _21
REMARK    3  A    between atoms: _22  and  _66
REMARK    4  A    between atoms: _27  and  _30
REMARK    5  A    between atoms: _32  and  _33
REMARK    6  A    between atoms: _38  and  _43
REMARK    7  A    between atoms: _43  and  _46
REMARK    8  A    between atoms: _53  and  _55
REMARK                            x       y       z     vdW  Elec       q    Type
REMARK                         _______ _______ _______ _____ _____    ______ ____
ROOT
ATOM     10  C   UNL     1       8.463 163.719  42.092  0.00  0.00    +0.038 A 
ATOM     11  C   UNL     1       9.019 162.642  41.356  0.00  0.00    +0.047 A 
ATOM     12  C   UNL     1      10.295 162.054  41.731  0.00  0.00    +0.035 A 
ATOM     32  C   UNL     1      10.977 162.586  42.864  0.00  0.00    +0.024 A 
ATOM     33  C   UNL     1      10.427 163.681  43.623  0.00  0.00    +0.007 A 
ATOM     34  C   UNL     1       9.170 164.267  43.256  0.00  0.00    -0.029 A 
ATOM     35  C   UNL     1       8.631 165.444  44.102  0.00  0.00    +0.045 C 
ENDROOT
BRANCH  10   9
ATOM      4  C   UNL     1       3.663 163.735  42.076  0.00  0.00    +0.077 A 
ATOM      5  C   UNL     1       3.598 162.580  42.924  0.00  0.00    +0.048 A 
ATOM      6  C   UNL     1       4.822 162.007  43.337  0.00  0.00    +0.116 A 
ATOM      7  N   UNL     1       6.017 162.558  42.926  0.00  0.00    -0.223 NA
ATOM      8  C   UNL     1       6.044 163.671  42.106  0.00  0.00    +0.220 A 
ATOM      9  N   UNL     1       7.234 164.246  41.687  0.00  0.00    -0.283 N 
ATOM     36  H   UNL     1       7.212 165.062  41.077  0.00  0.00    +0.155 HD
ATOM     37  N   UNL     1       4.889 164.235  41.697  0.00  0.00    -0.214 NA
BRANCH   4   3
ATOM      1  C   UNL     1       0.906 165.174  39.704  0.00  0.00    +0.020 A 
ATOM      2  C   UNL     1       2.082 164.464  40.151  0.00  0.00    +0.013 A 
ATOM      3  C   UNL     1       2.456 164.454  41.560  0.00  0.00    +0.019 A 
ATOM     38  C   UNL     1       1.612 165.178  42.498  0.00  0.00    +0.120 A 
ATOM     39  N   UNL     1       0.486 165.854  42.038  0.00  0.00    -0.263 NA
ATOM     40  C   UNL     1       0.117 165.872  40.685  0.00  0.00    +0.111 A 
ENDBRANCH   4   3
ENDBRANCH  10   9
BRANCH  12  13
ATOM     13  N   UNL     1      10.913 160.964  41.017  0.00  0.00    -0.281 N 
ATOM     14  C   UNL     1      10.801 159.607  41.271  0.00  0.00    +0.248 C 
ATOM     30  O   UNL     1      10.319 159.132  42.288  0.00  0.00    -0.270 OA
ATOM     31  H   UNL     1      11.506 161.225  40.228  0.00  0.00    +0.155 HD
BRANCH  14  15
ATOM     15  C   UNL     1      11.310 158.637  40.254  0.00  0.00    +0.037 A 
ATOM     16  C   UNL     1      11.184 157.191  40.452  0.00  0.00    +0.013 A 
ATOM     17  C   UNL     1      11.699 156.278  39.463  0.00  0.00    +0.005 A 
ATOM     18  C   UNL     1      12.345 156.809  38.265  0.00  0.00    -0.033 A 
ATOM     28  C   UNL     1      12.452 158.248  38.091  0.00  0.00    +0.005 A 
ATOM     29  C   UNL     1      11.949 159.146  39.059  0.00  0.00    +0.013 A 
BRANCH  18  19
ATOM     19  C   UNL     1      12.942 155.908  37.168  0.00  0.00    +0.119 C 
BRANCH  19  20
ATOM     20  N   UNL     1      12.071 155.586  35.998  0.00  0.00    -0.302 NA
ATOM     21  C   UNL     1      10.605 155.413  36.404  0.00  0.00    +0.066 C 
ATOM     22  C   UNL     1       9.704 155.099  35.166  0.00  0.00    -0.064 C 
ATOM     23  N   UNL     1      10.224 153.842  34.466  0.00  0.00    +0.379 N 
ATOM     24  C   UNL     1       9.345 153.510  33.335  0.00  0.00    -0.096 C 
ATOM     25  H   UNL     1      10.168 153.001  35.196  0.00  0.00    -0.082 HD
ATOM     26  C   UNL     1      11.682 154.004  34.061  0.00  0.00    -0.064 C 
ATOM     27  C   UNL     1      12.564 154.345  35.295  0.00  0.00    +0.066 C 
ENDBRANCH  19  20
ENDBRANCH  18  19
ENDBRANCH  14  15
ENDBRANCH  12  13
TORSDOF 6
ENDMDL
MODEL 4
REMARK VINA RESULT:      -7.9     16.519     20.959
REMARK  Name = C:\Users\Docking\Desktop\test protocol\1iep_ligandH.pdb
REMARK  8 active torsions:
REMARK  status: ('A' for Active; 'I' for Inactive)
REMARK    1  A    between atoms: _5  and  _11
REMARK    2  A    between atoms: _19  and  _21
REMARK    3  A    between atoms: _22  and  _66
REMARK    4  A    between atoms: _27  and  _30
REMARK    5  A    between atoms: _32  and  _33
REMARK    6  A    between atoms: _38  and  _43
REMARK    7  A    between atoms: _43  and  _46
REMARK    8  A    between atoms: _53  and  _55
REMARK                            x       y       z     vdW  Elec       q    Type
REMARK                         _______ _______ _______ _____ _____    ______ ____
ROOT
ATOM     10  C   UNL     1      13.672 165.600  38.894  0.00  0.00    +0.038 A 
ATOM     11  C   UNL     1      13.766 164.187  38.816  0.00  0.00    +0.047 A 
ATOM     12  C   UNL     1      13.075 163.443  37.774  0.00  0.00    +0.035 A 
ATOM     32  C   UNL     1      12.299 164.171  36.826  0.00  0.00    +0.024 A 
ATOM     33  C   UNL     1      12.191 165.607  36.890  0.00  0.00    +0.007 A 
ATOM     34  C   UNL     1      12.868 166.346  37.917  0.00  0.00    -0.029 A 
ATOM     35  C   UNL     1      12.712 167.885  37.942  0.00  0.00    +0.045 C 
ENDROOT
BRANCH  10   9
ATOM      4  C   UNL     1      17.609 167.662  40.706  0.00  0.00    +0.077 A 
ATOM      5  C   UNL     1      18.376 167.368  39.530  0.00  0.00    +0.048 A 
ATOM      6  C   UNL     1      17.722 166.679  38.484  0.00  0.00    +0.116 A 
ATOM      7  N   UNL     1      16.399 166.315  38.615  0.00  0.00    -0.223 NA
ATOM      8  C   UNL     1      15.689 166.613  39.764  0.00  0.00    +0.220 A 
ATOM      9  N   UNL     1      14.356 166.264  39.914  0.00  0.00    -0.283 N 
ATOM     36  H   UNL     1      13.869 166.495  40.780  0.00  0.00    +0.155 HD
ATOM     37  N   UNL     1      16.291 167.269  40.777  0.00  0.00    -0.214 NA
BRANCH   4   3
ATOM      1  C   UNL     1      20.053 169.102  43.399  0.00  0.00    +0.020 A 
ATOM      2  C   UNL     1      19.574 168.384  42.240  0.00  0.00    +0.013 A 
ATOM      3  C   UNL     1      18.158 168.387  41.895  0.00  0.00    +0.019 A 
ATOM     38  C   UNL     1      17.246 169.133  42.749  0.00  0.00    +0.120 A 
ATOM     39  N   UNL     1      17.736 169.813  43.859  0.00  0.00    -0.263 NA
ATOM     40  C   UNL     1      19.096 169.816  44.203  0.00  0.00    +0.111 A 
ENDBRANCH   4   3
ENDBRANCH  10   9
BRANCH  12  13
ATOM     13  N   UNL     1      13.127 162.007  37.651  0.00  0.00    -0.281 N 
ATOM     14  C   UNL     1      12.598 161.059  38.510  0.00  0.00    +0.248 C 
ATOM     30  O   UNL     1      12.181 161.300  39.633  0.00  0.00    -0.270 OA
ATOM     31  H   UNL     1      13.614 161.647  36.829  0.00  0.00    +0.155 HD
BRANCH  14  15
ATOM     15  C   UNL     1      12.535 159.634  38.063  0.00  0.00    +0.037 A 
ATOM     16  C   UNL     1      13.143 159.207  36.800  0.00  0.00    +0.013 A 
ATOM     17  C   UNL     1      13.054 157.829  36.384  0.00  0.00    +0.005 A 
ATOM     18  C   UNL     1      12.354 156.869  37.233  0.00  0.00    -0.033 A 
ATOM     28  C   UNL     1      11.764 157.319  38.483  0.00  0.00    +0.005 A 
ATOM     29  C   UNL     1      11.849 158.668  38.894  0.00  0.00    +0.013 A 
BRANCH  18  19
ATOM     19  C   UNL     1      12.191 155.384  36.858  0.00  0.00    +0.119 C 
BRANCH  19  20
ATOM     20  N   UNL     1      11.350 155.068  35.665  0.00  0.00    -0.302 NA
ATOM     21  C   UNL     1       9.897 154.773  36.048  0.00  0.00    +0.066 C 
ATOM     22  C   UNL     1       9.027 154.467  34.785  0.00  0.00    -0.064 C 
ATOM     23  N   UNL     1       9.636 153.289  34.023  0.00  0.00    +0.379 N 
ATOM     24  C   UNL     1       8.787 152.962  32.867  0.00  0.00    -0.096 C 
ATOM     25  H   UNL     1       9.633 152.408  34.705  0.00  0.00    -0.082 HD
ATOM     26  C   UNL     1      11.081 153.573  33.641  0.00  0.00    -0.064 C 
ATOM     27  C   UNL     1      11.931 153.905  34.899  0.00  0.00    +0.066 C 
ENDBRANCH  19  20
ENDBRANCH  18  19
ENDBRANCH  14  15
ENDBRANCH  12  13
TORSDOF 6
ENDMDL
MODEL 5
REMARK VINA RESULT:      -7.6     32.607     35.376
REMARK  Name = C:\Users\Docking\Desktop\test protocol\1iep_ligandH.pdb
REMARK  8 active torsions:
REMARK  status: ('A' for Active; 'I' for Inactive)
REMARK    1  A    between atoms: _5  and  _11
REMARK    2  A    between atoms: _19  and  _21
REMARK    3  A    between atoms: _22  and  _66
REMARK    4  A    between atoms: _27  and  _30
REMARK    5  A    between atoms: _32  and  _33
REMARK    6  A    between atoms: _38  and  _43
REMARK    7  A    between atoms: _43  and  _46
REMARK    8  A    between atoms: _53  and  _55
REMARK                            x       y       z     vdW  Elec       q    Type
REMARK                         _______ _______ _______ _____ _____    ______ ____
ROOT
ATOM     10  C   UNL     1      19.816 135.624  58.858  0.00  0.00    +0.038 A 
ATOM     11  C   UNL     1      19.090 135.800  60.064  0.00  0.00    +0.047 A 
ATOM     12  C   UNL     1      18.767 137.129  60.560  0.00  0.00    +0.035 A 
ATOM     32  C   UNL     1      19.195 138.256  59.800  0.00  0.00    +0.024 A 
ATOM     33  C   UNL     1      19.934 138.095  58.572  0.00  0.00    +0.007 A 
ATOM     34  C   UNL     1      20.259 136.787  58.080  0.00  0.00    -0.029 A 
ATOM     35  C   UNL     1      21.059 136.674  56.762  0.00  0.00    +0.045 C 
ENDROOT
BRANCH  10   9
ATOM      4  C   UNL     1      18.585 131.514  56.705  0.00  0.00    +0.077 A 
ATOM      5  C   UNL     1      17.257 131.985  56.436  0.00  0.00    +0.048 A 
ATOM      6  C   UNL     1      16.928 133.287  56.874  0.00  0.00    +0.116 A 
ATOM      7  N   UNL     1      17.866 134.053  57.532  0.00  0.00    -0.223 NA
ATOM      8  C   UNL     1      19.137 133.569  57.777  0.00  0.00    +0.220 A 
ATOM      9  N   UNL     1      20.099 134.325  58.429  0.00  0.00    -0.283 N 
ATOM     36  H   UNL     1      21.023 133.929  58.597  0.00  0.00    +0.155 HD
ATOM     37  N   UNL     1      19.476 132.328  57.369  0.00  0.00    -0.214 NA
BRANCH   4   3
ATOM      1  C   UNL     1      20.894 128.588  55.518  0.00  0.00    +0.020 A 
ATOM      2  C   UNL     1      20.463 129.914  55.899  0.00  0.00    +0.013 A 
ATOM      3  C   UNL     1      19.084 130.162  56.301  0.00  0.00    +0.019 A 
ATOM     38  C   UNL     1      18.160 129.038  56.309  0.00  0.00    +0.120 A 
ATOM     39  N   UNL     1      18.603 127.773  55.936  0.00  0.00    -0.263 NA
ATOM     40  C   UNL     1      19.927 127.523  55.545  0.00  0.00    +0.111 A 
ENDBRANCH   4   3
ENDBRANCH  10   9
BRANCH  12  13
ATOM     13  N   UNL     1      18.040 137.371  61.782  0.00  0.00    -0.281 N 
ATOM     14  C   UNL     1      18.543 137.784  63.004  0.00  0.00    +0.248 C 
ATOM     30  O   UNL     1      19.731 137.804  63.292  0.00  0.00    -0.270 OA
ATOM     31  H   UNL     1      17.032 137.218  61.740  0.00  0.00    +0.155 HD
BRANCH  14  15
ATOM     15  C   UNL     1      17.589 138.226  64.066  0.00  0.00    +0.037 A 
ATOM     16  C   UNL     1      16.713 137.269  64.746  0.00  0.00    +0.013 A 
ATOM     17  C   UNL     1      15.789 137.725  65.755  0.00  0.00    +0.005 A 
ATOM     18  C   UNL     1      15.738 139.146  66.089  0.00  0.00    -0.033 A 
ATOM     28  C   UNL     1      16.621 140.073  65.402  0.00  0.00    +0.005 A 
ATOM     29  C   UNL     1      17.528 139.630  64.413  0.00  0.00    +0.013 A 
BRANCH  18  19
ATOM     19  C   UNL     1      14.768 139.724  67.137  0.00  0.00    +0.119 C 
BRANCH  19  20
ATOM     20  N   UNL     1      13.479 139.001  67.348  0.00  0.00    -0.302 NA
ATOM     21  C   UNL     1      12.613 138.989  66.085  0.00  0.00    +0.066 C 
ATOM     22  C   UNL     1      11.278 138.208  66.317  0.00  0.00    -0.064 C 
ATOM     23  N   UNL     1      10.520 138.837  67.487  0.00  0.00    +0.379 N 
ATOM     24  C   UNL     1       9.237 138.143  67.670  0.00  0.00    -0.096 C 
ATOM     25  H   UNL     1      10.296 139.895  67.215  0.00  0.00    -0.082 HD
ATOM     26  C   UNL     1      11.374 138.856  68.747  0.00  0.00    -0.064 C 
ATOM     27  C   UNL     1      12.711 139.608  68.497  0.00  0.00    +0.066 C 
ENDBRANCH  19  20
ENDBRANCH  18  19
ENDBRANCH  14  15
ENDBRANCH  12  13
TORSDOF 6
ENDMDL
