MODEL 1
REMARK VINA RESULT:     -10.0      0.000      0.000
REMARK  Name = C:\Users\Docking\Desktop\test protocol\1iep_ligandH.pdb
REMARK  8 active torsions:
REMARK  status: ('A' for Active; 'I' for Inactive)
REMARK    1  A    between atoms: _5  and  _11
REMARK    2  A    between atoms: _19  and  _21
REMARK    3  A    between atoms: _22  and  _66
REMARK    4  A    between atoms: _27  and  _30
REMARK    5  A    between atoms: _32  and  _33
REMARK    6  A    between atoms: _38  and  _43
REMARK    7  A    between atoms: _43  and  _46
REMARK    8  A    between atoms: _53  and  _55
REMARK                            x       y       z     vdW  Elec       q    Type
REMARK                         _______ _______ _______ _____ _____    ______ ____
ROOT
ATOM     10  C   UNL     1      14.439  48.344   1.105  0.00  0.00    +0.038 A 
ATOM     11  C   UNL     1      15.452  47.480   1.593  0.00  0.00    +0.047 A 
ATOM     12  C   UNL     1      15.173  46.082   1.883  0.00  0.00    +0.035 A 
ATOM     32  C   UNL     1      13.851  45.597   1.662  0.00  0.00    +0.024 A 
ATOM     33  C   UNL     1      12.808  46.462   1.168  0.00  0.00    +0.007 A 
ATOM     34  C   UNL     1      13.077  47.842   0.882  0.00  0.00    -0.029 A 
ATOM     35  C   UNL     1      11.920  48.725   0.361  0.00  0.00    +0.045 C 
ENDROOT
BRANCH  10   9
ATOM      4  C   UNL     1      14.896  52.930   2.445  0.00  0.00    +0.077 A 
ATOM      5  C   UNL     1      14.425  52.651   3.771  0.00  0.00    +0.048 A 
ATOM      6  C   UNL     1      14.068  51.316   4.066  0.00  0.00    +0.116 A 
ATOM      7  N   UNL     1      14.179  50.341   3.099  0.00  0.00    -0.223 NA
ATOM      8  C   UNL     1      14.635  50.644   1.829  0.00  0.00    +0.220 A 
ATOM      9  N   UNL     1      14.762  49.677   0.843  0.00  0.00    -0.283 N 
ATOM     36  H   UNL     1      15.095  49.943  -0.083  0.00  0.00    +0.155 HD
ATOM     37  N   UNL     1      14.980  51.912   1.522  0.00  0.00    -0.214 NA
BRANCH   4   3
ATOM      1  C   UNL     1      15.200  56.244   0.389  0.00  0.00    +0.020 A 
ATOM      2  C   UNL     1      14.762  54.927   0.792  0.00  0.00    +0.013 A 
ATOM      3  C   UNL     1      15.313  54.291   1.982  0.00  0.00    +0.019 A 
ATOM     38  C   UNL     1      16.313  55.021   2.748  0.00  0.00    +0.120 A 
ATOM     39  N   UNL     1      16.716  56.287   2.335  0.00  0.00    -0.263 NA
ATOM     40  C   UNL     1      16.194  56.908   1.190  0.00  0.00    +0.111 A 
ENDBRANCH   4   3
ENDBRANCH  10   9
BRANCH  12  13
ATOM     13  N   UNL     1      16.159  45.159   2.387  0.00  0.00    -0.281 N 
ATOM     14  C   UNL     1      16.945  44.275   1.666  0.00  0.00    +0.248 C 
ATOM     30  O   UNL     1      16.767  43.991   0.491  0.00  0.00    -0.270 OA
ATOM     31  H   UNL     1      16.294  45.157   3.398  0.00  0.00    +0.155 HD
BRANCH  14  15
ATOM     15  C   UNL     1      18.086  43.597   2.354  0.00  0.00    +0.037 A 
ATOM     16  C   UNL     1      18.518  42.252   1.965  0.00  0.00    +0.013 A 
ATOM     17  C   UNL     1      19.610  41.615   2.656  0.00  0.00    +0.005 A 
ATOM     18  C   UNL     1      20.280  42.323   3.745  0.00  0.00    -0.033 A 
ATOM     28  C   UNL     1      19.834  43.659   4.107  0.00  0.00    +0.005 A 
ATOM     29  C   UNL     1      18.763  44.286   3.432  0.00  0.00    +0.013 A 
BRANCH  18  19
ATOM     19  C   UNL     1      21.440  41.712   4.552  0.00  0.00    +0.119 C 
BRANCH  19  20
ATOM     20  N   UNL     1      22.819  42.192   4.238  0.00  0.00    -0.302 NA
ATOM     21  C   UNL     1      22.988  43.685   4.531  0.00  0.00    +0.066 C 
ATOM     22  C   UNL     1      24.442  44.166   4.219  0.00  0.00    -0.064 C 
ATOM     23  N   UNL     1      24.774  43.861   2.757  0.00  0.00    +0.379 N 
ATOM     24  C   UNL     1      26.120  44.364   2.444  0.00  0.00    -0.096 C 
ATOM     25  H   UNL     1      24.048  44.419   2.122  0.00  0.00    -0.082 HD
ATOM     26  C   UNL     1      24.607  42.378   2.456  0.00  0.00    -0.064 C 
ATOM     27  C   UNL     1      23.166  41.904   2.798  0.00  0.00    +0.066 C 
ENDBRANCH  19  20
ENDBRANCH  18  19
ENDBRANCH  14  15
ENDBRANCH  12  13
TORSDOF 6
ENDMDL
MODEL 2
REMARK VINA RESULT:      -9.3      2.635     11.209
REMARK  Name = C:\Users\Docking\Desktop\test protocol\1iep_ligandH.pdb
REMARK  8 active torsions:
REMARK  status: ('A' for Active; 'I' for Inactive)
REMARK    1  A    between atoms: _5  and  _11
REMARK    2  A    between atoms: _19  and  _21
REMARK    3  A    between atoms: _22  and  _66
REMARK    4  A    between atoms: _27  and  _30
REMARK    5  A    between atoms: _32  and  _33
REMARK    6  A    between atoms: _38  and  _43
REMARK    7  A    between atoms: _43  and  _46
REMARK    8  A    between atoms: _53  and  _55
REMARK                            x       y       z     vdW  Elec       q    Type
REMARK                         _______ _______ _______ _____ _____    ______ ____
ROOT
ATOM     10  C   UNL     1      18.733  43.878   3.467  0.00  0.00    +0.038 A 
ATOM     11  C   UNL     1      17.878  44.943   3.084  0.00  0.00    +0.047 A 
ATOM     12  C   UNL     1      17.071  44.864   1.876  0.00  0.00    +0.035 A 
ATOM     32  C   UNL     1      17.158  43.683   1.083  0.00  0.00    +0.024 A 
ATOM     33  C   UNL     1      18.022  42.591   1.456  0.00  0.00    +0.007 A 
ATOM     34  C   UNL     1      18.822  42.665   2.645  0.00  0.00    -0.029 A 
ATOM     35  C   UNL     1      19.736  41.467   2.994  0.00  0.00    +0.045 C 
ENDROOT
BRANCH  10   9
ATOM      4  C   UNL     1      22.593  45.416   5.869  0.00  0.00    +0.077 A 
ATOM      5  C   UNL     1      23.174  45.987   4.688  0.00  0.00    +0.048 A 
ATOM      6  C   UNL     1      22.450  45.857   3.481  0.00  0.00    +0.116 A 
ATOM      7  N   UNL     1      21.237  45.203   3.468  0.00  0.00    -0.223 NA
ATOM      8  C   UNL     1      20.706  44.662   4.625  0.00  0.00    +0.220 A 
ATOM      9  N   UNL     1      19.485  44.007   4.637  0.00  0.00    -0.283 N 
ATOM     36  H   UNL     1      19.131  43.616   5.510  0.00  0.00    +0.155 HD
ATOM     37  N   UNL     1      21.378  44.772   5.790  0.00  0.00    -0.214 NA
BRANCH   4   3
ATOM      1  C   UNL     1      24.996  46.303   8.825  0.00  0.00    +0.020 A 
ATOM      2  C   UNL     1      24.415  46.281   7.502  0.00  0.00    +0.013 A 
ATOM      3  C   UNL     1      23.235  45.475   7.220  0.00  0.00    +0.019 A 
ATOM     38  C   UNL     1      22.661  44.696   8.307  0.00  0.00    +0.120 A 
ATOM     39  N   UNL     1      23.242  44.735   9.571  0.00  0.00    -0.263 NA
ATOM     40  C   UNL     1      24.380  45.507   9.854  0.00  0.00    +0.111 A 
ENDBRANCH   4   3
ENDBRANCH  10   9
BRANCH  12  13
ATOM     13  N   UNL     1      16.192  45.916   1.433  0.00  0.00    -0.281 N 
ATOM     14  C   UNL     1      14.827  46.030   1.640  0.00  0.00    +0.248 C 
ATOM     30  O   UNL     1      14.114  45.129   2.058  0.00  0.00    -0.270 OA
ATOM     31  H   UNL     1      16.628  46.670   0.902  0.00  0.00    +0.155 HD
BRANCH  14  15
ATOM     15  C   UNL     1      14.153  47.326   1.324  0.00  0.00    +0.037 A 
ATOM     16  C   UNL     1      12.693  47.433   1.282  0.00  0.00    +0.013 A 
ATOM     17  C   UNL     1      12.069  48.691   0.957  0.00  0.00    +0.005 A 
ATOM     18  C   UNL     1      12.907  49.854   0.674  0.00  0.00    -0.033 A 
ATOM     28  C   UNL     1      14.353  49.721   0.727  0.00  0.00    +0.005 A 
ATOM     29  C   UNL     1      14.968  48.489   1.044  0.00  0.00    +0.013 A 
BRANCH  18  19
ATOM     19  C   UNL     1      12.328  51.231   0.298  0.00  0.00    +0.119 C 
BRANCH  19  20
ATOM     20  N   UNL     1      13.119  52.435   0.688  0.00  0.00    -0.302 NA
ATOM     21  C   UNL     1      13.186  52.612   2.207  0.00  0.00    +0.066 C 
ATOM     22  C   UNL     1      14.037  53.864   2.599  0.00  0.00    -0.064 C 
ATOM     23  N   UNL     1      13.444  55.107   1.935  0.00  0.00    +0.379 N 
ATOM     24  C   UNL     1      14.207  56.295   2.347  0.00  0.00    -0.096 C 
ATOM     25  H   UNL     1      12.402  55.227   2.312  0.00  0.00    -0.082 HD
ATOM     26  C   UNL     1      13.371  54.940   0.423  0.00  0.00    -0.064 C 
ATOM     27  C   UNL     1      12.549  53.676   0.046  0.00  0.00    +0.066 C 
ENDBRANCH  19  20
ENDBRANCH  18  19
ENDBRANCH  14  15
ENDBRANCH  12  13
TORSDOF 6
ENDMDL
MODEL 3
REMARK VINA RESULT:      -9.2      4.153      8.636
REMARK  Name = C:\Users\Docking\Desktop\test protocol\1iep_ligandH.pdb
REMARK  8 active torsions:
REMARK  status: ('A' for Active; 'I' for Inactive)
REMARK    1  A    between atoms: _5  and  _11
REMARK    2  A    between atoms: _19  and  _21
REMARK    3  A    between atoms: _22  and  _66
REMARK    4  A    between atoms: _27  and  _30
REMARK    5  A    between atoms: _32  and  _33
REMARK    6  A    between atoms: _38  and  _43
REMARK    7  A    between atoms: _43  and  _46
REMARK    8  A    between atoms: _53  and  _55
REMARK                            x       y       z     vdW  Elec       q    Type
REMARK                         _______ _______ _______ _____ _____    ______ ____
ROOT
ATOM     10  C   UNL     1      19.957  42.316   2.655  0.00  0.00    +0.038 A 
ATOM     11  C   UNL     1      21.119  43.125   2.576  0.00  0.00    +0.047 A 
ATOM     12  C   UNL     1      22.413  42.628   3.019  0.00  0.00    +0.035 A 
ATOM     32  C   UNL     1      22.487  41.302   3.534  0.00  0.00    +0.024 A 
ATOM     33  C   UNL     1      21.315  40.466   3.622  0.00  0.00    +0.007 A 
ATOM     34  C   UNL     1      20.036  40.951   3.189  0.00  0.00    -0.029 A 
ATOM     35  C   UNL     1      18.812  40.014   3.313  0.00  0.00    +0.045 C 
ENDROOT
BRANCH  10   9
ATOM      4  C   UNL     1      16.530  45.676   2.720  0.00  0.00    +0.077 A 
ATOM      5  C   UNL     1      17.207  46.431   3.735  0.00  0.00    +0.048 A 
ATOM      6  C   UNL     1      18.431  45.917   4.218  0.00  0.00    +0.116 A 
ATOM      7  N   UNL     1      18.931  44.735   3.717  0.00  0.00    -0.223 NA
ATOM      8  C   UNL     1      18.252  44.030   2.740  0.00  0.00    +0.220 A 
ATOM      9  N   UNL     1      18.740  42.843   2.215  0.00  0.00    -0.283 N 
ATOM     36  H   UNL     1      18.206  42.350   1.501  0.00  0.00    +0.155 HD
ATOM     37  N   UNL     1      17.080  44.500   2.263  0.00  0.00    -0.214 NA
BRANCH   4   3
ATOM      1  C   UNL     1      12.906  45.608   1.249  0.00  0.00    +0.020 A 
ATOM      2  C   UNL     1      14.143  45.155   1.843  0.00  0.00    +0.013 A 
ATOM      3  C   UNL     1      15.229  46.091   2.107  0.00  0.00    +0.019 A 
ATOM     38  C   UNL     1      15.029  47.489   1.756  0.00  0.00    +0.120 A 
ATOM     39  N   UNL     1      13.828  47.896   1.183  0.00  0.00    -0.263 NA
ATOM     40  C   UNL     1      12.776  47.004   0.923  0.00  0.00    +0.111 A 
ENDBRANCH   4   3
ENDBRANCH  10   9
BRANCH  12  13
ATOM     13  N   UNL     1      23.626  43.407   2.971  0.00  0.00    -0.281 N 
ATOM     14  C   UNL     1      24.144  44.237   3.951  0.00  0.00    +0.248 C 
ATOM     30  O   UNL     1      23.530  44.604   4.942  0.00  0.00    -0.270 OA
ATOM     31  H   UNL     1      24.168  43.337   2.110  0.00  0.00    +0.155 HD
BRANCH  14  15
ATOM     15  C   UNL     1      25.542  44.744   3.802  0.00  0.00    +0.037 A 
ATOM     16  C   UNL     1      26.024  45.886   4.584  0.00  0.00    +0.013 A 
ATOM     17  C   UNL     1      27.372  46.366   4.408  0.00  0.00    +0.005 A 
ATOM     18  C   UNL     1      28.249  45.701   3.448  0.00  0.00    -0.033 A 
ATOM     28  C   UNL     1      27.747  44.567   2.690  0.00  0.00    +0.005 A 
ATOM     29  C   UNL     1      26.426  44.094   2.858  0.00  0.00    +0.013 A 
BRANCH  18  19
ATOM     19  C   UNL     1      29.695  46.158   3.180  0.00  0.00    +0.119 C 
BRANCH  19  20
ATOM     20  N   UNL     1      30.271  45.855   1.836  0.00  0.00    -0.302 NA
ATOM     21  C   UNL     1      31.728  45.393   1.926  0.00  0.00    +0.066 C 
ATOM     22  C   UNL     1      32.308  45.058   0.513  0.00  0.00    -0.064 C 
ATOM     23  N   UNL     1      32.183  46.286  -0.390  0.00  0.00    +0.379 N 
ATOM     24  C   UNL     1      32.780  45.993  -1.701  0.00  0.00    -0.096 C 
ATOM     25  H   UNL     1      32.775  47.109   0.075  0.00  0.00    -0.082 HD
ATOM     26  C   UNL     1      30.738  46.754  -0.483  0.00  0.00    -0.064 C 
ATOM     27  C   UNL     1      30.163  47.055   0.929  0.00  0.00    +0.066 C 
ENDBRANCH  19  20
ENDBRANCH  18  19
ENDBRANCH  14  15
ENDBRANCH  12  13
TORSDOF 6
ENDMDL
MODEL 4
REMARK VINA RESULT:      -9.0      2.615     11.931
REMARK  Name = C:\Users\Docking\Desktop\test protocol\1iep_ligandH.pdb
REMARK  8 active torsions:
REMARK  status: ('A' for Active; 'I' for Inactive)
REMARK    1  A    between atoms: _5  and  _11
REMARK    2  A    between atoms: _19  and  _21
REMARK    3  A    between atoms: _22  and  _66
REMARK    4  A    between atoms: _27  and  _30
REMARK    5  A    between atoms: _32  and  _33
REMARK    6  A    between atoms: _38  and  _43
REMARK    7  A    between atoms: _43  and  _46
REMARK    8  A    between atoms: _53  and  _55
REMARK                            x       y       z     vdW  Elec       q    Type
REMARK                         _______ _______ _______ _____ _____    ______ ____
ROOT
ATOM     10  C   UNL     1      14.680  46.941   2.011  0.00  0.00    +0.038 A 
ATOM     11  C   UNL     1      14.979  48.321   1.873  0.00  0.00    +0.047 A 
ATOM     12  C   UNL     1      14.074  49.220   1.175  0.00  0.00    +0.035 A 
ATOM     32  C   UNL     1      12.871  48.682   0.633  0.00  0.00    +0.024 A 
ATOM     33  C   UNL     1      12.552  47.282   0.764  0.00  0.00    +0.007 A 
ATOM     34  C   UNL     1      13.442  46.389   1.449  0.00  0.00    -0.029 A 
ATOM     35  C   UNL     1      13.052  44.896   1.553  0.00  0.00    +0.045 C 
ENDROOT
BRANCH  10   9
ATOM      4  C   UNL     1      18.157  43.633   2.096  0.00  0.00    +0.077 A 
ATOM      5  C   UNL     1      18.151  43.505   0.667  0.00  0.00    +0.048 A 
ATOM      6  C   UNL     1      17.233  44.303  -0.052  0.00  0.00    +0.116 A 
ATOM      7  N   UNL     1      16.389  45.162   0.618  0.00  0.00    -0.223 NA
ATOM      8  C   UNL     1      16.420  45.260   1.997  0.00  0.00    +0.220 A 
ATOM      9  N   UNL     1      15.585  46.123   2.691  0.00  0.00    -0.283 N 
ATOM     36  H   UNL     1      15.633  46.160   3.709  0.00  0.00    +0.155 HD
ATOM     37  N   UNL     1      17.286  44.507   2.707  0.00  0.00    -0.214 NA
BRANCH   4   3
ATOM      1  C   UNL     1      20.165  40.722   3.767  0.00  0.00    +0.020 A 
ATOM      2  C   UNL     1      19.271  41.421   2.874  0.00  0.00    +0.013 A 
ATOM      3  C   UNL     1      19.071  42.860   2.995  0.00  0.00    +0.019 A 
ATOM     38  C   UNL     1      19.798  43.567   4.038  0.00  0.00    +0.120 A 
ATOM     39  N   UNL     1      20.652  42.867   4.885  0.00  0.00    -0.263 NA
ATOM     40  C   UNL     1      20.851  41.482   4.779  0.00  0.00    +0.111 A 
ENDBRANCH   4   3
ENDBRANCH  10   9
BRANCH  12  13
ATOM     13  N   UNL     1      14.328  50.628   0.996  0.00  0.00    -0.281 N 
ATOM     14  C   UNL     1      13.825  51.686   1.737  0.00  0.00    +0.248 C 
ATOM     30  O   UNL     1      12.905  51.593   2.536  0.00  0.00    -0.270 OA
ATOM     31  H   UNL     1      14.956  50.876   0.231  0.00  0.00    +0.155 HD
BRANCH  14  15
ATOM     15  C   UNL     1      14.419  53.044   1.551  0.00  0.00    +0.037 A 
ATOM     16  C   UNL     1      15.636  53.445   2.262  0.00  0.00    +0.013 A 
ATOM     17  C   UNL     1      16.179  54.768   2.078  0.00  0.00    +0.005 A 
ATOM     18  C   UNL     1      15.504  55.700   1.177  0.00  0.00    -0.033 A 
ATOM     28  C   UNL     1      14.301  55.274   0.481  0.00  0.00    +0.005 A 
ATOM     29  C   UNL     1      13.766  53.979   0.660  0.00  0.00    +0.013 A 
BRANCH  18  19
ATOM     19  C   UNL     1      16.001  57.138   0.937  0.00  0.00    +0.119 C 
BRANCH  19  20
ATOM     20  N   UNL     1      16.687  57.417  -0.359  0.00  0.00    -0.302 NA
ATOM     21  C   UNL     1      17.947  58.267  -0.171  0.00  0.00    +0.066 C 
ATOM     22  C   UNL     1      18.665  58.530  -1.535  0.00  0.00    -0.064 C 
ATOM     23  N   UNL     1      17.691  59.211  -2.498  0.00  0.00    +0.379 N 
ATOM     24  C   UNL     1      18.380  59.512  -3.761  0.00  0.00    -0.096 C 
ATOM     25  H   UNL     1      17.385  60.180  -2.040  0.00  0.00    -0.082 HD
ATOM     26  C   UNL     1      16.434  58.374  -2.689  0.00  0.00    -0.064 C 
ATOM     27  C   UNL     1      15.745  58.093  -1.324  0.00  0.00    +0.066 C 
ENDBRANCH  19  20
ENDBRANCH  18  19
ENDBRANCH  14  15
ENDBRANCH  12  13
TORSDOF 6
ENDMDL
MODEL 5
REMARK VINA RESULT:      -9.0      6.445      9.368
REMARK  Name = C:\Users\Docking\Desktop\test protocol\1iep_ligandH.pdb
REMARK  8 active torsions:
REMARK  status: ('A' for Active; 'I' for Inactive)
REMARK    1  A    between atoms: _5  and  _11
REMARK    2  A    between atoms: _19  and  _21
REMARK    3  A    between atoms: _22  and  _66
REMARK    4  A    between atoms: _27  and  _30
REMARK    5  A    between atoms: _32  and  _33
REMARK    6  A    between atoms: _38  and  _43
REMARK    7  A    between atoms: _43  and  _46
REMARK    8  A    between atoms: _53  and  _55
REMARK                            x       y       z     vdW  Elec       q    Type
REMARK                         _______ _______ _______ _____ _____    ______ ____
ROOT
ATOM     10  C   UNL     1       9.489  55.386  -0.615  0.00  0.00    +0.038 A 
ATOM     11  C   UNL     1      10.149  54.188  -0.240  0.00  0.00    +0.047 A 
ATOM     12  C   UNL     1      11.382  53.773  -0.890  0.00  0.00    +0.035 A 
ATOM     32  C   UNL     1      11.916  54.603  -1.918  0.00  0.00    +0.024 A 
ATOM     33  C   UNL     1      11.258  55.823  -2.313  0.00  0.00    +0.007 A 
ATOM     34  C   UNL     1      10.040  56.237  -1.677  0.00  0.00    -0.029 A 
ATOM     35  C   UNL     1       9.373  57.551  -2.146  0.00  0.00    +0.045 C 
ENDROOT
BRANCH  10   9
ATOM      4  C   UNL     1       7.100  57.684   2.856  0.00  0.00    +0.077 A 
ATOM      5  C   UNL     1       8.309  58.209   3.422  0.00  0.00    +0.048 A 
ATOM      6  C   UNL     1       9.525  57.858   2.794  0.00  0.00    +0.116 A 
ATOM      7  N   UNL     1       9.520  57.042   1.683  0.00  0.00    -0.223 NA
ATOM      8  C   UNL     1       8.337  56.552   1.164  0.00  0.00    +0.220 A 
ATOM      9  N   UNL     1       8.308  55.736   0.043  0.00  0.00    -0.283 N 
ATOM     36  H   UNL     1       7.415  55.389  -0.305  0.00  0.00    +0.155 HD
ATOM     37  N   UNL     1       7.162  56.871   1.746  0.00  0.00    -0.214 NA
BRANCH   4   3
ATOM      1  C   UNL     1       3.266  58.406   3.138  0.00  0.00    +0.020 A 
ATOM      2  C   UNL     1       4.561  58.134   2.558  0.00  0.00    +0.013 A 
ATOM      3  C   UNL     1       5.736  57.967   3.404  0.00  0.00    +0.019 A 
ATOM     38  C   UNL     1       5.565  58.082   4.844  0.00  0.00    +0.120 A 
ATOM     39  N   UNL     1       4.306  58.346   5.374  0.00  0.00    -0.263 NA
ATOM     40  C   UNL     1       3.168  58.510   4.570  0.00  0.00    +0.111 A 
ENDBRANCH   4   3
ENDBRANCH  10   9
BRANCH  12  13
ATOM     13  N   UNL     1      12.093  52.563  -0.557  0.00  0.00    -0.281 N 
ATOM     14  C   UNL     1      12.658  52.215   0.659  0.00  0.00    +0.248 C 
ATOM     30  O   UNL     1      12.824  52.989   1.591  0.00  0.00    -0.270 OA
ATOM     31  H   UNL     1      12.192  51.881  -1.309  0.00  0.00    +0.155 HD
BRANCH  14  15
ATOM     15  C   UNL     1      13.118  50.808   0.865  0.00  0.00    +0.037 A 
ATOM     16  C   UNL     1      14.543  50.468   0.867  0.00  0.00    +0.013 A 
ATOM     17  C   UNL     1      14.960  49.100   1.051  0.00  0.00    +0.005 A 
ATOM     18  C   UNL     1      13.948  48.062   1.236  0.00  0.00    -0.033 A 
ATOM     28  C   UNL     1      12.542  48.429   1.235  0.00  0.00    +0.005 A 
ATOM     29  C   UNL     1      12.130  49.768   1.054  0.00  0.00    +0.013 A 
BRANCH  18  19
ATOM     19  C   UNL     1      14.300  46.574   1.418  0.00  0.00    +0.119 C 
BRANCH  19  20
ATOM     20  N   UNL     1      15.728  46.239   1.702  0.00  0.00    -0.302 NA
ATOM     21  C   UNL     1      16.101  44.842   1.198  0.00  0.00    +0.066 C 
ATOM     22  C   UNL     1      17.603  44.516   1.483  0.00  0.00    -0.064 C 
ATOM     23  N   UNL     1      17.874  44.641   2.983  0.00  0.00    +0.379 N 
ATOM     24  C   UNL     1      19.271  44.280   3.262  0.00  0.00    -0.096 C 
ATOM     25  H   UNL     1      17.222  43.903   3.507  0.00  0.00    -0.082 HD
ATOM     26  C   UNL     1      17.503  46.027   3.493  0.00  0.00    -0.064 C 
ATOM     27  C   UNL     1      16.016  46.352   3.179  0.00  0.00    +0.066 C 
ENDBRANCH  19  20
ENDBRANCH  18  19
ENDBRANCH  14  15
ENDBRANCH  12  13
TORSDOF 6
ENDMDL
