MODEL 1
REMARK VINA RESULT:     -10.6      0.000      0.000
REMARK  Name = C:\Users\Docking\Desktop\test protocol\1iep_ligandH.pdb
REMARK  8 active torsions:
REMARK  status: ('A' for Active; 'I' for Inactive)
REMARK    1  A    between atoms: _5  and  _11
REMARK    2  A    between atoms: _19  and  _21
REMARK    3  A    between atoms: _22  and  _66
REMARK    4  A    between atoms: _27  and  _30
REMARK    5  A    between atoms: _32  and  _33
REMARK    6  A    between atoms: _38  and  _43
REMARK    7  A    between atoms: _43  and  _46
REMARK    8  A    between atoms: _53  and  _55
REMARK                            x       y       z     vdW  Elec       q    Type
REMARK                         _______ _______ _______ _____ _____    ______ ____
ROOT
ATOM     10  C   UNL     1      -6.266  10.886  -5.605  0.00  0.00    +0.038 A 
ATOM     11  C   UNL     1      -7.589  11.328  -5.350  0.00  0.00    +0.047 A 
ATOM     12  C   UNL     1      -7.866  12.711  -4.996  0.00  0.00    +0.035 A 
ATOM     32  C   UNL     1      -6.771  13.619  -4.912  0.00  0.00    +0.024 A 
ATOM     33  C   UNL     1      -5.419  13.187  -5.167  0.00  0.00    +0.007 A 
ATOM     34  C   UNL     1      -5.139  11.823  -5.515  0.00  0.00    -0.029 A 
ATOM     35  C   UNL     1      -3.670  11.415  -5.771  0.00  0.00    +0.045 C 
ENDROOT
BRANCH  10   9
ATOM      4  C   UNL     1      -5.689   6.268  -4.433  0.00  0.00    +0.077 A 
ATOM      5  C   UNL     1      -5.783   6.551  -3.030  0.00  0.00    +0.048 A 
ATOM      6  C   UNL     1      -5.973   7.899  -2.651  0.00  0.00    +0.116 A 
ATOM      7  N   UNL     1      -6.061   8.882  -3.613  0.00  0.00    -0.223 NA
ATOM      8  C   UNL     1      -5.964   8.575  -4.957  0.00  0.00    +0.220 A 
ATOM      9  N   UNL     1      -6.057   9.547  -5.942  0.00  0.00    -0.283 N 
ATOM     36  H   UNL     1      -5.973   9.281  -6.923  0.00  0.00    +0.155 HD
ATOM     37  N   UNL     1      -5.781   7.296  -5.345  0.00  0.00    -0.214 NA
BRANCH   4   3
ATOM      1  C   UNL     1      -5.484   2.378  -4.788  0.00  0.00    +0.020 A 
ATOM      2  C   UNL     1      -5.688   3.682  -4.202  0.00  0.00    +0.013 A 
ATOM      3  C   UNL     1      -5.491   4.892  -4.990  0.00  0.00    +0.019 A 
ATOM     38  C   UNL     1      -5.086   4.746  -6.380  0.00  0.00    +0.120 A 
ATOM     39  N   UNL     1      -4.896   3.477  -6.917  0.00  0.00    -0.263 NA
ATOM     40  C   UNL     1      -5.080   2.306  -6.168  0.00  0.00    +0.111 A 
ENDBRANCH   4   3
ENDBRANCH  10   9
BRANCH  12  13
ATOM     13  N   UNL     1      -9.188  13.215  -4.718  0.00  0.00    -0.281 N 
ATOM     14  C   UNL     1      -9.691  13.664  -3.508  0.00  0.00    +0.248 C 
ATOM     30  O   UNL     1      -9.144  13.500  -2.428  0.00  0.00    -0.270 OA
ATOM     31  H   UNL     1      -9.831  13.244  -5.509  0.00  0.00    +0.155 HD
BRANCH  14  15
ATOM     15  C   UNL     1     -10.999  14.388  -3.494  0.00  0.00    +0.037 A 
ATOM     16  C   UNL     1     -12.151  13.861  -2.757  0.00  0.00    +0.013 A 
ATOM     17  C   UNL     1     -13.406  14.570  -2.774  0.00  0.00    +0.005 A 
ATOM     18  C   UNL     1     -13.515  15.815  -3.531  0.00  0.00    -0.033 A 
ATOM     28  C   UNL     1     -12.355  16.317  -4.249  0.00  0.00    +0.005 A 
ATOM     29  C   UNL     1     -11.124  15.625  -4.235  0.00  0.00    +0.013 A 
BRANCH  18  19
ATOM     19  C   UNL     1     -14.821  16.627  -3.622  0.00  0.00    +0.119 C 
BRANCH  19  20
ATOM     20  N   UNL     1     -16.007  15.949  -4.225  0.00  0.00    -0.302 NA
ATOM     21  C   UNL     1     -16.638  16.782  -5.344  0.00  0.00    +0.066 C 
ATOM     22  C   UNL     1     -17.864  16.047  -5.978  0.00  0.00    -0.064 C 
ATOM     23  N   UNL     1     -18.891  15.739  -4.887  0.00  0.00    +0.379 N 
ATOM     24  C   UNL     1     -20.070  15.100  -5.490  0.00  0.00    -0.096 C 
ATOM     25  H   UNL     1     -19.219  16.709  -4.448  0.00  0.00    -0.082 HD
ATOM     26  C   UNL     1     -18.270  14.912  -3.769  0.00  0.00    -0.064 C 
ATOM     27  C   UNL     1     -17.035  15.638  -3.166  0.00  0.00    +0.066 C 
ENDBRANCH  19  20
ENDBRANCH  18  19
ENDBRANCH  14  15
ENDBRANCH  12  13
TORSDOF 6
ENDMDL
MODEL 2
REMARK VINA RESULT:     -10.5      3.490     13.763
REMARK  Name = C:\Users\Docking\Desktop\test protocol\1iep_ligandH.pdb
REMARK  8 active torsions:
REMARK  status: ('A' for Active; 'I' for Inactive)
REMARK    1  A    between atoms: _5  and  _11
REMARK    2  A    between atoms: _19  and  _21
REMARK    3  A    between atoms: _22  and  _66
REMARK    4  A    between atoms: _27  and  _30
REMARK    5  A    between atoms: _32  and  _33
REMARK    6  A    between atoms: _38  and  _43
REMARK    7  A    between atoms: _43  and  _46
REMARK    8  A    between atoms: _53  and  _55
REMARK                            x       y       z     vdW  Elec       q    Type
REMARK                         _______ _______ _______ _____ _____    ______ ____
ROOT
ATOM     10  C   UNL     1     -17.494  16.976  -4.447  0.00  0.00    +0.038 A 
ATOM     11  C   UNL     1     -16.250  16.328  -4.234  0.00  0.00    +0.047 A 
ATOM     12  C   UNL     1     -15.650  16.269  -2.910  0.00  0.00    +0.035 A 
ATOM     32  C   UNL     1     -16.345  16.878  -1.825  0.00  0.00    +0.024 A 
ATOM     33  C   UNL     1     -17.610  17.541  -2.023  0.00  0.00    +0.007 A 
ATOM     34  C   UNL     1     -18.206  17.605  -3.327  0.00  0.00    -0.029 A 
ATOM     35  C   UNL     1     -19.560  18.335  -3.483  0.00  0.00    +0.045 C 
ENDROOT
BRANCH  10   9
ATOM      4  C   UNL     1     -17.704  18.754  -8.900  0.00  0.00    +0.077 A 
ATOM      5  C   UNL     1     -16.689  19.729  -8.622  0.00  0.00    +0.048 A 
ATOM      6  C   UNL     1     -16.144  19.745  -7.318  0.00  0.00    +0.116 A 
ATOM      7  N   UNL     1     -16.588  18.847  -6.372  0.00  0.00    -0.223 NA
ATOM      8  C   UNL     1     -17.569  17.920  -6.672  0.00  0.00    +0.220 A 
ATOM      9  N   UNL     1     -18.025  17.003  -5.738  0.00  0.00    -0.283 N 
ATOM     36  H   UNL     1     -18.756  16.341  -5.997  0.00  0.00    +0.155 HD
ATOM     37  N   UNL     1     -18.107  17.886  -7.909  0.00  0.00    -0.214 NA
BRANCH   4   3
ATOM      1  C   UNL     1     -20.368  18.088 -11.686  0.00  0.00    +0.020 A 
ATOM      2  C   UNL     1     -19.768  18.211 -10.377  0.00  0.00    +0.013 A 
ATOM      3  C   UNL     1     -18.374  18.610 -10.231  0.00  0.00    +0.019 A 
ATOM     38  C   UNL     1     -17.608  18.880 -11.439  0.00  0.00    +0.120 A 
ATOM     39  N   UNL     1     -18.212  18.752 -12.686  0.00  0.00    -0.263 NA
ATOM     40  C   UNL     1     -19.552  18.367 -12.838  0.00  0.00    +0.111 A 
ENDBRANCH   4   3
ENDBRANCH  10   9
BRANCH  12  13
ATOM     13  N   UNL     1     -14.386  15.633  -2.635  0.00  0.00    -0.281 N 
ATOM     14  C   UNL     1     -14.086  14.281  -2.675  0.00  0.00    +0.248 C 
ATOM     30  O   UNL     1     -14.920  13.390  -2.746  0.00  0.00    -0.270 OA
ATOM     31  H   UNL     1     -13.618  16.254  -2.379  0.00  0.00    +0.155 HD
BRANCH  14  15
ATOM     15  C   UNL     1     -12.655  13.856  -2.612  0.00  0.00    +0.037 A 
ATOM     16  C   UNL     1     -12.250  12.656  -1.876  0.00  0.00    +0.013 A 
ATOM     17  C   UNL     1     -10.860  12.278  -1.816  0.00  0.00    +0.005 A 
ATOM     18  C   UNL     1      -9.864  13.102  -2.498  0.00  0.00    -0.033 A 
ATOM     28  C   UNL     1     -10.294  14.285  -3.225  0.00  0.00    +0.005 A 
ATOM     29  C   UNL     1     -11.655  14.659  -3.284  0.00  0.00    +0.013 A 
BRANCH  18  19
ATOM     19  C   UNL     1      -8.357  12.786  -2.470  0.00  0.00    +0.119 C 
BRANCH  19  20
ATOM     20  N   UNL     1      -7.926  11.459  -3.001  0.00  0.00    -0.302 NA
ATOM     21  C   UNL     1      -7.145  10.650  -1.962  0.00  0.00    +0.066 C 
ATOM     22  C   UNL     1      -6.722   9.255  -2.526  0.00  0.00    -0.064 C 
ATOM     23  N   UNL     1      -5.891   9.452  -3.795  0.00  0.00    +0.379 N 
ATOM     24  C   UNL     1      -5.443   8.145  -4.297  0.00  0.00    -0.096 C 
ATOM     25  H   UNL     1      -4.984  10.037  -3.517  0.00  0.00    -0.082 HD
ATOM     26  C   UNL     1      -6.659  10.258  -4.833  0.00  0.00    -0.064 C 
ATOM     27  C   UNL     1      -7.100  11.630  -4.252  0.00  0.00    +0.066 C 
ENDBRANCH  19  20
ENDBRANCH  18  19
ENDBRANCH  14  15
ENDBRANCH  12  13
TORSDOF 6
ENDMDL
MODEL 3
REMARK VINA RESULT:     -10.5      4.730     14.369
REMARK  Name = C:\Users\Docking\Desktop\test protocol\1iep_ligandH.pdb
REMARK  8 active torsions:
REMARK  status: ('A' for Active; 'I' for Inactive)
REMARK    1  A    between atoms: _5  and  _11
REMARK    2  A    between atoms: _19  and  _21
REMARK    3  A    between atoms: _22  and  _66
REMARK    4  A    between atoms: _27  and  _30
REMARK    5  A    between atoms: _32  and  _33
REMARK    6  A    between atoms: _38  and  _43
REMARK    7  A    between atoms: _43  and  _46
REMARK    8  A    between atoms: _53  and  _55
REMARK                            x       y       z     vdW  Elec       q    Type
REMARK                         _______ _______ _______ _____ _____    ______ ____
ROOT
ATOM     10  C   UNL     1     -18.528  16.889  -4.912  0.00  0.00    +0.038 A 
ATOM     11  C   UNL     1     -17.409  16.029  -4.778  0.00  0.00    +0.047 A 
ATOM     12  C   UNL     1     -16.724  15.877  -3.504  0.00  0.00    +0.035 A 
ATOM     32  C   UNL     1     -17.208  16.616  -2.385  0.00  0.00    +0.024 A 
ATOM     33  C   UNL     1     -18.344  17.496  -2.504  0.00  0.00    +0.007 A 
ATOM     34  C   UNL     1     -19.021  17.652  -3.759  0.00  0.00    -0.029 A 
ATOM     35  C   UNL     1     -20.230  18.614  -3.830  0.00  0.00    +0.045 C 
ENDROOT
BRANCH  10   9
ATOM      4  C   UNL     1     -18.934  18.830  -9.283  0.00  0.00    +0.077 A 
ATOM      5  C   UNL     1     -17.836  19.725  -9.053  0.00  0.00    +0.048 A 
ATOM      6  C   UNL     1     -17.199  19.659  -7.794  0.00  0.00    +0.116 A 
ATOM      7  N   UNL     1     -17.634  18.761  -6.844  0.00  0.00    -0.223 NA
ATOM      8  C   UNL     1     -18.697  17.913  -7.098  0.00  0.00    +0.220 A 
ATOM      9  N   UNL     1     -19.147  16.997  -6.160  0.00  0.00    -0.283 N 
ATOM     36  H   UNL     1     -19.939  16.394  -6.383  0.00  0.00    +0.155 HD
ATOM     37  N   UNL     1     -19.324  17.958  -8.292  0.00  0.00    -0.214 NA
BRANCH   4   3
ATOM      1  C   UNL     1     -21.320  17.674 -12.160  0.00  0.00    +0.020 A 
ATOM      2  C   UNL     1     -20.596  17.676 -10.909  0.00  0.00    +0.013 A 
ATOM      3  C   UNL     1     -19.706  18.778 -10.565  0.00  0.00    +0.019 A 
ATOM     38  C   UNL     1     -19.571  19.872 -11.514  0.00  0.00    +0.120 A 
ATOM     39  N   UNL     1     -20.280  19.842 -12.712  0.00  0.00    -0.263 NA
ATOM     40  C   UNL     1     -21.137  18.786 -13.055  0.00  0.00    +0.111 A 
ENDBRANCH   4   3
ENDBRANCH  10   9
BRANCH  12  13
ATOM     13  N   UNL     1     -15.578  15.024  -3.309  0.00  0.00    -0.281 N 
ATOM     14  C   UNL     1     -14.247  15.396  -3.208  0.00  0.00    +0.248 C 
ATOM     30  O   UNL     1     -13.817  16.506  -3.485  0.00  0.00    -0.270 OA
ATOM     31  H   UNL     1     -15.771  14.025  -3.237  0.00  0.00    +0.155 HD
BRANCH  14  15
ATOM     15  C   UNL     1     -13.248  14.385  -2.747  0.00  0.00    +0.037 A 
ATOM     16  C   UNL     1     -11.822  14.531  -3.052  0.00  0.00    +0.013 A 
ATOM     17  C   UNL     1     -10.882  13.532  -2.609  0.00  0.00    +0.005 A 
ATOM     18  C   UNL     1     -11.365  12.378  -1.856  0.00  0.00    -0.033 A 
ATOM     28  C   UNL     1     -12.784  12.260  -1.563  0.00  0.00    +0.005 A 
ATOM     29  C   UNL     1     -13.709  13.237  -1.996  0.00  0.00    +0.013 A 
BRANCH  18  19
ATOM     19  C   UNL     1     -10.436  11.253  -1.362  0.00  0.00    +0.119 C 
BRANCH  19  20
ATOM     20  N   UNL     1      -9.009  11.609  -1.102  0.00  0.00    -0.302 NA
ATOM     21  C   UNL     1      -8.067  11.007  -2.148  0.00  0.00    +0.066 C 
ATOM     22  C   UNL     1      -6.581  11.408  -1.873  0.00  0.00    -0.064 C 
ATOM     23  N   UNL     1      -6.186  10.958  -0.466  0.00  0.00    +0.379 N 
ATOM     24  C   UNL     1      -4.772  11.282  -0.226  0.00  0.00    -0.096 C 
ATOM     25  H   UNL     1      -6.291   9.849  -0.423  0.00  0.00    -0.082 HD
ATOM     26  C   UNL     1      -7.120  11.550   0.580  0.00  0.00    -0.064 C 
ATOM     27  C   UNL     1      -8.597  11.170   0.281  0.00  0.00    +0.066 C 
ENDBRANCH  19  20
ENDBRANCH  18  19
ENDBRANCH  14  15
ENDBRANCH  12  13
TORSDOF 6
ENDMDL
MODEL 4
REMARK VINA RESULT:     -10.1      3.867     14.398
REMARK  Name = C:\Users\Docking\Desktop\test protocol\1iep_ligandH.pdb
REMARK  8 active torsions:
REMARK  status: ('A' for Active; 'I' for Inactive)
REMARK    1  A    between atoms: _5  and  _11
REMARK    2  A    between atoms: _19  and  _21
REMARK    3  A    between atoms: _22  and  _66
REMARK    4  A    between atoms: _27  and  _30
REMARK    5  A    between atoms: _32  and  _33
REMARK    6  A    between atoms: _38  and  _43
REMARK    7  A    between atoms: _43  and  _46
REMARK    8  A    between atoms: _53  and  _55
REMARK                            x       y       z     vdW  Elec       q    Type
REMARK                         _______ _______ _______ _____ _____    ______ ____
ROOT
ATOM     10  C   UNL     1     -18.621  16.466  -5.673  0.00  0.00    +0.038 A 
ATOM     11  C   UNL     1     -17.216  16.374  -5.504  0.00  0.00    +0.047 A 
ATOM     12  C   UNL     1     -16.629  15.390  -4.607  0.00  0.00    +0.035 A 
ATOM     32  C   UNL     1     -17.503  14.514  -3.900  0.00  0.00    +0.024 A 
ATOM     33  C   UNL     1     -18.933  14.594  -4.059  0.00  0.00    +0.007 A 
ATOM     34  C   UNL     1     -19.518  15.564  -4.940  0.00  0.00    -0.029 A 
ATOM     35  C   UNL     1     -21.059  15.610  -5.067  0.00  0.00    +0.045 C 
ENDROOT
BRANCH  10   9
ATOM      4  C   UNL     1     -18.532  18.899  -9.809  0.00  0.00    +0.077 A 
ATOM      5  C   UNL     1     -17.354  18.212 -10.256  0.00  0.00    +0.048 A 
ATOM      6  C   UNL     1     -16.799  17.245  -9.389  0.00  0.00    +0.116 A 
ATOM      7  N   UNL     1     -17.385  16.991  -8.168  0.00  0.00    -0.223 NA
ATOM      8  C   UNL     1     -18.519  17.673  -7.766  0.00  0.00    +0.220 A 
ATOM      9  N   UNL     1     -19.131  17.429  -6.546  0.00  0.00    -0.283 N 
ATOM     36  H   UNL     1     -19.962  17.958  -6.284  0.00  0.00    +0.155 HD
ATOM     37  N   UNL     1     -19.068  18.602  -8.576  0.00  0.00    -0.214 NA
BRANCH   4   3
ATOM      1  C   UNL     1     -20.096  22.290 -10.971  0.00  0.00    +0.020 A 
ATOM      2  C   UNL     1     -19.407  21.318 -10.155  0.00  0.00    +0.013 A 
ATOM      3  C   UNL     1     -19.238  19.945 -10.614  0.00  0.00    +0.019 A 
ATOM     38  C   UNL     1     -19.782  19.586 -11.915  0.00  0.00    +0.120 A 
ATOM     39  N   UNL     1     -20.442  20.543 -12.679  0.00  0.00    -0.263 NA
ATOM     40  C   UNL     1     -20.612  21.867 -12.246  0.00  0.00    +0.111 A 
ENDBRANCH   4   3
ENDBRANCH  10   9
BRANCH  12  13
ATOM     13  N   UNL     1     -15.210  15.255  -4.389  0.00  0.00    -0.281 N 
ATOM     14  C   UNL     1     -14.531  15.239  -3.182  0.00  0.00    +0.248 C 
ATOM     30  O   UNL     1     -15.023  15.555  -2.108  0.00  0.00    -0.270 OA
ATOM     31  H   UNL     1     -14.636  15.159  -5.227  0.00  0.00    +0.155 HD
BRANCH  14  15
ATOM     15  C   UNL     1     -13.095  14.827  -3.166  0.00  0.00    +0.037 A 
ATOM     16  C   UNL     1     -12.666  13.590  -2.507  0.00  0.00    +0.013 A 
ATOM     17  C   UNL     1     -11.272  13.225  -2.492  0.00  0.00    +0.005 A 
ATOM     18  C   UNL     1     -10.296  14.098  -3.139  0.00  0.00    -0.033 A 
ATOM     28  C   UNL     1     -10.749  15.316  -3.789  0.00  0.00    +0.005 A 
ATOM     29  C   UNL     1     -12.114  15.678  -3.806  0.00  0.00    +0.013 A 
BRANCH  18  19
ATOM     19  C   UNL     1      -8.785  13.797  -3.153  0.00  0.00    +0.119 C 
BRANCH  19  20
ATOM     20  N   UNL     1      -8.360  12.454  -3.649  0.00  0.00    -0.302 NA
ATOM     21  C   UNL     1      -7.251  11.847  -2.784  0.00  0.00    +0.066 C 
ATOM     22  C   UNL     1      -6.834  10.433  -3.303  0.00  0.00    -0.064 C 
ATOM     23  N   UNL     1      -6.386  10.540  -4.761  0.00  0.00    +0.379 N 
ATOM     24  C   UNL     1      -5.938   9.222  -5.235  0.00  0.00    -0.096 C 
ATOM     25  H   UNL     1      -5.509  11.228  -4.796  0.00  0.00    -0.082 HD
ATOM     26  C   UNL     1      -7.481  11.145  -5.628  0.00  0.00    -0.064 C 
ATOM     27  C   UNL     1      -7.908  12.537  -5.086  0.00  0.00    +0.066 C 
ENDBRANCH  19  20
ENDBRANCH  18  19
ENDBRANCH  14  15
ENDBRANCH  12  13
TORSDOF 6
ENDMDL
MODEL 5
REMARK VINA RESULT:      -9.9      1.476      2.025
REMARK  Name = C:\Users\Docking\Desktop\test protocol\1iep_ligandH.pdb
REMARK  8 active torsions:
REMARK  status: ('A' for Active; 'I' for Inactive)
REMARK    1  A    between atoms: _5  and  _11
REMARK    2  A    between atoms: _19  and  _21
REMARK    3  A    between atoms: _22  and  _66
REMARK    4  A    between atoms: _27  and  _30
REMARK    5  A    between atoms: _32  and  _33
REMARK    6  A    between atoms: _38  and  _43
REMARK    7  A    between atoms: _43  and  _46
REMARK    8  A    between atoms: _53  and  _55
REMARK                            x       y       z     vdW  Elec       q    Type
REMARK                         _______ _______ _______ _____ _____    ______ ____
ROOT
ATOM     10  C   UNL     1      -6.158  11.188  -4.216  0.00  0.00    +0.038 A 
ATOM     11  C   UNL     1      -7.499  11.642  -4.298  0.00  0.00    +0.047 A 
ATOM     12  C   UNL     1      -7.831  12.895  -4.957  0.00  0.00    +0.035 A 
ATOM     32  C   UNL     1      -6.771  13.662  -5.524  0.00  0.00    +0.024 A 
ATOM     33  C   UNL     1      -5.402  13.216  -5.448  0.00  0.00    +0.007 A 
ATOM     34  C   UNL     1      -5.068  11.982  -4.798  0.00  0.00    -0.029 A 
ATOM     35  C   UNL     1      -3.583  11.557  -4.741  0.00  0.00    +0.045 C 
ENDROOT
BRANCH  10   9
ATOM      4  C   UNL     1      -5.641   6.416  -4.222  0.00  0.00    +0.077 A 
ATOM      5  C   UNL     1      -5.944   6.326  -5.622  0.00  0.00    +0.048 A 
ATOM      6  C   UNL     1      -6.234   7.531  -6.302  0.00  0.00    +0.116 A 
ATOM      7  N   UNL     1      -6.219   8.730  -5.623  0.00  0.00    -0.223 NA
ATOM      8  C   UNL     1      -5.925   8.781  -4.273  0.00  0.00    +0.220 A 
ATOM      9  N   UNL     1      -5.897   9.977  -3.572  0.00  0.00    -0.283 N 
ATOM     36  H   UNL     1      -5.683   9.972  -2.575  0.00  0.00    +0.155 HD
ATOM     37  N   UNL     1      -5.646   7.645  -3.601  0.00  0.00    -0.214 NA
BRANCH   4   3
ATOM      1  C   UNL     1      -4.843   4.145  -1.140  0.00  0.00    +0.020 A 
ATOM      2  C   UNL     1      -5.162   5.318  -1.920  0.00  0.00    +0.013 A 
ATOM      3  C   UNL     1      -5.311   5.233  -3.367  0.00  0.00    +0.019 A 
ATOM     38  C   UNL     1      -5.130   3.935  -3.999  0.00  0.00    +0.120 A 
ATOM     39  N   UNL     1      -4.822   2.822  -3.223  0.00  0.00    -0.263 NA
ATOM     40  C   UNL     1      -4.674   2.893  -1.829  0.00  0.00    +0.111 A 
ENDBRANCH   4   3
ENDBRANCH  10   9
BRANCH  12  13
ATOM     13  N   UNL     1      -9.173  13.410  -5.064  0.00  0.00    -0.281 N 
ATOM     14  C   UNL     1      -9.910  14.077  -4.098  0.00  0.00    +0.248 C 
ATOM     30  O   UNL     1      -9.601  14.143  -2.918  0.00  0.00    -0.270 OA
ATOM     31  H   UNL     1      -9.637  13.267  -5.962  0.00  0.00    +0.155 HD
BRANCH  14  15
ATOM     15  C   UNL     1     -11.180  14.755  -4.499  0.00  0.00    +0.037 A 
ATOM     16  C   UNL     1     -11.937  14.318  -5.675  0.00  0.00    +0.013 A 
ATOM     17  C   UNL     1     -13.150  15.001  -6.049  0.00  0.00    +0.005 A 
ATOM     18  C   UNL     1     -13.614  16.128  -5.244  0.00  0.00    -0.033 A 
ATOM     28  C   UNL     1     -12.847  16.537  -4.080  0.00  0.00    +0.005 A 
ATOM     29  C   UNL     1     -11.657  15.871  -3.711  0.00  0.00    +0.013 A 
BRANCH  18  19
ATOM     19  C   UNL     1     -14.886  16.929  -5.581  0.00  0.00    +0.119 C 
BRANCH  19  20
ATOM     20  N   UNL     1     -16.186  16.390  -5.080  0.00  0.00    -0.302 NA
ATOM     21  C   UNL     1     -17.084  15.902  -6.220  0.00  0.00    +0.066 C 
ATOM     22  C   UNL     1     -18.430  15.322  -5.675  0.00  0.00    -0.064 C 
ATOM     23  N   UNL     1     -19.143  16.389  -4.843  0.00  0.00    +0.379 N 
ATOM     24  C   UNL     1     -20.436  15.866  -4.378  0.00  0.00    -0.096 C 
ATOM     25  H   UNL     1     -19.350  17.256  -5.512  0.00  0.00    -0.082 HD
ATOM     26  C   UNL     1     -18.256  16.882  -3.709  0.00  0.00    -0.064 C 
ATOM     27  C   UNL     1     -16.909  17.430  -4.259  0.00  0.00    +0.066 C 
ENDBRANCH  19  20
ENDBRANCH  18  19
ENDBRANCH  14  15
ENDBRANCH  12  13
TORSDOF 6
ENDMDL
