MODEL 1
REMARK VINA RESULT:      -7.5      0.000      0.000
REMARK  Name = C:\Users\Docking\Desktop\test protocol\1iep_ligandH.pdb
REMARK  8 active torsions:
REMARK  status: ('A' for Active; 'I' for Inactive)
REMARK    1  A    between atoms: _5  and  _11
REMARK    2  A    between atoms: _19  and  _21
REMARK    3  A    between atoms: _22  and  _66
REMARK    4  A    between atoms: _27  and  _30
REMARK    5  A    between atoms: _32  and  _33
REMARK    6  A    between atoms: _38  and  _43
REMARK    7  A    between atoms: _43  and  _46
REMARK    8  A    between atoms: _53  and  _55
REMARK                            x       y       z     vdW  Elec       q    Type
REMARK                         _______ _______ _______ _____ _____    ______ ____
ROOT
ATOM     10  C   UNL     1      11.121   2.682 -14.237  0.00  0.00    +0.038 A 
ATOM     11  C   UNL     1       9.903   2.653 -13.510  0.00  0.00    +0.047 A 
ATOM     12  C   UNL     1       9.188   1.406 -13.289  0.00  0.00    +0.035 A 
ATOM     32  C   UNL     1       9.744   0.205 -13.820  0.00  0.00    +0.024 A 
ATOM     33  C   UNL     1      10.980   0.216 -14.562  0.00  0.00    +0.007 A 
ATOM     34  C   UNL     1      11.688   1.444 -14.785  0.00  0.00    -0.029 A 
ATOM     35  C   UNL     1      13.006   1.397 -15.594  0.00  0.00    +0.045 C 
ENDROOT
BRANCH  10   9
ATOM      4  C   UNL     1      13.661   6.413 -12.604  0.00  0.00    +0.077 A 
ATOM      5  C   UNL     1      13.683   5.889 -11.269  0.00  0.00    +0.048 A 
ATOM      6  C   UNL     1      13.022   4.661 -11.042  0.00  0.00    +0.116 A 
ATOM      7  N   UNL     1      12.391   4.013 -12.082  0.00  0.00    -0.223 NA
ATOM      8  C   UNL     1      12.387   4.546 -13.358  0.00  0.00    +0.220 A 
ATOM      9  N   UNL     1      11.766   3.907 -14.419  0.00  0.00    -0.283 N 
ATOM     36  H   UNL     1      11.779   4.337 -15.344  0.00  0.00    +0.155 HD
ATOM     37  N   UNL     1      13.010   5.718 -13.599  0.00  0.00    -0.214 NA
BRANCH   4   3
ATOM      1  C   UNL     1      15.772   9.705 -12.533  0.00  0.00    +0.020 A 
ATOM      2  C   UNL     1      15.162   8.469 -12.099  0.00  0.00    +0.013 A 
ATOM      3  C   UNL     1      14.317   7.698 -13.002  0.00  0.00    +0.019 A 
ATOM     38  C   UNL     1      14.108   8.209 -14.349  0.00  0.00    +0.120 A 
ATOM     39  N   UNL     1      14.707   9.403 -14.738  0.00  0.00    -0.263 NA
ATOM     40  C   UNL     1      15.521  10.154 -13.878  0.00  0.00    +0.111 A 
ENDBRANCH   4   3
ENDBRANCH  10   9
BRANCH  12  13
ATOM     13  N   UNL     1       7.944   1.316 -12.566  0.00  0.00    -0.281 N 
ATOM     14  C   UNL     1       7.654   1.812 -11.305  0.00  0.00    +0.248 C 
ATOM     30  O   UNL     1       8.490   2.225 -10.516  0.00  0.00    -0.270 OA
ATOM     31  H   UNL     1       7.185   0.828 -13.041  0.00  0.00    +0.155 HD
BRANCH  14  15
ATOM     15  C   UNL     1       6.230   1.840 -10.851  0.00  0.00    +0.037 A 
ATOM     16  C   UNL     1       5.444   3.077 -10.889  0.00  0.00    +0.013 A 
ATOM     17  C   UNL     1       4.078   3.080 -10.429  0.00  0.00    +0.005 A 
ATOM     18  C   UNL     1       3.489   1.841  -9.927  0.00  0.00    -0.033 A 
ATOM     28  C   UNL     1       4.289   0.628  -9.905  0.00  0.00    +0.005 A 
ATOM     29  C   UNL     1       5.629   0.621 -10.354  0.00  0.00    +0.013 A 
BRANCH  18  19
ATOM     19  C   UNL     1       2.046   1.757  -9.396  0.00  0.00    +0.119 C 
BRANCH  19  20
ATOM     20  N   UNL     1       1.853   1.199  -8.024  0.00  0.00    -0.302 NA
ATOM     21  C   UNL     1       0.386   1.242  -7.587  0.00  0.00    +0.066 C 
ATOM     22  C   UNL     1       0.200   0.634  -6.158  0.00  0.00    -0.064 C 
ATOM     23  N   UNL     1       1.083   1.392  -5.165  0.00  0.00    +0.379 N 
ATOM     24  C   UNL     1       0.867   0.861  -3.812  0.00  0.00    -0.096 C 
ATOM     25  H   UNL     1       0.756   2.458  -5.167  0.00  0.00    -0.082 HD
ATOM     26  C   UNL     1       2.543   1.357  -5.594  0.00  0.00    -0.064 C 
ATOM     27  C   UNL     1       2.713   1.936  -7.026  0.00  0.00    +0.066 C 
ENDBRANCH  19  20
ENDBRANCH  18  19
ENDBRANCH  14  15
ENDBRANCH  12  13
TORSDOF 6
ENDMDL
MODEL 2
REMARK VINA RESULT:      -7.3      1.635      2.444
REMARK  Name = C:\Users\Docking\Desktop\test protocol\1iep_ligandH.pdb
REMARK  8 active torsions:
REMARK  status: ('A' for Active; 'I' for Inactive)
REMARK    1  A    between atoms: _5  and  _11
REMARK    2  A    between atoms: _19  and  _21
REMARK    3  A    between atoms: _22  and  _66
REMARK    4  A    between atoms: _27  and  _30
REMARK    5  A    between atoms: _32  and  _33
REMARK    6  A    between atoms: _38  and  _43
REMARK    7  A    between atoms: _43  and  _46
REMARK    8  A    between atoms: _53  and  _55
REMARK                            x       y       z     vdW  Elec       q    Type
REMARK                         _______ _______ _______ _____ _____    ______ ____
ROOT
ATOM     10  C   UNL     1       9.376   1.494 -13.430  0.00  0.00    +0.038 A 
ATOM     11  C   UNL     1       8.210   1.555 -12.625  0.00  0.00    +0.047 A 
ATOM     12  C   UNL     1       7.407   0.368 -12.374  0.00  0.00    +0.035 A 
ATOM     32  C   UNL     1       7.822  -0.864 -12.957  0.00  0.00    +0.024 A 
ATOM     33  C   UNL     1       9.004  -0.944 -13.778  0.00  0.00    +0.007 A 
ATOM     34  C   UNL     1       9.799   0.224 -14.032  0.00  0.00    -0.029 A 
ATOM     35  C   UNL     1      11.053   0.081 -14.926  0.00  0.00    +0.045 C 
ENDROOT
BRANCH  10   9
ATOM      4  C   UNL     1      12.786   4.632 -12.177  0.00  0.00    +0.077 A 
ATOM      5  C   UNL     1      13.114   3.891 -10.993  0.00  0.00    +0.048 A 
ATOM      6  C   UNL     1      12.378   2.713 -10.739  0.00  0.00    +0.116 A 
ATOM      7  N   UNL     1      11.388   2.313 -11.611  0.00  0.00    -0.223 NA
ATOM      8  C   UNL     1      11.095   3.051 -12.743  0.00  0.00    +0.220 A 
ATOM      9  N   UNL     1      10.110   2.664 -13.638  0.00  0.00    -0.283 N 
ATOM     36  H   UNL     1       9.919   3.240 -14.458  0.00  0.00    +0.155 HD
ATOM     37  N   UNL     1      11.784   4.182 -13.007  0.00  0.00    -0.214 NA
BRANCH   4   3
ATOM      1  C   UNL     1      14.775   7.998 -12.074  0.00  0.00    +0.020 A 
ATOM      2  C   UNL     1      14.120   6.789 -11.629  0.00  0.00    +0.013 A 
ATOM      3  C   UNL     1      13.477   5.896 -12.583  0.00  0.00    +0.019 A 
ATOM     38  C   UNL     1      13.515   6.257 -13.993  0.00  0.00    +0.120 A 
ATOM     39  N   UNL     1      14.151   7.428 -14.392  0.00  0.00    -0.263 NA
ATOM     40  C   UNL     1      14.772   8.296 -13.482  0.00  0.00    +0.111 A 
ENDBRANCH   4   3
ENDBRANCH  10   9
BRANCH  12  13
ATOM     13  N   UNL     1       6.209   0.371 -11.572  0.00  0.00    -0.281 N 
ATOM     14  C   UNL     1       6.048   0.851 -10.283  0.00  0.00    +0.248 C 
ATOM     30  O   UNL     1       6.968   1.160  -9.541  0.00  0.00    -0.270 OA
ATOM     31  H   UNL     1       5.378  -0.031 -12.008  0.00  0.00    +0.155 HD
BRANCH  14  15
ATOM     15  C   UNL     1       4.665   0.995  -9.733  0.00  0.00    +0.037 A 
ATOM     16  C   UNL     1       4.320   0.488  -8.403  0.00  0.00    +0.013 A 
ATOM     17  C   UNL     1       2.974   0.625  -7.904  0.00  0.00    +0.005 A 
ATOM     18  C   UNL     1       1.964   1.274  -8.736  0.00  0.00    -0.033 A 
ATOM     28  C   UNL     1       2.336   1.773 -10.049  0.00  0.00    +0.005 A 
ATOM     29  C   UNL     1       3.653   1.640 -10.542  0.00  0.00    +0.013 A 
BRANCH  18  19
ATOM     19  C   UNL     1       0.499   1.445  -8.293  0.00  0.00    +0.119 C 
BRANCH  19  20
ATOM     20  N   UNL     1       0.258   2.012  -6.932  0.00  0.00    -0.302 NA
ATOM     21  C   UNL     1      -0.014   0.919  -5.894  0.00  0.00    +0.066 C 
ATOM     22  C   UNL     1      -0.241   1.528  -4.473  0.00  0.00    -0.064 C 
ATOM     23  N   UNL     1      -1.402   2.524  -4.527  0.00  0.00    +0.379 N 
ATOM     24  C   UNL     1      -1.656   3.055  -3.180  0.00  0.00    -0.096 C 
ATOM     25  H   UNL     1      -2.311   1.965  -4.848  0.00  0.00    -0.082 HD
ATOM     26  C   UNL     1      -1.141   3.612  -5.559  0.00  0.00    -0.064 C 
ATOM     27  C   UNL     1      -0.887   2.994  -6.962  0.00  0.00    +0.066 C 
ENDBRANCH  19  20
ENDBRANCH  18  19
ENDBRANCH  14  15
ENDBRANCH  12  13
TORSDOF 6
ENDMDL
MODEL 3
REMARK VINA RESULT:      -7.2     11.227     13.316
REMARK  Name = C:\Users\Docking\Desktop\test protocol\1iep_ligandH.pdb
REMARK  8 active torsions:
REMARK  status: ('A' for Active; 'I' for Inactive)
REMARK    1  A    between atoms: _5  and  _11
REMARK    2  A    between atoms: _19  and  _21
REMARK    3  A    between atoms: _22  and  _66
REMARK    4  A    between atoms: _27  and  _30
REMARK    5  A    between atoms: _32  and  _33
REMARK    6  A    between atoms: _38  and  _43
REMARK    7  A    between atoms: _43  and  _46
REMARK    8  A    between atoms: _53  and  _55
REMARK                            x       y       z     vdW  Elec       q    Type
REMARK                         _______ _______ _______ _____ _____    ______ ____
ROOT
ATOM     10  C   UNL     1       3.273  15.373 -13.424  0.00  0.00    +0.038 A 
ATOM     11  C   UNL     1       3.552  13.989 -13.293  0.00  0.00    +0.047 A 
ATOM     12  C   UNL     1       4.473  13.318 -14.198  0.00  0.00    +0.035 A 
ATOM     32  C   UNL     1       5.095  14.089 -15.223  0.00  0.00    +0.024 A 
ATOM     33  C   UNL     1       4.822  15.497 -15.371  0.00  0.00    +0.007 A 
ATOM     34  C   UNL     1       3.912  16.164 -14.483  0.00  0.00    -0.029 A 
ATOM     35  C   UNL     1       3.652  17.674 -14.693  0.00  0.00    +0.045 C 
ENDROOT
BRANCH  10   9
ATOM      4  C   UNL     1       2.292  17.693  -9.338  0.00  0.00    +0.077 A 
ATOM      5  C   UNL     1       3.670  17.700  -8.942  0.00  0.00    +0.048 A 
ATOM      6  C   UNL     1       4.600  17.091  -9.815  0.00  0.00    +0.116 A 
ATOM      7  N   UNL     1       4.171  16.519 -10.993  0.00  0.00    -0.223 NA
ATOM      8  C   UNL     1       2.833  16.528 -11.344  0.00  0.00    +0.220 A 
ATOM      9  N   UNL     1       2.380  15.966 -12.528  0.00  0.00    -0.283 N 
ATOM     36  H   UNL     1       1.385  15.987 -12.748  0.00  0.00    +0.155 HD
ATOM     37  N   UNL     1       1.926  17.103 -10.527  0.00  0.00    -0.214 NA
BRANCH   4   3
ATOM      1  C   UNL     1       0.167  19.025  -6.336  0.00  0.00    +0.020 A 
ATOM      2  C   UNL     1       1.257  18.430  -7.075  0.00  0.00    +0.013 A 
ATOM      3  C   UNL     1       1.191  18.300  -8.525  0.00  0.00    +0.019 A 
ATOM     38  C   UNL     1      -0.001  18.787  -9.203  0.00  0.00    +0.120 A 
ATOM     39  N   UNL     1      -1.035  19.354  -8.465  0.00  0.00    -0.263 NA
ATOM     40  C   UNL     1      -0.984  19.482  -7.069  0.00  0.00    +0.111 A 
ENDBRANCH   4   3
ENDBRANCH  10   9
BRANCH  12  13
ATOM     13  N   UNL     1       4.789  11.914 -14.119  0.00  0.00    -0.281 N 
ATOM     14  C   UNL     1       5.048  11.162 -12.984  0.00  0.00    +0.248 C 
ATOM     30  O   UNL     1       5.259  11.632 -11.877  0.00  0.00    -0.270 OA
ATOM     31  H   UNL     1       4.825  11.413 -15.007  0.00  0.00    +0.155 HD
BRANCH  14  15
ATOM     15  C   UNL     1       5.095   9.672 -13.101  0.00  0.00    +0.037 A 
ATOM     16  C   UNL     1       6.334   8.929 -12.859  0.00  0.00    +0.013 A 
ATOM     17  C   UNL     1       6.355   7.494 -12.995  0.00  0.00    +0.005 A 
ATOM     18  C   UNL     1       5.131   6.793 -13.373  0.00  0.00    -0.033 A 
ATOM     28  C   UNL     1       3.914   7.554 -13.601  0.00  0.00    +0.005 A 
ATOM     29  C   UNL     1       3.890   8.960 -13.470  0.00  0.00    +0.013 A 
BRANCH  18  19
ATOM     19  C   UNL     1       5.067   5.265 -13.561  0.00  0.00    +0.119 C 
BRANCH  19  20
ATOM     20  N   UNL     1       5.516   4.416 -12.418  0.00  0.00    -0.302 NA
ATOM     21  C   UNL     1       6.597   3.414 -12.836  0.00  0.00    +0.066 C 
ATOM     22  C   UNL     1       7.072   2.550 -11.624  0.00  0.00    -0.064 C 
ATOM     23  N   UNL     1       5.869   1.826 -11.014  0.00  0.00    +0.379 N 
ATOM     24  C   UNL     1       6.321   0.967  -9.910  0.00  0.00    -0.096 C 
ATOM     25  H   UNL     1       5.437   1.166 -11.802  0.00  0.00    -0.082 HD
ATOM     26  C   UNL     1       4.789   2.815 -10.598  0.00  0.00    -0.064 C 
ATOM     27  C   UNL     1       4.345   3.689 -11.804  0.00  0.00    +0.066 C 
ENDBRANCH  19  20
ENDBRANCH  18  19
ENDBRANCH  14  15
ENDBRANCH  12  13
TORSDOF 6
ENDMDL
MODEL 4
REMARK VINA RESULT:      -7.1      5.834     13.885
REMARK  Name = C:\Users\Docking\Desktop\test protocol\1iep_ligandH.pdb
REMARK  8 active torsions:
REMARK  status: ('A' for Active; 'I' for Inactive)
REMARK    1  A    between atoms: _5  and  _11
REMARK    2  A    between atoms: _19  and  _21
REMARK    3  A    between atoms: _22  and  _66
REMARK    4  A    between atoms: _27  and  _30
REMARK    5  A    between atoms: _32  and  _33
REMARK    6  A    between atoms: _38  and  _43
REMARK    7  A    between atoms: _43  and  _46
REMARK    8  A    between atoms: _53  and  _55
REMARK                            x       y       z     vdW  Elec       q    Type
REMARK                         _______ _______ _______ _____ _____    ______ ____
ROOT
ATOM     10  C   UNL     1       2.317   0.508  -5.233  0.00  0.00    +0.038 A 
ATOM     11  C   UNL     1       2.808   1.333  -6.277  0.00  0.00    +0.047 A 
ATOM     12  C   UNL     1       3.614   0.783  -7.356  0.00  0.00    +0.035 A 
ATOM     32  C   UNL     1       3.897  -0.614  -7.342  0.00  0.00    +0.024 A 
ATOM     33  C   UNL     1       3.407  -1.468  -6.289  0.00  0.00    +0.007 A 
ATOM     34  C   UNL     1       2.614  -0.930  -5.220  0.00  0.00    -0.029 A 
ATOM     35  C   UNL     1       2.121  -1.891  -4.113  0.00  0.00    +0.045 C 
ENDROOT
BRANCH  10   9
ATOM      4  C   UNL     1      -1.865   2.040  -3.445  0.00  0.00    +0.077 A 
ATOM      5  C   UNL     1      -2.576   1.675  -4.637  0.00  0.00    +0.048 A 
ATOM      6  C   UNL     1      -1.827   1.103  -5.690  0.00  0.00    +0.116 A 
ATOM      7  N   UNL     1      -0.469   0.914  -5.550  0.00  0.00    -0.223 NA
ATOM      8  C   UNL     1       0.186   1.278  -4.387  0.00  0.00    +0.220 A 
ATOM      9  N   UNL     1       1.549   1.089  -4.222  0.00  0.00    -0.283 N 
ATOM     36  H   UNL     1       1.996   1.378  -3.352  0.00  0.00    +0.155 HD
ATOM     37  N   UNL     1      -0.507   1.827  -3.368  0.00  0.00    -0.214 NA
BRANCH   4   3
ATOM      1  C   UNL     1      -3.342   4.629  -0.913  0.00  0.00    +0.020 A 
ATOM      2  C   UNL     1      -2.706   4.089  -2.092  0.00  0.00    +0.013 A 
ATOM      3  C   UNL     1      -2.518   2.652  -2.245  0.00  0.00    +0.019 A 
ATOM     38  C   UNL     1      -2.990   1.781  -1.179  0.00  0.00    +0.120 A 
ATOM     39  N   UNL     1      -3.598   2.330  -0.054  0.00  0.00    -0.263 NA
ATOM     40  C   UNL     1      -3.783   3.712   0.105  0.00  0.00    +0.111 A 
ENDBRANCH   4   3
ENDBRANCH  10   9
BRANCH  12  13
ATOM     13  N   UNL     1       4.146   1.573  -8.438  0.00  0.00    -0.281 N 
ATOM     14  C   UNL     1       3.528   1.911  -9.630  0.00  0.00    +0.248 C 
ATOM     30  O   UNL     1       2.495   1.403 -10.042  0.00  0.00    -0.270 OA
ATOM     31  H   UNL     1       5.095   1.926  -8.309  0.00  0.00    +0.155 HD
BRANCH  14  15
ATOM     15  C   UNL     1       4.155   2.953 -10.499  0.00  0.00    +0.037 A 
ATOM     16  C   UNL     1       5.300   2.639 -11.357  0.00  0.00    +0.013 A 
ATOM     17  C   UNL     1       5.897   3.667 -12.172  0.00  0.00    +0.005 A 
ATOM     18  C   UNL     1       5.348   5.020 -12.134  0.00  0.00    -0.033 A 
ATOM     28  C   UNL     1       4.208   5.303 -11.277  0.00  0.00    +0.005 A 
ATOM     29  C   UNL     1       3.621   4.298 -10.476  0.00  0.00    +0.013 A 
BRANCH  18  19
ATOM     19  C   UNL     1       5.934   6.184 -12.954  0.00  0.00    +0.119 C 
BRANCH  19  20
ATOM     20  N   UNL     1       5.224   7.496 -12.883  0.00  0.00    -0.302 NA
ATOM     21  C   UNL     1       4.256   7.689 -14.054  0.00  0.00    +0.066 C 
ATOM     22  C   UNL     1       3.505   9.057 -13.952  0.00  0.00    -0.064 C 
ATOM     23  N   UNL     1       4.527  10.194 -13.901  0.00  0.00    +0.379 N 
ATOM     24  C   UNL     1       3.824  11.485 -13.864  0.00  0.00    -0.096 C 
ATOM     25  H   UNL     1       5.120  10.159 -14.845  0.00  0.00    -0.082 HD
ATOM     26  C   UNL     1       5.496  10.008 -12.742  0.00  0.00    -0.064 C 
ATOM     27  C   UNL     1       6.215   8.634 -12.836  0.00  0.00    +0.066 C 
ENDBRANCH  19  20
ENDBRANCH  18  19
ENDBRANCH  14  15
ENDBRANCH  12  13
TORSDOF 6
ENDMDL
MODEL 5
REMARK VINA RESULT:      -7.0     10.312     11.890
REMARK  Name = C:\Users\Docking\Desktop\test protocol\1iep_ligandH.pdb
REMARK  8 active torsions:
REMARK  status: ('A' for Active; 'I' for Inactive)
REMARK    1  A    between atoms: _5  and  _11
REMARK    2  A    between atoms: _19  and  _21
REMARK    3  A    between atoms: _22  and  _66
REMARK    4  A    between atoms: _27  and  _30
REMARK    5  A    between atoms: _32  and  _33
REMARK    6  A    between atoms: _38  and  _43
REMARK    7  A    between atoms: _43  and  _46
REMARK    8  A    between atoms: _53  and  _55
REMARK                            x       y       z     vdW  Elec       q    Type
REMARK                         _______ _______ _______ _____ _____    ______ ____
ROOT
ATOM     10  C   UNL     1       4.082  14.254 -13.860  0.00  0.00    +0.038 A 
ATOM     11  C   UNL     1       4.153  12.953 -13.299  0.00  0.00    +0.047 A 
ATOM     12  C   UNL     1       3.670  11.792 -14.028  0.00  0.00    +0.035 A 
ATOM     32  C   UNL     1       3.123  11.991 -15.330  0.00  0.00    +0.024 A 
ATOM     33  C   UNL     1       3.042  13.306 -15.915  0.00  0.00    +0.007 A 
ATOM     34  C   UNL     1       3.515  14.456 -15.199  0.00  0.00    -0.029 A 
ATOM     35  C   UNL     1       3.398  15.843 -15.873  0.00  0.00    +0.045 C 
ENDROOT
BRANCH  10   9
ATOM      4  C   UNL     1       3.572  17.620 -10.476  0.00  0.00    +0.077 A 
ATOM      5  C   UNL     1       2.228  17.209 -10.187  0.00  0.00    +0.048 A 
ATOM      6  C   UNL     1       1.703  16.132 -10.936  0.00  0.00    +0.116 A 
ATOM      7  N   UNL     1       2.474  15.519 -11.900  0.00  0.00    -0.223 NA
ATOM      8  C   UNL     1       3.765  15.941 -12.155  0.00  0.00    +0.220 A 
ATOM      9  N   UNL     1       4.561  15.334 -13.115  0.00  0.00    -0.283 N 
ATOM     36  H   UNL     1       5.506  15.680 -13.278  0.00  0.00    +0.155 HD
ATOM     37  N   UNL     1       4.289  16.968 -11.455  0.00  0.00    -0.214 NA
BRANCH   4   3
ATOM      1  C   UNL     1       4.697  20.179  -7.740  0.00  0.00    +0.020 A 
ATOM      2  C   UNL     1       3.997  19.088  -8.378  0.00  0.00    +0.013 A 
ATOM      3  C   UNL     1       4.268  18.740  -9.767  0.00  0.00    +0.019 A 
ATOM     38  C   UNL     1       5.261  19.521 -10.488  0.00  0.00    +0.120 A 
ATOM     39  N   UNL     1       5.919  20.567  -9.849  0.00  0.00    -0.263 NA
ATOM     40  C   UNL     1       5.666  20.912  -8.513  0.00  0.00    +0.111 A 
ENDBRANCH   4   3
ENDBRANCH  10   9
BRANCH  12  13
ATOM     13  N   UNL     1       3.708  10.448 -13.506  0.00  0.00    -0.281 N 
ATOM     14  C   UNL     1       4.603   9.438 -13.819  0.00  0.00    +0.248 C 
ATOM     30  O   UNL     1       5.382   9.472 -14.760  0.00  0.00    -0.270 OA
ATOM     31  H   UNL     1       2.988  10.213 -12.823  0.00  0.00    +0.155 HD
BRANCH  14  15
ATOM     15  C   UNL     1       4.626   8.206 -12.973  0.00  0.00    +0.037 A 
ATOM     16  C   UNL     1       5.874   7.480 -12.722  0.00  0.00    +0.013 A 
ATOM     17  C   UNL     1       5.866   6.285 -11.916  0.00  0.00    +0.005 A 
ATOM     18  C   UNL     1       4.604   5.810 -11.353  0.00  0.00    -0.033 A 
ATOM     28  C   UNL     1       3.382   6.552 -11.614  0.00  0.00    +0.005 A 
ATOM     29  C   UNL     1       3.386   7.723 -12.404  0.00  0.00    +0.013 A 
BRANCH  18  19
ATOM     19  C   UNL     1       4.498   4.532 -10.499  0.00  0.00    +0.119 C 
BRANCH  19  20
ATOM     20  N   UNL     1       4.886   3.243 -11.145  0.00  0.00    -0.302 NA
ATOM     21  C   UNL     1       3.994   2.083 -10.695  0.00  0.00    +0.066 C 
ATOM     22  C   UNL     1       4.399   0.747 -11.398  0.00  0.00    -0.064 C 
ATOM     23  N   UNL     1       5.870   0.445 -11.104  0.00  0.00    +0.379 N 
ATOM     24  C   UNL     1       6.238  -0.840 -11.715  0.00  0.00    -0.096 C 
ATOM     25  H   UNL     1       5.978   0.338 -10.000  0.00  0.00    -0.082 HD
ATOM     26  C   UNL     1       6.764   1.595 -11.546  0.00  0.00    -0.064 C 
ATOM     27  C   UNL     1       6.334   2.923 -10.864  0.00  0.00    +0.066 C 
ENDBRANCH  19  20
ENDBRANCH  18  19
ENDBRANCH  14  15
ENDBRANCH  12  13
TORSDOF 6
ENDMDL
