MODEL 1
REMARK VINA RESULT:     -11.0      0.000      0.000
REMARK  Name = C:\Users\Docking\Desktop\test protocol\1iep_ligandH.pdb
REMARK  8 active torsions:
REMARK  status: ('A' for Active; 'I' for Inactive)
REMARK    1  A    between atoms: _5  and  _11
REMARK    2  A    between atoms: _19  and  _21
REMARK    3  A    between atoms: _22  and  _66
REMARK    4  A    between atoms: _27  and  _30
REMARK    5  A    between atoms: _32  and  _33
REMARK    6  A    between atoms: _38  and  _43
REMARK    7  A    between atoms: _43  and  _46
REMARK    8  A    between atoms: _53  and  _55
REMARK                            x       y       z     vdW  Elec       q    Type
REMARK                         _______ _______ _______ _____ _____    ______ ____
ROOT
ATOM     10  C   UNL     1     -49.279  10.884 -12.694  0.00  0.00    +0.038 A 
ATOM     11  C   UNL     1     -48.766  12.124 -13.154  0.00  0.00    +0.047 A 
ATOM     12  C   UNL     1     -49.074  12.617 -14.487  0.00  0.00    +0.035 A 
ATOM     32  C   UNL     1     -49.909  11.823 -15.326  0.00  0.00    +0.024 A 
ATOM     33  C   UNL     1     -50.438  10.560 -14.875  0.00  0.00    +0.007 A 
ATOM     34  C   UNL     1     -50.136  10.067 -13.562  0.00  0.00    -0.029 A 
ATOM     35  C   UNL     1     -50.725   8.702 -13.134  0.00  0.00    +0.045 C 
ENDROOT
BRANCH  10   9
ATOM      4  C   UNL     1     -49.576  11.240  -7.917  0.00  0.00    +0.077 A 
ATOM      5  C   UNL     1     -50.434  12.387  -7.997  0.00  0.00    +0.048 A 
ATOM      6  C   UNL     1     -50.769  12.858  -9.286  0.00  0.00    +0.116 A 
ATOM      7  N   UNL     1     -50.278  12.222 -10.405  0.00  0.00    -0.223 NA
ATOM      8  C   UNL     1     -49.451  11.119 -10.293  0.00  0.00    +0.220 A 
ATOM      9  N   UNL     1     -48.952  10.458 -11.405  0.00  0.00    -0.283 N 
ATOM     36  H   UNL     1     -48.339   9.653 -11.280  0.00  0.00    +0.155 HD
ATOM     37  N   UNL     1     -49.115  10.650  -9.073  0.00  0.00    -0.214 NA
BRANCH   4   3
ATOM      1  C   UNL     1     -48.110   8.752  -5.279  0.00  0.00    +0.020 A 
ATOM      2  C   UNL     1     -48.518   9.303  -6.550  0.00  0.00    +0.013 A 
ATOM      3  C   UNL     1     -49.135  10.622  -6.627  0.00  0.00    +0.019 A 
ATOM     38  C   UNL     1     -49.324  11.363  -5.389  0.00  0.00    +0.120 A 
ATOM     39  N   UNL     1     -48.922  10.806  -4.179  0.00  0.00    -0.263 NA
ATOM     40  C   UNL     1     -48.329   9.537  -4.093  0.00  0.00    +0.111 A 
ENDBRANCH   4   3
ENDBRANCH  10   9
BRANCH  12  13
ATOM     13  N   UNL     1     -48.576  13.865 -15.012  0.00  0.00    -0.281 N 
ATOM     14  C   UNL     1     -47.285  14.163 -15.418  0.00  0.00    +0.248 C 
ATOM     30  O   UNL     1     -46.310  13.463 -15.191  0.00  0.00    -0.270 OA
ATOM     31  H   UNL     1     -49.257  14.620 -15.093  0.00  0.00    +0.155 HD
BRANCH  14  15
ATOM     15  C   UNL     1     -47.041  15.430 -16.173  0.00  0.00    +0.037 A 
ATOM     16  C   UNL     1     -45.776  15.664 -16.874  0.00  0.00    +0.013 A 
ATOM     17  C   UNL     1     -45.559  16.902 -17.580  0.00  0.00    +0.005 A 
ATOM     18  C   UNL     1     -46.612  17.914 -17.591  0.00  0.00    -0.033 A 
ATOM     28  C   UNL     1     -47.860  17.653 -16.892  0.00  0.00    +0.005 A 
ATOM     29  C   UNL     1     -48.075  16.442 -16.197  0.00  0.00    +0.013 A 
BRANCH  18  19
ATOM     19  C   UNL     1     -46.460  19.272 -18.301  0.00  0.00    +0.119 C 
BRANCH  19  20
ATOM     20  N   UNL     1     -45.467  19.355 -19.414  0.00  0.00    -0.302 NA
ATOM     21  C   UNL     1     -44.953  20.782 -19.621  0.00  0.00    +0.066 C 
ATOM     22  C   UNL     1     -43.898  20.846 -20.773  0.00  0.00    -0.064 C 
ATOM     23  N   UNL     1     -44.520  20.302 -22.060  0.00  0.00    +0.379 N 
ATOM     24  C   UNL     1     -43.549  20.414 -23.159  0.00  0.00    -0.096 C 
ATOM     25  H   UNL     1     -45.393  20.947 -22.313  0.00  0.00    -0.082 HD
ATOM     26  C   UNL     1     -45.036  18.884 -21.862  0.00  0.00    -0.064 C 
ATOM     27  C   UNL     1     -46.061  18.826 -20.696  0.00  0.00    +0.066 C 
ENDBRANCH  19  20
ENDBRANCH  18  19
ENDBRANCH  14  15
ENDBRANCH  12  13
TORSDOF 6
ENDMDL
MODEL 2
REMARK VINA RESULT:      -9.6     15.889     20.020
REMARK  Name = C:\Users\Docking\Desktop\test protocol\1iep_ligandH.pdb
REMARK  8 active torsions:
REMARK  status: ('A' for Active; 'I' for Inactive)
REMARK    1  A    between atoms: _5  and  _11
REMARK    2  A    between atoms: _19  and  _21
REMARK    3  A    between atoms: _22  and  _66
REMARK    4  A    between atoms: _27  and  _30
REMARK    5  A    between atoms: _32  and  _33
REMARK    6  A    between atoms: _38  and  _43
REMARK    7  A    between atoms: _43  and  _46
REMARK    8  A    between atoms: _53  and  _55
REMARK                            x       y       z     vdW  Elec       q    Type
REMARK                         _______ _______ _______ _____ _____    ______ ____
ROOT
ATOM     10  C   UNL     1     -32.620   9.942 -17.590  0.00  0.00    +0.038 A 
ATOM     11  C   UNL     1     -32.168  11.043 -16.820  0.00  0.00    +0.047 A 
ATOM     12  C   UNL     1     -32.678  11.284 -15.479  0.00  0.00    +0.035 A 
ATOM     32  C   UNL     1     -33.647  10.381 -14.952  0.00  0.00    +0.024 A 
ATOM     33  C   UNL     1     -34.119   9.257 -15.722  0.00  0.00    +0.007 A 
ATOM     34  C   UNL     1     -33.621   9.016 -17.046  0.00  0.00    -0.029 A 
ATOM     35  C   UNL     1     -34.168   7.799 -17.828  0.00  0.00    +0.045 C 
ENDROOT
BRANCH  10   9
ATOM      4  C   UNL     1     -32.093  11.258 -22.175  0.00  0.00    +0.077 A 
ATOM      5  C   UNL     1     -32.955  12.393 -22.010  0.00  0.00    +0.048 A 
ATOM      6  C   UNL     1     -33.520  12.599 -20.731  0.00  0.00    +0.116 A 
ATOM      7  N   UNL     1     -33.236  11.728 -19.702  0.00  0.00    -0.223 NA
ATOM      8  C   UNL     1     -32.402  10.642 -19.895  0.00  0.00    +0.220 A 
ATOM      9  N   UNL     1     -32.097   9.758 -18.872  0.00  0.00    -0.283 N 
ATOM     36  H   UNL     1     -31.483   8.965 -19.057  0.00  0.00    +0.155 HD
ATOM     37  N   UNL     1     -31.851  10.423 -21.107  0.00  0.00    -0.214 NA
BRANCH   4   3
ATOM      1  C   UNL     1     -31.205   9.554 -25.582  0.00  0.00    +0.020 A 
ATOM      2  C   UNL     1     -31.893   9.850 -24.347  0.00  0.00    +0.013 A 
ATOM      3  C   UNL     1     -31.418  10.910 -23.466  0.00  0.00    +0.019 A 
ATOM     38  C   UNL     1     -30.236  11.657 -23.867  0.00  0.00    +0.120 A 
ATOM     39  N   UNL     1     -29.593  11.348 -25.062  0.00  0.00    -0.263 NA
ATOM     40  C   UNL     1     -30.040  10.330 -25.917  0.00  0.00    +0.111 A 
ENDBRANCH   4   3
ENDBRANCH  10   9
BRANCH  12  13
ATOM     13  N   UNL     1     -32.261  12.390 -14.653  0.00  0.00    -0.281 N 
ATOM     14  C   UNL     1     -32.944  13.569 -14.401  0.00  0.00    +0.248 C 
ATOM     30  O   UNL     1     -33.926  13.945 -15.022  0.00  0.00    -0.270 OA
ATOM     31  H   UNL     1     -31.353  12.292 -14.198  0.00  0.00    +0.155 HD
BRANCH  14  15
ATOM     15  C   UNL     1     -32.455  14.467 -13.311  0.00  0.00    +0.037 A 
ATOM     16  C   UNL     1     -32.543  15.925 -13.431  0.00  0.00    +0.013 A 
ATOM     17  C   UNL     1     -32.049  16.769 -12.372  0.00  0.00    +0.005 A 
ATOM     18  C   UNL     1     -31.462  16.156 -11.182  0.00  0.00    -0.033 A 
ATOM     28  C   UNL     1     -31.392  14.707 -11.088  0.00  0.00    +0.005 A 
ATOM     29  C   UNL     1     -31.874  13.877 -12.124  0.00  0.00    +0.013 A 
BRANCH  18  19
ATOM     19  C   UNL     1     -30.891  16.980 -10.013  0.00  0.00    +0.119 C 
BRANCH  19  20
ATOM     20  N   UNL     1     -29.922  16.296  -9.105  0.00  0.00    -0.302 NA
ATOM     21  C   UNL     1     -30.610  15.709  -7.869  0.00  0.00    +0.066 C 
ATOM     22  C   UNL     1     -29.586  14.978  -6.941  0.00  0.00    -0.064 C 
ATOM     23  N   UNL     1     -28.483  15.956  -6.533  0.00  0.00    +0.379 N 
ATOM     24  C   UNL     1     -27.550  15.288  -5.614  0.00  0.00    -0.096 C 
ATOM     25  H   UNL     1     -28.964  16.795  -5.978  0.00  0.00    -0.082 HD
ATOM     26  C   UNL     1     -27.796  16.547  -7.756  0.00  0.00    -0.064 C 
ATOM     27  C   UNL     1     -28.827  17.245  -8.686  0.00  0.00    +0.066 C 
ENDBRANCH  19  20
ENDBRANCH  18  19
ENDBRANCH  14  15
ENDBRANCH  12  13
TORSDOF 6
ENDMDL
MODEL 3
REMARK VINA RESULT:      -9.3     16.532     20.306
REMARK  Name = C:\Users\Docking\Desktop\test protocol\1iep_ligandH.pdb
REMARK  8 active torsions:
REMARK  status: ('A' for Active; 'I' for Inactive)
REMARK    1  A    between atoms: _5  and  _11
REMARK    2  A    between atoms: _19  and  _21
REMARK    3  A    between atoms: _22  and  _66
REMARK    4  A    between atoms: _27  and  _30
REMARK    5  A    between atoms: _32  and  _33
REMARK    6  A    between atoms: _38  and  _43
REMARK    7  A    between atoms: _43  and  _46
REMARK    8  A    between atoms: _53  and  _55
REMARK                            x       y       z     vdW  Elec       q    Type
REMARK                         _______ _______ _______ _____ _____    ______ ____
ROOT
ATOM     10  C   UNL     1     -32.816  12.874 -18.029  0.00  0.00    +0.038 A 
ATOM     11  C   UNL     1     -32.344  13.144 -16.719  0.00  0.00    +0.047 A 
ATOM     12  C   UNL     1     -32.339  14.497 -16.185  0.00  0.00    +0.035 A 
ATOM     32  C   UNL     1     -32.824  15.552 -17.012  0.00  0.00    +0.024 A 
ATOM     33  C   UNL     1     -33.306  15.295 -18.347  0.00  0.00    +0.007 A 
ATOM     34  C   UNL     1     -33.312  13.963 -18.880  0.00  0.00    -0.029 A 
ATOM     35  C   UNL     1     -33.834  13.748 -20.319  0.00  0.00    +0.045 C 
ENDROOT
BRANCH  10   9
ATOM      4  C   UNL     1     -31.104   9.409 -20.876  0.00  0.00    +0.077 A 
ATOM      5  C   UNL     1     -30.186  10.307 -21.515  0.00  0.00    +0.048 A 
ATOM      6  C   UNL     1     -30.191  11.653 -21.088  0.00  0.00    +0.116 A 
ATOM      7  N   UNL     1     -31.053  12.061 -20.093  0.00  0.00    -0.223 NA
ATOM      8  C   UNL     1     -31.928  11.170 -19.498  0.00  0.00    +0.220 A 
ATOM      9  N   UNL     1     -32.798  11.556 -18.491  0.00  0.00    -0.283 N 
ATOM     36  H   UNL     1     -33.433  10.870 -18.083  0.00  0.00    +0.155 HD
ATOM     37  N   UNL     1     -31.944   9.879 -19.890  0.00  0.00    -0.214 NA
BRANCH   4   3
ATOM      1  C   UNL     1     -31.052   6.015 -22.819  0.00  0.00    +0.020 A 
ATOM      2  C   UNL     1     -30.929   7.428 -22.543  0.00  0.00    +0.013 A 
ATOM      3  C   UNL     1     -31.216   7.955 -21.215  0.00  0.00    +0.019 A 
ATOM     38  C   UNL     1     -31.627   7.019 -20.180  0.00  0.00    +0.120 A 
ATOM     39  N   UNL     1     -31.739   5.664 -20.475  0.00  0.00    -0.263 NA
ATOM     40  C   UNL     1     -31.467   5.145 -21.750  0.00  0.00    +0.111 A 
ENDBRANCH   4   3
ENDBRANCH  10   9
BRANCH  12  13
ATOM     13  N   UNL     1     -31.865  14.833 -14.865  0.00  0.00    -0.281 N 
ATOM     14  C   UNL     1     -32.475  15.642 -13.922  0.00  0.00    +0.248 C 
ATOM     30  O   UNL     1     -33.425  16.377 -14.151  0.00  0.00    -0.270 OA
ATOM     31  H   UNL     1     -30.970  14.424 -14.594  0.00  0.00    +0.155 HD
BRANCH  14  15
ATOM     15  C   UNL     1     -31.945  15.648 -12.524  0.00  0.00    +0.037 A 
ATOM     16  C   UNL     1     -31.689  16.904 -11.814  0.00  0.00    +0.013 A 
ATOM     17  C   UNL     1     -31.161  16.882 -10.473  0.00  0.00    +0.005 A 
ATOM     18  C   UNL     1     -30.887  15.598  -9.832  0.00  0.00    -0.033 A 
ATOM     28  C   UNL     1     -31.155  14.367 -10.558  0.00  0.00    +0.005 A 
ATOM     29  C   UNL     1     -31.672  14.385 -11.873  0.00  0.00    +0.013 A 
BRANCH  18  19
ATOM     19  C   UNL     1     -30.304  15.479  -8.412  0.00  0.00    +0.119 C 
BRANCH  19  20
ATOM     20  N   UNL     1     -29.584  14.216  -8.071  0.00  0.00    -0.302 NA
ATOM     21  C   UNL     1     -29.845  13.777  -6.628  0.00  0.00    +0.066 C 
ATOM     22  C   UNL     1     -29.102  12.442  -6.296  0.00  0.00    -0.064 C 
ATOM     23  N   UNL     1     -27.604  12.619  -6.545  0.00  0.00    +0.379 N 
ATOM     24  C   UNL     1     -26.896  11.384  -6.179  0.00  0.00    -0.096 C 
ATOM     25  H   UNL     1     -27.242  13.429  -5.870  0.00  0.00    -0.082 HD
ATOM     26  C   UNL     1     -27.335  13.058  -7.978  0.00  0.00    -0.064 C 
ATOM     27  C   UNL     1     -28.101  14.370  -8.307  0.00  0.00    +0.066 C 
ENDBRANCH  19  20
ENDBRANCH  18  19
ENDBRANCH  14  15
ENDBRANCH  12  13
TORSDOF 6
ENDMDL
MODEL 4
REMARK VINA RESULT:      -9.1     23.065     24.371
REMARK  Name = C:\Users\Docking\Desktop\test protocol\1iep_ligandH.pdb
REMARK  8 active torsions:
REMARK  status: ('A' for Active; 'I' for Inactive)
REMARK    1  A    between atoms: _5  and  _11
REMARK    2  A    between atoms: _19  and  _21
REMARK    3  A    between atoms: _22  and  _66
REMARK    4  A    between atoms: _27  and  _30
REMARK    5  A    between atoms: _32  and  _33
REMARK    6  A    between atoms: _38  and  _43
REMARK    7  A    between atoms: _43  and  _46
REMARK    8  A    between atoms: _53  and  _55
REMARK                            x       y       z     vdW  Elec       q    Type
REMARK                         _______ _______ _______ _____ _____    ______ ____
ROOT
ATOM     10  C   UNL     1     -27.862  13.991  -6.884  0.00  0.00    +0.038 A 
ATOM     11  C   UNL     1     -26.654  13.969  -7.627  0.00  0.00    +0.047 A 
ATOM     12  C   UNL     1     -26.205  12.758  -8.296  0.00  0.00    +0.035 A 
ATOM     32  C   UNL     1     -27.011  11.588  -8.188  0.00  0.00    +0.024 A 
ATOM     33  C   UNL     1     -28.241  11.592  -7.435  0.00  0.00    +0.007 A 
ATOM     34  C   UNL     1     -28.688  12.783  -6.772  0.00  0.00    -0.029 A 
ATOM     35  C   UNL     1     -30.011  12.729  -5.973  0.00  0.00    +0.045 C 
ENDROOT
BRANCH  10   9
ATOM      4  C   UNL     1     -30.184  18.192  -6.851  0.00  0.00    +0.077 A 
ATOM      5  C   UNL     1     -30.649  18.012  -8.196  0.00  0.00    +0.048 A 
ATOM      6  C   UNL     1     -30.263  16.829  -8.864  0.00  0.00    +0.116 A 
ATOM      7  N   UNL     1     -29.470  15.900  -8.224  0.00  0.00    -0.223 NA
ATOM      8  C   UNL     1     -29.037  16.105  -6.927  0.00  0.00    +0.220 A 
ATOM      9  N   UNL     1     -28.246  15.181  -6.262  0.00  0.00    -0.283 N 
ATOM     36  H   UNL     1     -27.941  15.373  -5.308  0.00  0.00    +0.155 HD
ATOM     37  N   UNL     1     -29.391  17.228  -6.268  0.00  0.00    -0.214 NA
BRANCH   4   3
ATOM      1  C   UNL     1     -30.942  20.517  -3.799  0.00  0.00    +0.020 A 
ATOM      2  C   UNL     1     -30.626  19.332  -4.561  0.00  0.00    +0.013 A 
ATOM      3  C   UNL     1     -30.510  19.389  -6.013  0.00  0.00    +0.019 A 
ATOM     38  C   UNL     1     -30.721  20.671  -6.667  0.00  0.00    +0.120 A 
ATOM     39  N   UNL     1     -31.027  21.796  -5.907  0.00  0.00    -0.263 NA
ATOM     40  C   UNL     1     -31.142  21.753  -4.510  0.00  0.00    +0.111 A 
ENDBRANCH   4   3
ENDBRANCH  10   9
BRANCH  12  13
ATOM     13  N   UNL     1     -24.984  12.673  -9.059  0.00  0.00    -0.281 N 
ATOM     14  C   UNL     1     -24.654  13.357 -10.217  0.00  0.00    +0.248 C 
ATOM     30  O   UNL     1     -25.449  13.990 -10.896  0.00  0.00    -0.270 OA
ATOM     31  H   UNL     1     -24.277  12.031  -8.701  0.00  0.00    +0.155 HD
BRANCH  14  15
ATOM     15  C   UNL     1     -23.240  13.320 -10.700  0.00  0.00    +0.037 A 
ATOM     16  C   UNL     1     -22.186  12.671  -9.916  0.00  0.00    +0.013 A 
ATOM     17  C   UNL     1     -20.827  12.665 -10.397  0.00  0.00    +0.005 A 
ATOM     18  C   UNL     1     -20.515  13.309 -11.670  0.00  0.00    -0.033 A 
ATOM     28  C   UNL     1     -21.581  13.941 -12.430  0.00  0.00    +0.005 A 
ATOM     29  C   UNL     1     -22.914  13.950 -11.962  0.00  0.00    +0.013 A 
BRANCH  18  19
ATOM     19  C   UNL     1     -19.089  13.369 -12.250  0.00  0.00    +0.119 C 
BRANCH  19  20
ATOM     20  N   UNL     1     -18.390  14.688 -12.209  0.00  0.00    -0.302 NA
ATOM     21  C   UNL     1     -16.887  14.549 -12.466  0.00  0.00    +0.066 C 
ATOM     22  C   UNL     1     -16.174  15.940 -12.442  0.00  0.00    -0.064 C 
ATOM     23  N   UNL     1     -16.433  16.619 -11.096  0.00  0.00    +0.379 N 
ATOM     24  C   UNL     1     -15.716  17.902 -11.049  0.00  0.00    -0.096 C 
ATOM     25  H   UNL     1     -16.008  15.965 -10.300  0.00  0.00    -0.082 HD
ATOM     26  C   UNL     1     -17.925  16.759 -10.831  0.00  0.00    -0.064 C 
ATOM     27  C   UNL     1     -18.628  15.374 -10.887  0.00  0.00    +0.066 C 
ENDBRANCH  19  20
ENDBRANCH  18  19
ENDBRANCH  14  15
ENDBRANCH  12  13
TORSDOF 6
ENDMDL
MODEL 5
REMARK VINA RESULT:      -9.1     16.174     21.128
REMARK  Name = C:\Users\Docking\Desktop\test protocol\1iep_ligandH.pdb
REMARK  8 active torsions:
REMARK  status: ('A' for Active; 'I' for Inactive)
REMARK    1  A    between atoms: _5  and  _11
REMARK    2  A    between atoms: _19  and  _21
REMARK    3  A    between atoms: _22  and  _66
REMARK    4  A    between atoms: _27  and  _30
REMARK    5  A    between atoms: _32  and  _33
REMARK    6  A    between atoms: _38  and  _43
REMARK    7  A    between atoms: _43  and  _46
REMARK    8  A    between atoms: _53  and  _55
REMARK                            x       y       z     vdW  Elec       q    Type
REMARK                         _______ _______ _______ _____ _____    ______ ____
ROOT
ATOM     10  C   UNL     1     -32.301  12.625 -17.182  0.00  0.00    +0.038 A 
ATOM     11  C   UNL     1     -32.348  11.427 -16.424  0.00  0.00    +0.047 A 
ATOM     12  C   UNL     1     -32.817  11.426 -15.047  0.00  0.00    +0.035 A 
ATOM     32  C   UNL     1     -33.233  12.663 -14.474  0.00  0.00    +0.024 A 
ATOM     33  C   UNL     1     -33.191  13.890 -15.230  0.00  0.00    +0.007 A 
ATOM     34  C   UNL     1     -32.727  13.898 -16.588  0.00  0.00    -0.029 A 
ATOM     35  C   UNL     1     -32.697  15.244 -17.348  0.00  0.00    +0.045 C 
ENDROOT
BRANCH  10   9
ATOM      4  C   UNL     1     -31.637  10.316 -21.337  0.00  0.00    +0.077 A 
ATOM      5  C   UNL     1     -32.230   9.111 -20.830  0.00  0.00    +0.048 A 
ATOM      6  C   UNL     1     -32.686   9.126 -19.493  0.00  0.00    +0.116 A 
ATOM      7  N   UNL     1     -32.555  10.265 -18.729  0.00  0.00    -0.223 NA
ATOM      8  C   UNL     1     -31.977  11.409 -19.248  0.00  0.00    +0.220 A 
ATOM      9  N   UNL     1     -31.843  12.569 -18.500  0.00  0.00    -0.283 N 
ATOM     36  H   UNL     1     -31.404  13.389 -18.917  0.00  0.00    +0.155 HD
ATOM     37  N   UNL     1     -31.532  11.420 -20.522  0.00  0.00    -0.214 NA
BRANCH   4   3
ATOM      1  C   UNL     1     -30.963   9.753 -25.149  0.00  0.00    +0.020 A 
ATOM      2  C   UNL     1     -31.501   9.572 -23.820  0.00  0.00    +0.013 A 
ATOM      3  C   UNL     1     -31.110  10.458 -22.731  0.00  0.00    +0.019 A 
ATOM     38  C   UNL     1     -30.166  11.527 -23.022  0.00  0.00    +0.120 A 
ATOM     39  N   UNL     1     -29.664  11.676 -24.311  0.00  0.00    -0.263 NA
ATOM     40  C   UNL     1     -30.031  10.828 -25.367  0.00  0.00    +0.111 A 
ENDBRANCH   4   3
ENDBRANCH  10   9
BRANCH  12  13
ATOM     13  N   UNL     1     -32.879  10.243 -14.226  0.00  0.00    -0.281 N 
ATOM     14  C   UNL     1     -33.972   9.423 -13.995  0.00  0.00    +0.248 C 
ATOM     30  O   UNL     1     -35.123   9.706 -14.291  0.00  0.00    -0.270 OA
ATOM     31  H   UNL     1     -32.013   9.977 -13.758  0.00  0.00    +0.155 HD
BRANCH  14  15
ATOM     15  C   UNL     1     -33.757   8.105 -13.324  0.00  0.00    +0.037 A 
ATOM     16  C   UNL     1     -34.626   7.656 -12.233  0.00  0.00    +0.013 A 
ATOM     17  C   UNL     1     -34.386   6.388 -11.592  0.00  0.00    +0.005 A 
ATOM     18  C   UNL     1     -33.271   5.557 -12.043  0.00  0.00    -0.033 A 
ATOM     28  C   UNL     1     -32.428   6.024 -13.131  0.00  0.00    +0.005 A 
ATOM     29  C   UNL     1     -32.660   7.267 -13.761  0.00  0.00    +0.013 A 
BRANCH  18  19
ATOM     19  C   UNL     1     -32.928   4.199 -11.403  0.00  0.00    +0.119 C 
BRANCH  19  20
ATOM     20  N   UNL     1     -31.495   3.941 -11.073  0.00  0.00    -0.302 NA
ATOM     21  C   UNL     1     -30.909   2.800 -11.910  0.00  0.00    +0.066 C 
ATOM     22  C   UNL     1     -29.403   2.559 -11.569  0.00  0.00    -0.064 C 
ATOM     23  N   UNL     1     -29.263   2.262 -10.075  0.00  0.00    +0.379 N 
ATOM     24  C   UNL     1     -27.855   1.977  -9.762  0.00  0.00    -0.096 C 
ATOM     25  H   UNL     1     -29.851   1.340  -9.857  0.00  0.00    -0.082 HD
ATOM     26  C   UNL     1     -29.845   3.390  -9.235  0.00  0.00    -0.064 C 
ATOM     27  C   UNL     1     -31.334   3.641  -9.603  0.00  0.00    +0.066 C 
ENDBRANCH  19  20
ENDBRANCH  18  19
ENDBRANCH  14  15
ENDBRANCH  12  13
TORSDOF 6
ENDMDL
