MODEL 1
REMARK VINA RESULT:      -8.8      0.000      0.000
REMARK  Name = C:\Users\Docking\Desktop\test protocol\1iep_ligandH.pdb
REMARK  8 active torsions:
REMARK  status: ('A' for Active; 'I' for Inactive)
REMARK    1  A    between atoms: _5  and  _11
REMARK    2  A    between atoms: _19  and  _21
REMARK    3  A    between atoms: _22  and  _66
REMARK    4  A    between atoms: _27  and  _30
REMARK    5  A    between atoms: _32  and  _33
REMARK    6  A    between atoms: _38  and  _43
REMARK    7  A    between atoms: _43  and  _46
REMARK    8  A    between atoms: _53  and  _55
REMARK                            x       y       z     vdW  Elec       q    Type
REMARK                         _______ _______ _______ _____ _____    ______ ____
ROOT
ATOM     10  C   UNL     1      40.604  29.460  21.249  0.00  0.00    +0.038 A 
ATOM     11  C   UNL     1      39.204  29.577  21.054  0.00  0.00    +0.047 A 
ATOM     12  C   UNL     1      38.634  30.719  20.358  0.00  0.00    +0.035 A 
ATOM     32  C   UNL     1      39.519  31.724  19.870  0.00  0.00    +0.024 A 
ATOM     33  C   UNL     1      40.945  31.622  20.060  0.00  0.00    +0.007 A 
ATOM     34  C   UNL     1      41.513  30.499  20.748  0.00  0.00    -0.029 A 
ATOM     35  C   UNL     1      43.048  30.445  20.929  0.00  0.00    +0.045 C 
ENDROOT
BRANCH  10   9
ATOM      4  C   UNL     1      42.091  24.898  21.361  0.00  0.00    +0.077 A 
ATOM      5  C   UNL     1      41.838  24.719  19.960  0.00  0.00    +0.048 A 
ATOM      6  C   UNL     1      41.319  25.824  19.248  0.00  0.00    +0.116 A 
ATOM      7  N   UNL     1      41.075  27.014  19.899  0.00  0.00    -0.223 NA
ATOM      8  C   UNL     1      41.328  27.152  21.251  0.00  0.00    +0.220 A 
ATOM      9  N   UNL     1      41.098  28.342  21.924  0.00  0.00    -0.283 N 
ATOM     36  H   UNL     1      41.291  28.401  22.924  0.00  0.00    +0.155 HD
ATOM     37  N   UNL     1      41.823  26.112  21.954  0.00  0.00    -0.214 NA
BRANCH   4   3
ATOM      1  C   UNL     1      44.458  22.830  23.690  0.00  0.00    +0.020 A 
ATOM      2  C   UNL     1      43.973  23.893  22.839  0.00  0.00    +0.013 A 
ATOM      3  C   UNL     1      42.643  23.826  22.248  0.00  0.00    +0.019 A 
ATOM     38  C   UNL     1      41.822  22.660  22.540  0.00  0.00    +0.120 A 
ATOM     39  N   UNL     1      42.316  21.652  23.361  0.00  0.00    -0.263 NA
ATOM     40  C   UNL     1      43.595  21.705  23.934  0.00  0.00    +0.111 A 
ENDBRANCH   4   3
ENDBRANCH  10   9
BRANCH  12  13
ATOM     13  N   UNL     1      37.220  30.895  20.137  0.00  0.00    -0.281 N 
ATOM     14  C   UNL     1      36.514  30.728  18.957  0.00  0.00    +0.248 C 
ATOM     30  O   UNL     1      37.029  30.608  17.855  0.00  0.00    -0.270 OA
ATOM     31  H   UNL     1      36.672  31.177  20.951  0.00  0.00    +0.155 HD
BRANCH  14  15
ATOM     15  C   UNL     1      35.021  30.706  19.005  0.00  0.00    +0.037 A 
ATOM     16  C   UNL     1      34.293  31.117  20.209  0.00  0.00    +0.013 A 
ATOM     17  C   UNL     1      32.852  31.069  20.234  0.00  0.00    +0.005 A 
ATOM     18  C   UNL     1      32.130  30.610  19.051  0.00  0.00    -0.033 A 
ATOM     28  C   UNL     1      32.877  30.213  17.868  0.00  0.00    +0.005 A 
ATOM     29  C   UNL     1      34.288  30.258  17.840  0.00  0.00    +0.013 A 
BRANCH  18  19
ATOM     19  C   UNL     1      30.594  30.507  18.996  0.00  0.00    +0.119 C 
BRANCH  19  20
ATOM     20  N   UNL     1      30.009  29.517  18.043  0.00  0.00    -0.302 NA
ATOM     21  C   UNL     1      29.719  30.139  16.674  0.00  0.00    +0.066 C 
ATOM     22  C   UNL     1      29.128  29.084  15.684  0.00  0.00    -0.064 C 
ATOM     23  N   UNL     1      27.857  28.480  16.284  0.00  0.00    +0.379 N 
ATOM     24  C   UNL     1      27.267  27.530  15.330  0.00  0.00    -0.096 C 
ATOM     25  H   UNL     1      27.127  29.309  16.432  0.00  0.00    -0.082 HD
ATOM     26  C   UNL     1      28.136  27.862  17.647  0.00  0.00    -0.064 C 
ATOM     27  C   UNL     1      28.750  28.911  18.615  0.00  0.00    +0.066 C 
ENDBRANCH  19  20
ENDBRANCH  18  19
ENDBRANCH  14  15
ENDBRANCH  12  13
TORSDOF 6
ENDMDL
MODEL 2
REMARK VINA RESULT:      -8.4      1.244      1.807
REMARK  Name = C:\Users\Docking\Desktop\test protocol\1iep_ligandH.pdb
REMARK  8 active torsions:
REMARK  status: ('A' for Active; 'I' for Inactive)
REMARK    1  A    between atoms: _5  and  _11
REMARK    2  A    between atoms: _19  and  _21
REMARK    3  A    between atoms: _22  and  _66
REMARK    4  A    between atoms: _27  and  _30
REMARK    5  A    between atoms: _32  and  _33
REMARK    6  A    between atoms: _38  and  _43
REMARK    7  A    between atoms: _43  and  _46
REMARK    8  A    between atoms: _53  and  _55
REMARK                            x       y       z     vdW  Elec       q    Type
REMARK                         _______ _______ _______ _____ _____    ______ ____
ROOT
ATOM     10  C   UNL     1      40.320  29.326  21.080  0.00  0.00    +0.038 A 
ATOM     11  C   UNL     1      38.923  29.234  20.855  0.00  0.00    +0.047 A 
ATOM     12  C   UNL     1      38.210  30.267  20.120  0.00  0.00    +0.035 A 
ATOM     32  C   UNL     1      38.952  31.379  19.625  0.00  0.00    +0.024 A 
ATOM     33  C   UNL     1      40.372  31.489  19.846  0.00  0.00    +0.007 A 
ATOM     34  C   UNL     1      41.081  30.475  20.573  0.00  0.00    -0.029 A 
ATOM     35  C   UNL     1      42.603  30.648  20.785  0.00  0.00    +0.045 C 
ENDROOT
BRANCH  10   9
ATOM      4  C   UNL     1      42.389  25.003  21.346  0.00  0.00    +0.077 A 
ATOM      5  C   UNL     1      42.163  24.744  19.953  0.00  0.00    +0.048 A 
ATOM      6  C   UNL     1      41.505  25.746  19.205  0.00  0.00    +0.116 A 
ATOM      7  N   UNL     1      41.107  26.916  19.815  0.00  0.00    -0.223 NA
ATOM      8  C   UNL     1      41.339  27.133  21.161  0.00  0.00    +0.220 A 
ATOM      9  N   UNL     1      40.955  28.306  21.793  0.00  0.00    -0.283 N 
ATOM     36  H   UNL     1      41.137  28.425  22.789  0.00  0.00    +0.155 HD
ATOM     37  N   UNL     1      41.964  26.192  21.897  0.00  0.00    -0.214 NA
BRANCH   4   3
ATOM      1  C   UNL     1      45.037  23.305  23.671  0.00  0.00    +0.020 A 
ATOM      2  C   UNL     1      44.420  24.263  22.782  0.00  0.00    +0.013 A 
ATOM      3  C   UNL     1      43.074  24.043  22.268  0.00  0.00    +0.019 A 
ATOM     38  C   UNL     1      42.374  22.835  22.675  0.00  0.00    +0.120 A 
ATOM     39  N   UNL     1      42.993  21.929  23.530  0.00  0.00    -0.263 NA
ATOM     40  C   UNL     1      44.289  22.129  24.031  0.00  0.00    +0.111 A 
ENDBRANCH   4   3
ENDBRANCH  10   9
BRANCH  12  13
ATOM     13  N   UNL     1      36.791  30.231  19.867  0.00  0.00    -0.281 N 
ATOM     14  C   UNL     1      35.760  30.467  20.762  0.00  0.00    +0.248 C 
ATOM     30  O   UNL     1      35.900  30.536  21.974  0.00  0.00    -0.270 OA
ATOM     31  H   UNL     1      36.512  30.005  18.912  0.00  0.00    +0.155 HD
BRANCH  14  15
ATOM     15  C   UNL     1      34.372  30.637  20.236  0.00  0.00    +0.037 A 
ATOM     16  C   UNL     1      34.028  30.261  18.862  0.00  0.00    +0.013 A 
ATOM     17  C   UNL     1      32.685  30.452  18.375  0.00  0.00    +0.005 A 
ATOM     18  C   UNL     1      31.674  31.020  19.263  0.00  0.00    -0.033 A 
ATOM     28  C   UNL     1      32.041  31.380  20.623  0.00  0.00    +0.005 A 
ATOM     29  C   UNL     1      33.357  31.196  21.104  0.00  0.00    +0.013 A 
BRANCH  18  19
ATOM     19  C   UNL     1      30.222  31.278  18.821  0.00  0.00    +0.119 C 
BRANCH  19  20
ATOM     20  N   UNL     1      29.264  30.136  18.918  0.00  0.00    -0.302 NA
ATOM     21  C   UNL     1      29.614  29.190  20.070  0.00  0.00    +0.066 C 
ATOM     22  C   UNL     1      28.590  28.013  20.171  0.00  0.00    -0.064 C 
ATOM     23  N   UNL     1      28.552  27.258  18.841  0.00  0.00    +0.379 N 
ATOM     24  C   UNL     1      27.632  26.116  18.952  0.00  0.00    -0.096 C 
ATOM     25  H   UNL     1      29.573  26.853  18.653  0.00  0.00    -0.082 HD
ATOM     26  C   UNL     1      28.207  28.193  17.690  0.00  0.00    -0.064 C 
ATOM     27  C   UNL     1      29.214  29.374  17.617  0.00  0.00    +0.066 C 
ENDBRANCH  19  20
ENDBRANCH  18  19
ENDBRANCH  14  15
ENDBRANCH  12  13
TORSDOF 6
ENDMDL
MODEL 3
REMARK VINA RESULT:      -8.3      1.711      2.495
REMARK  Name = C:\Users\Docking\Desktop\test protocol\1iep_ligandH.pdb
REMARK  8 active torsions:
REMARK  status: ('A' for Active; 'I' for Inactive)
REMARK    1  A    between atoms: _5  and  _11
REMARK    2  A    between atoms: _19  and  _21
REMARK    3  A    between atoms: _22  and  _66
REMARK    4  A    between atoms: _27  and  _30
REMARK    5  A    between atoms: _32  and  _33
REMARK    6  A    between atoms: _38  and  _43
REMARK    7  A    between atoms: _43  and  _46
REMARK    8  A    between atoms: _53  and  _55
REMARK                            x       y       z     vdW  Elec       q    Type
REMARK                         _______ _______ _______ _____ _____    ______ ____
ROOT
ATOM     10  C   UNL     1      40.629  29.455  21.231  0.00  0.00    +0.038 A 
ATOM     11  C   UNL     1      39.226  29.554  21.048  0.00  0.00    +0.047 A 
ATOM     12  C   UNL     1      38.636  30.681  20.343  0.00  0.00    +0.035 A 
ATOM     32  C   UNL     1      39.505  31.690  19.834  0.00  0.00    +0.024 A 
ATOM     33  C   UNL     1      40.934  31.606  20.012  0.00  0.00    +0.007 A 
ATOM     34  C   UNL     1      41.521  30.498  20.709  0.00  0.00    -0.029 A 
ATOM     35  C   UNL     1      43.058  30.463  20.876  0.00  0.00    +0.045 C 
ENDROOT
BRANCH  10   9
ATOM      4  C   UNL     1      42.141  24.903  21.391  0.00  0.00    +0.077 A 
ATOM      5  C   UNL     1      41.862  24.699  19.998  0.00  0.00    +0.048 A 
ATOM      6  C   UNL     1      41.323  25.789  19.278  0.00  0.00    +0.116 A 
ATOM      7  N   UNL     1      41.086  26.989  19.913  0.00  0.00    -0.223 NA
ATOM      8  C   UNL     1      41.365  27.151  21.258  0.00  0.00    +0.220 A 
ATOM      9  N   UNL     1      41.141  28.351  21.915  0.00  0.00    -0.283 N 
ATOM     36  H   UNL     1      41.353  28.428  22.910  0.00  0.00    +0.155 HD
ATOM     37  N   UNL     1      41.878  26.125  21.968  0.00  0.00    -0.214 NA
BRANCH   4   3
ATOM      1  C   UNL     1      44.567  22.882  23.700  0.00  0.00    +0.020 A 
ATOM      2  C   UNL     1      44.060  23.928  22.841  0.00  0.00    +0.013 A 
ATOM      3  C   UNL     1      42.716  23.848  22.285  0.00  0.00    +0.019 A 
ATOM     38  C   UNL     1      41.903  22.689  22.620  0.00  0.00    +0.120 A 
ATOM     39  N   UNL     1      42.418  21.697  23.448  0.00  0.00    -0.263 NA
ATOM     40  C   UNL     1      43.711  21.762  23.988  0.00  0.00    +0.111 A 
ENDBRANCH   4   3
ENDBRANCH  10   9
BRANCH  12  13
ATOM     13  N   UNL     1      37.218  30.839  20.134  0.00  0.00    -0.281 N 
ATOM     14  C   UNL     1      36.512  30.711  18.948  0.00  0.00    +0.248 C 
ATOM     30  O   UNL     1      37.026  30.650  17.841  0.00  0.00    -0.270 OA
ATOM     31  H   UNL     1      36.667  31.073  20.960  0.00  0.00    +0.155 HD
BRANCH  14  15
ATOM     15  C   UNL     1      35.020  30.656  18.999  0.00  0.00    +0.037 A 
ATOM     16  C   UNL     1      34.233  30.272  17.824  0.00  0.00    +0.013 A 
ATOM     17  C   UNL     1      32.794  30.244  17.895  0.00  0.00    +0.005 A 
ATOM     18  C   UNL     1      32.131  30.601  19.147  0.00  0.00    -0.033 A 
ATOM     28  C   UNL     1      32.936  30.974  20.299  0.00  0.00    +0.005 A 
ATOM     29  C   UNL     1      34.347  31.003  20.233  0.00  0.00    +0.013 A 
BRANCH  18  19
ATOM     19  C   UNL     1      30.599  30.619  19.308  0.00  0.00    +0.119 C 
BRANCH  19  20
ATOM     20  N   UNL     1      29.886  31.871  18.914  0.00  0.00    -0.302 NA
ATOM     21  C   UNL     1      29.802  32.872  20.070  0.00  0.00    +0.066 C 
ATOM     22  C   UNL     1      29.072  34.184  19.635  0.00  0.00    -0.064 C 
ATOM     23  N   UNL     1      27.676  33.839  19.114  0.00  0.00    +0.379 N 
ATOM     24  C   UNL     1      26.965  35.076  18.758  0.00  0.00    -0.096 C 
ATOM     25  H   UNL     1      27.115  33.354  19.947  0.00  0.00    -0.082 HD
ATOM     26  C   UNL     1      27.750  32.842  17.967  0.00  0.00    -0.064 C 
ATOM     27  C   UNL     1      28.503  31.554  18.401  0.00  0.00    +0.066 C 
ENDBRANCH  19  20
ENDBRANCH  18  19
ENDBRANCH  14  15
ENDBRANCH  12  13
TORSDOF 6
ENDMDL
MODEL 4
REMARK VINA RESULT:      -8.2      2.129     12.992
REMARK  Name = C:\Users\Docking\Desktop\test protocol\1iep_ligandH.pdb
REMARK  8 active torsions:
REMARK  status: ('A' for Active; 'I' for Inactive)
REMARK    1  A    between atoms: _5  and  _11
REMARK    2  A    between atoms: _19  and  _21
REMARK    3  A    between atoms: _22  and  _66
REMARK    4  A    between atoms: _27  and  _30
REMARK    5  A    between atoms: _32  and  _33
REMARK    6  A    between atoms: _38  and  _43
REMARK    7  A    between atoms: _43  and  _46
REMARK    8  A    between atoms: _53  and  _55
REMARK                            x       y       z     vdW  Elec       q    Type
REMARK                         _______ _______ _______ _____ _____    ______ ____
ROOT
ATOM     10  C   UNL     1      29.865  30.513  17.425  0.00  0.00    +0.038 A 
ATOM     11  C   UNL     1      31.188  30.218  17.842  0.00  0.00    +0.047 A 
ATOM     12  C   UNL     1      31.769  30.859  19.011  0.00  0.00    +0.035 A 
ATOM     32  C   UNL     1      30.973  31.794  19.735  0.00  0.00    +0.024 A 
ATOM     33  C   UNL     1      29.627  32.106  19.325  0.00  0.00    +0.007 A 
ATOM     34  C   UNL     1      29.049  31.479  18.171  0.00  0.00    -0.029 A 
ATOM     35  C   UNL     1      27.603  31.857  17.773  0.00  0.00    +0.045 C 
ENDROOT
BRANCH  10   9
ATOM      4  C   UNL     1      27.205  27.111  15.331  0.00  0.00    +0.077 A 
ATOM      5  C   UNL     1      26.815  26.554  16.594  0.00  0.00    +0.048 A 
ATOM      6  C   UNL     1      27.327  27.168  17.759  0.00  0.00    +0.116 A 
ATOM      7  N   UNL     1      28.165  28.258  17.656  0.00  0.00    -0.223 NA
ATOM      8  C   UNL     1      28.522  28.769  16.422  0.00  0.00    +0.220 A 
ATOM      9  N   UNL     1      29.357  29.868  16.295  0.00  0.00    -0.283 N 
ATOM     36  H   UNL     1      29.603  30.210  15.366  0.00  0.00    +0.155 HD
ATOM     37  N   UNL     1      28.048  28.199  15.294  0.00  0.00    -0.214 NA
BRANCH   4   3
ATOM      1  C   UNL     1      26.772  26.515  11.489  0.00  0.00    +0.020 A 
ATOM      2  C   UNL     1      27.250  27.068  12.736  0.00  0.00    +0.013 A 
ATOM      3  C   UNL     1      26.744  26.575  14.011  0.00  0.00    +0.019 A 
ATOM     38  C   UNL     1      25.749  25.514  13.989  0.00  0.00    +0.120 A 
ATOM     39  N   UNL     1      25.307  25.002  12.773  0.00  0.00    -0.263 NA
ATOM     40  C   UNL     1      25.785  25.470  11.540  0.00  0.00    +0.111 A 
ENDBRANCH   4   3
ENDBRANCH  10   9
BRANCH  12  13
ATOM     13  N   UNL     1      33.110  30.605  19.477  0.00  0.00    -0.281 N 
ATOM     14  C   UNL     1      34.265  30.479  18.722  0.00  0.00    +0.248 C 
ATOM     30  O   UNL     1      34.285  30.353  17.506  0.00  0.00    -0.270 OA
ATOM     31  H   UNL     1      33.222  30.507  20.486  0.00  0.00    +0.155 HD
BRANCH  14  15
ATOM     15  C   UNL     1      35.587  30.479  19.418  0.00  0.00    +0.037 A 
ATOM     16  C   UNL     1      35.682  30.286  20.867  0.00  0.00    +0.013 A 
ATOM     17  C   UNL     1      36.969  30.308  21.517  0.00  0.00    +0.005 A 
ATOM     18  C   UNL     1      38.172  30.521  20.716  0.00  0.00    -0.033 A 
ATOM     28  C   UNL     1      38.049  30.705  19.279  0.00  0.00    +0.005 A 
ATOM     29  C   UNL     1      36.789  30.685  18.639  0.00  0.00    +0.013 A 
BRANCH  18  19
ATOM     19  C   UNL     1      39.584  30.580  21.327  0.00  0.00    +0.119 C 
BRANCH  19  20
ATOM     20  N   UNL     1      40.417  29.343  21.246  0.00  0.00    -0.302 NA
ATOM     21  C   UNL     1      39.613  28.143  20.738  0.00  0.00    +0.066 C 
ATOM     22  C   UNL     1      40.505  26.862  20.638  0.00  0.00    -0.064 C 
ATOM     23  N   UNL     1      41.118  26.563  22.007  0.00  0.00    +0.379 N 
ATOM     24  C   UNL     1      41.910  25.327  21.930  0.00  0.00    -0.096 C 
ATOM     25  H   UNL     1      40.280  26.384  22.720  0.00  0.00    -0.082 HD
ATOM     26  C   UNL     1      41.916  27.752  22.521  0.00  0.00    -0.064 C 
ATOM     27  C   UNL     1      41.028  29.026  22.589  0.00  0.00    +0.066 C 
ENDBRANCH  19  20
ENDBRANCH  18  19
ENDBRANCH  14  15
ENDBRANCH  12  13
TORSDOF 6
ENDMDL
MODEL 5
REMARK VINA RESULT:      -8.0      1.893      2.954
REMARK  Name = C:\Users\Docking\Desktop\test protocol\1iep_ligandH.pdb
REMARK  8 active torsions:
REMARK  status: ('A' for Active; 'I' for Inactive)
REMARK    1  A    between atoms: _5  and  _11
REMARK    2  A    between atoms: _19  and  _21
REMARK    3  A    between atoms: _22  and  _66
REMARK    4  A    between atoms: _27  and  _30
REMARK    5  A    between atoms: _32  and  _33
REMARK    6  A    between atoms: _38  and  _43
REMARK    7  A    between atoms: _43  and  _46
REMARK    8  A    between atoms: _53  and  _55
REMARK                            x       y       z     vdW  Elec       q    Type
REMARK                         _______ _______ _______ _____ _____    ______ ____
ROOT
ATOM     10  C   UNL     1      40.517  29.472  21.230  0.00  0.00    +0.038 A 
ATOM     11  C   UNL     1      39.115  29.572  21.039  0.00  0.00    +0.047 A 
ATOM     12  C   UNL     1      38.530  30.704  20.339  0.00  0.00    +0.035 A 
ATOM     32  C   UNL     1      39.402  31.717  19.844  0.00  0.00    +0.024 A 
ATOM     33  C   UNL     1      40.829  31.632  20.030  0.00  0.00    +0.007 A 
ATOM     34  C   UNL     1      41.412  30.518  20.722  0.00  0.00    -0.029 A 
ATOM     35  C   UNL     1      42.948  30.483  20.898  0.00  0.00    +0.045 C 
ENDROOT
BRANCH  10   9
ATOM      4  C   UNL     1      42.223  24.987  21.330  0.00  0.00    +0.077 A 
ATOM      5  C   UNL     1      42.064  24.832  19.912  0.00  0.00    +0.048 A 
ATOM      6  C   UNL     1      41.533  25.927  19.195  0.00  0.00    +0.116 A 
ATOM      7  N   UNL     1      41.190  27.087  19.856  0.00  0.00    -0.223 NA
ATOM      8  C   UNL     1      41.355  27.203  21.224  0.00  0.00    +0.220 A 
ATOM      9  N   UNL     1      41.025  28.362  21.909  0.00  0.00    -0.283 N 
ATOM     36  H   UNL     1      41.155  28.406  22.919  0.00  0.00    +0.155 HD
ATOM     37  N   UNL     1      41.859  26.170  21.932  0.00  0.00    -0.214 NA
BRANCH   4   3
ATOM      1  C   UNL     1      42.610  21.716  23.439  0.00  0.00    +0.020 A 
ATOM      2  C   UNL     1      42.031  22.715  22.571  0.00  0.00    +0.013 A 
ATOM      3  C   UNL     1      42.774  23.920  22.224  0.00  0.00    +0.019 A 
ATOM     38  C   UNL     1      44.111  24.084  22.776  0.00  0.00    +0.120 A 
ATOM     39  N   UNL     1      44.642  23.105  23.610  0.00  0.00    -0.263 NA
ATOM     40  C   UNL     1      43.935  21.942  23.953  0.00  0.00    +0.111 A 
ENDBRANCH   4   3
ENDBRANCH  10   9
BRANCH  12  13
ATOM     13  N   UNL     1      37.113  30.864  20.122  0.00  0.00    -0.281 N 
ATOM     14  C   UNL     1      36.411  30.714  18.938  0.00  0.00    +0.248 C 
ATOM     30  O   UNL     1      36.927  30.628  17.834  0.00  0.00    -0.270 OA
ATOM     31  H   UNL     1      36.561  31.118  20.942  0.00  0.00    +0.155 HD
BRANCH  14  15
ATOM     15  C   UNL     1      34.917  30.667  18.985  0.00  0.00    +0.037 A 
ATOM     16  C   UNL     1      34.133  30.247  17.821  0.00  0.00    +0.013 A 
ATOM     17  C   UNL     1      32.693  30.227  17.887  0.00  0.00    +0.005 A 
ATOM     18  C   UNL     1      32.028  30.628  19.125  0.00  0.00    -0.033 A 
ATOM     28  C   UNL     1      32.831  31.035  20.266  0.00  0.00    +0.005 A 
ATOM     29  C   UNL     1      34.242  31.057  20.204  0.00  0.00    +0.013 A 
BRANCH  18  19
ATOM     19  C   UNL     1      30.496  30.657  19.279  0.00  0.00    +0.119 C 
BRANCH  19  20
ATOM     20  N   UNL     1      29.951  30.857  20.655  0.00  0.00    -0.302 NA
ATOM     21  C   UNL     1      28.978  29.744  21.055  0.00  0.00    +0.066 C 
ATOM     22  C   UNL     1      28.434  29.957  22.505  0.00  0.00    -0.064 C 
ATOM     23  N   UNL     1      27.760  31.327  22.599  0.00  0.00    +0.379 N 
ATOM     24  C   UNL     1      27.197  31.506  23.945  0.00  0.00    -0.096 C 
ATOM     25  H   UNL     1      26.913  31.336  21.874  0.00  0.00    -0.082 HD
ATOM     26  C   UNL     1      28.720  32.438  22.201  0.00  0.00    -0.064 C 
ATOM     27  C   UNL     1      29.277  32.202  20.769  0.00  0.00    +0.066 C 
ENDBRANCH  19  20
ENDBRANCH  18  19
ENDBRANCH  14  15
ENDBRANCH  12  13
TORSDOF 6
ENDMDL
