MODEL 1
REMARK VINA RESULT:     -11.2      0.000      0.000
REMARK  Name = C:\Users\Docking\Desktop\test protocol\1iep_ligandH.pdb
REMARK  8 active torsions:
REMARK  status: ('A' for Active; 'I' for Inactive)
REMARK    1  A    between atoms: _5  and  _11
REMARK    2  A    between atoms: _19  and  _21
REMARK    3  A    between atoms: _22  and  _66
REMARK    4  A    between atoms: _27  and  _30
REMARK    5  A    between atoms: _32  and  _33
REMARK    6  A    between atoms: _38  and  _43
REMARK    7  A    between atoms: _43  and  _46
REMARK    8  A    between atoms: _53  and  _55
REMARK                            x       y       z     vdW  Elec       q    Type
REMARK                         _______ _______ _______ _____ _____    ______ ____
ROOT
ATOM     10  C   UNL     1      29.890  22.341  61.052  0.00  0.00    +0.038 A 
ATOM     11  C   UNL     1      28.872  21.634  60.364  0.00  0.00    +0.047 A 
ATOM     12  C   UNL     1      28.447  20.313  60.799  0.00  0.00    +0.035 A 
ATOM     32  C   UNL     1      29.080  19.742  61.942  0.00  0.00    +0.024 A 
ATOM     33  C   UNL     1      30.118  20.447  62.653  0.00  0.00    +0.007 A 
ATOM     34  C   UNL     1      30.542  21.749  62.227  0.00  0.00    -0.029 A 
ATOM     35  C   UNL     1      31.664  22.455  63.023  0.00  0.00    +0.045 C 
ENDROOT
BRANCH  10   9
ATOM      4  C   UNL     1      29.276  27.094  60.789  0.00  0.00    +0.077 A 
ATOM      5  C   UNL     1      28.107  27.049  61.619  0.00  0.00    +0.048 A 
ATOM      6  C   UNL     1      27.693  25.782  62.088  0.00  0.00    +0.116 A 
ATOM      7  N   UNL     1      28.403  24.651  61.745  0.00  0.00    -0.223 NA
ATOM      8  C   UNL     1      29.525  24.730  60.941  0.00  0.00    +0.220 A 
ATOM      9  N   UNL     1      30.259  23.607  60.591  0.00  0.00    -0.283 N 
ATOM     36  H   UNL     1      31.076  23.706  59.990  0.00  0.00    +0.155 HD
ATOM     37  N   UNL     1      29.940  25.928  60.480  0.00  0.00    -0.214 NA
BRANCH   4   3
ATOM      1  C   UNL     1      31.536  29.635  58.855  0.00  0.00    +0.020 A 
ATOM      2  C   UNL     1      31.032  28.387  59.381  0.00  0.00    +0.013 A 
ATOM      3  C   UNL     1      29.841  28.359  60.220  0.00  0.00    +0.019 A 
ATOM     38  C   UNL     1      29.177  29.621  60.510  0.00  0.00    +0.120 A 
ATOM     39  N   UNL     1      29.686  30.807  59.992  0.00  0.00    -0.263 NA
ATOM     40  C   UNL     1      30.832  30.847  59.184  0.00  0.00    +0.111 A 
ENDBRANCH   4   3
ENDBRANCH  10   9
BRANCH  12  13
ATOM     13  N   UNL     1      27.424  19.544  60.135  0.00  0.00    -0.281 N 
ATOM     14  C   UNL     1      26.114  19.914  59.876  0.00  0.00    +0.248 C 
ATOM     30  O   UNL     1      25.560  20.885  60.369  0.00  0.00    -0.270 OA
ATOM     31  H   UNL     1      27.698  18.614  59.818  0.00  0.00    +0.155 HD
BRANCH  14  15
ATOM     15  C   UNL     1      25.297  19.075  58.947  0.00  0.00    +0.037 A 
ATOM     16  C   UNL     1      23.935  18.664  59.294  0.00  0.00    +0.013 A 
ATOM     17  C   UNL     1      23.175  17.840  58.387  0.00  0.00    +0.005 A 
ATOM     18  C   UNL     1      23.777  17.424  57.122  0.00  0.00    -0.033 A 
ATOM     28  C   UNL     1      25.129  17.850  56.801  0.00  0.00    +0.005 A 
ATOM     29  C   UNL     1      25.877  18.657  57.688  0.00  0.00    +0.013 A 
BRANCH  18  19
ATOM     19  C   UNL     1      23.048  16.528  56.104  0.00  0.00    +0.119 C 
BRANCH  19  20
ATOM     20  N   UNL     1      21.715  15.983  56.503  0.00  0.00    -0.302 NA
ATOM     21  C   UNL     1      21.831  14.605  57.159  0.00  0.00    +0.066 C 
ATOM     22  C   UNL     1      20.431  14.060  57.590  0.00  0.00    -0.064 C 
ATOM     23  N   UNL     1      19.511  14.003  56.370  0.00  0.00    +0.379 N 
ATOM     24  C   UNL     1      18.211  13.437  56.760  0.00  0.00    -0.096 C 
ATOM     25  H   UNL     1      19.973  13.309  55.630  0.00  0.00    -0.082 HD
ATOM     26  C   UNL     1      19.392  15.369  55.709  0.00  0.00    -0.064 C 
ATOM     27  C   UNL     1      20.792  15.914  55.311  0.00  0.00    +0.066 C 
ENDBRANCH  19  20
ENDBRANCH  18  19
ENDBRANCH  14  15
ENDBRANCH  12  13
TORSDOF 6
ENDMDL
MODEL 2
REMARK VINA RESULT:      -9.7      2.964      4.538
REMARK  Name = C:\Users\Docking\Desktop\test protocol\1iep_ligandH.pdb
REMARK  8 active torsions:
REMARK  status: ('A' for Active; 'I' for Inactive)
REMARK    1  A    between atoms: _5  and  _11
REMARK    2  A    between atoms: _19  and  _21
REMARK    3  A    between atoms: _22  and  _66
REMARK    4  A    between atoms: _27  and  _30
REMARK    5  A    between atoms: _32  and  _33
REMARK    6  A    between atoms: _38  and  _43
REMARK    7  A    between atoms: _43  and  _46
REMARK    8  A    between atoms: _53  and  _55
REMARK                            x       y       z     vdW  Elec       q    Type
REMARK                         _______ _______ _______ _____ _____    ______ ____
ROOT
ATOM     10  C   UNL     1      28.518  21.458  63.325  0.00  0.00    +0.038 A 
ATOM     11  C   UNL     1      27.545  20.764  62.561  0.00  0.00    +0.047 A 
ATOM     12  C   UNL     1      27.920  19.997  61.383  0.00  0.00    +0.035 A 
ATOM     32  C   UNL     1      29.296  19.956  61.014  0.00  0.00    +0.024 A 
ATOM     33  C   UNL     1      30.298  20.656  61.778  0.00  0.00    +0.007 A 
ATOM     34  C   UNL     1      29.934  21.417  62.939  0.00  0.00    -0.029 A 
ATOM     35  C   UNL     1      31.049  22.153  63.717  0.00  0.00    +0.045 C 
ENDROOT
BRANCH  10   9
ATOM      4  C   UNL     1      27.003  25.491  65.441  0.00  0.00    +0.077 A 
ATOM      5  C   UNL     1      27.071  26.230  64.214  0.00  0.00    +0.048 A 
ATOM      6  C   UNL     1      27.507  25.538  63.063  0.00  0.00    +0.116 A 
ATOM      7  N   UNL     1      27.848  24.205  63.144  0.00  0.00    -0.223 NA
ATOM      8  C   UNL     1      27.772  23.522  64.343  0.00  0.00    +0.220 A 
ATOM      9  N   UNL     1      28.102  22.179  64.447  0.00  0.00    -0.283 N 
ATOM     36  H   UNL     1      28.040  21.713  65.351  0.00  0.00    +0.155 HD
ATOM     37  N   UNL     1      27.360  24.161  65.458  0.00  0.00    -0.214 NA
BRANCH   4   3
ATOM      1  C   UNL     1      24.847  26.458  68.559  0.00  0.00    +0.020 A 
ATOM      2  C   UNL     1      25.227  25.865  67.298  0.00  0.00    +0.013 A 
ATOM      3  C   UNL     1      26.557  26.082  66.743  0.00  0.00    +0.019 A 
ATOM     38  C   UNL     1      27.487  26.910  67.496  0.00  0.00    +0.120 A 
ATOM     39  N   UNL     1      27.092  27.470  68.707  0.00  0.00    -0.263 NA
ATOM     40  C   UNL     1      25.814  27.269  69.250  0.00  0.00    +0.111 A 
ENDBRANCH   4   3
ENDBRANCH  10   9
BRANCH  12  13
ATOM     13  N   UNL     1      26.975  19.279  60.564  0.00  0.00    -0.281 N 
ATOM     14  C   UNL     1      25.872  19.783  59.895  0.00  0.00    +0.248 C 
ATOM     30  O   UNL     1      25.405  20.898  60.074  0.00  0.00    -0.270 OA
ATOM     31  H   UNL     1      27.140  18.277  60.466  0.00  0.00    +0.155 HD
BRANCH  14  15
ATOM     15  C   UNL     1      25.178  18.919  58.893  0.00  0.00    +0.037 A 
ATOM     16  C   UNL     1      25.861  18.465  57.678  0.00  0.00    +0.013 A 
ATOM     17  C   UNL     1      25.163  17.646  56.719  0.00  0.00    +0.005 A 
ATOM     18  C   UNL     1      23.773  17.274  56.972  0.00  0.00    -0.033 A 
ATOM     28  C   UNL     1      23.122  17.733  58.187  0.00  0.00    +0.005 A 
ATOM     29  C   UNL     1      23.802  18.537  59.129  0.00  0.00    +0.013 A 
BRANCH  18  19
ATOM     19  C   UNL     1      22.944  16.421  55.994  0.00  0.00    +0.119 C 
BRANCH  19  20
ATOM     20  N   UNL     1      21.624  15.917  56.475  0.00  0.00    -0.302 NA
ATOM     21  C   UNL     1      21.738  14.534  57.123  0.00  0.00    +0.066 C 
ATOM     22  C   UNL     1      20.351  14.032  57.642  0.00  0.00    -0.064 C 
ATOM     23  N   UNL     1      19.355  14.005  56.481  0.00  0.00    +0.379 N 
ATOM     24  C   UNL     1      18.066  13.478  56.953  0.00  0.00    -0.096 C 
ATOM     25  H   UNL     1      19.749  13.299  55.714  0.00  0.00    -0.082 HD
ATOM     26  C   UNL     1      19.237  15.376  55.829  0.00  0.00    -0.064 C 
ATOM     27  C   UNL     1      20.626  15.878  55.344  0.00  0.00    +0.066 C 
ENDBRANCH  19  20
ENDBRANCH  18  19
ENDBRANCH  14  15
ENDBRANCH  12  13
TORSDOF 6
ENDMDL
MODEL 3
REMARK VINA RESULT:      -9.5      4.050      7.275
REMARK  Name = C:\Users\Docking\Desktop\test protocol\1iep_ligandH.pdb
REMARK  8 active torsions:
REMARK  status: ('A' for Active; 'I' for Inactive)
REMARK    1  A    between atoms: _5  and  _11
REMARK    2  A    between atoms: _19  and  _21
REMARK    3  A    between atoms: _22  and  _66
REMARK    4  A    between atoms: _27  and  _30
REMARK    5  A    between atoms: _32  and  _33
REMARK    6  A    between atoms: _38  and  _43
REMARK    7  A    between atoms: _43  and  _46
REMARK    8  A    between atoms: _53  and  _55
REMARK                            x       y       z     vdW  Elec       q    Type
REMARK                         _______ _______ _______ _____ _____    ______ ____
ROOT
ATOM     10  C   UNL     1      29.488  20.784  62.959  0.00  0.00    +0.038 A 
ATOM     11  C   UNL     1      28.466  20.028  62.330  0.00  0.00    +0.047 A 
ATOM     12  C   UNL     1      28.232  20.125  60.898  0.00  0.00    +0.035 A 
ATOM     32  C   UNL     1      29.060  21.000  60.136  0.00  0.00    +0.024 A 
ATOM     33  C   UNL     1      30.102  21.777  60.759  0.00  0.00    +0.007 A 
ATOM     34  C   UNL     1      30.336  21.688  62.172  0.00  0.00    -0.029 A 
ATOM     35  C   UNL     1      31.463  22.548  62.788  0.00  0.00    +0.045 C 
ENDROOT
BRANCH  10   9
ATOM      4  C   UNL     1      30.848  18.294  66.831  0.00  0.00    +0.077 A 
ATOM      5  C   UNL     1      31.203  17.149  66.043  0.00  0.00    +0.048 A 
ATOM      6  C   UNL     1      31.013  17.239  64.645  0.00  0.00    +0.116 A 
ATOM      7  N   UNL     1      30.506  18.393  64.088  0.00  0.00    -0.223 NA
ATOM      8  C   UNL     1      30.173  19.479  64.877  0.00  0.00    +0.220 A 
ATOM      9  N   UNL     1      29.669  20.652  64.338  0.00  0.00    -0.283 N 
ATOM     36  H   UNL     1      29.428  21.428  64.954  0.00  0.00    +0.155 HD
ATOM     37  N   UNL     1      30.343  19.417  66.214  0.00  0.00    -0.214 NA
BRANCH   4   3
ATOM      1  C   UNL     1      30.461  19.339  70.580  0.00  0.00    +0.020 A 
ATOM      2  C   UNL     1      30.286  19.324  69.146  0.00  0.00    +0.013 A 
ATOM      3  C   UNL     1      30.993  18.354  68.320  0.00  0.00    +0.019 A 
ATOM     38  C   UNL     1      31.876  17.405  68.980  0.00  0.00    +0.120 A 
ATOM     39  N   UNL     1      32.026  17.444  70.363  0.00  0.00    -0.263 NA
ATOM     40  C   UNL     1      31.352  18.374  71.169  0.00  0.00    +0.111 A 
ENDBRANCH   4   3
ENDBRANCH  10   9
BRANCH  12  13
ATOM     13  N   UNL     1      27.204  19.388  60.205  0.00  0.00    -0.281 N 
ATOM     14  C   UNL     1      25.946  19.829  59.831  0.00  0.00    +0.248 C 
ATOM     30  O   UNL     1      25.430  20.863  60.227  0.00  0.00    -0.270 OA
ATOM     31  H   UNL     1      27.433  18.424  59.961  0.00  0.00    +0.155 HD
BRANCH  14  15
ATOM     15  C   UNL     1      25.137  18.992  58.893  0.00  0.00    +0.037 A 
ATOM     16  C   UNL     1      23.772  18.579  59.228  0.00  0.00    +0.013 A 
ATOM     17  C   UNL     1      23.020  17.757  58.312  0.00  0.00    +0.005 A 
ATOM     18  C   UNL     1      23.632  17.345  57.052  0.00  0.00    -0.033 A 
ATOM     28  C   UNL     1      24.986  17.774  56.742  0.00  0.00    +0.005 A 
ATOM     29  C   UNL     1      25.726  18.578  57.638  0.00  0.00    +0.013 A 
BRANCH  18  19
ATOM     19  C   UNL     1      22.911  16.451  56.025  0.00  0.00    +0.119 C 
BRANCH  19  20
ATOM     20  N   UNL     1      21.606  15.853  56.436  0.00  0.00    -0.302 NA
ATOM     21  C   UNL     1      21.781  14.463  57.055  0.00  0.00    +0.066 C 
ATOM     22  C   UNL     1      20.408  13.861  57.500  0.00  0.00    -0.064 C 
ATOM     23  N   UNL     1      19.466  13.804  56.297  0.00  0.00    +0.379 N 
ATOM     24  C   UNL     1      18.194  13.185  56.699  0.00  0.00    -0.096 C 
ATOM     25  H   UNL     1      19.936  13.144  55.530  0.00  0.00    -0.082 HD
ATOM     26  C   UNL     1      19.288  15.181  55.674  0.00  0.00    -0.064 C 
ATOM     27  C   UNL     1      20.661  15.783  55.262  0.00  0.00    +0.066 C 
ENDBRANCH  19  20
ENDBRANCH  18  19
ENDBRANCH  14  15
ENDBRANCH  12  13
TORSDOF 6
ENDMDL
MODEL 4
REMARK VINA RESULT:      -9.2      2.011     13.050
REMARK  Name = C:\Users\Docking\Desktop\test protocol\1iep_ligandH.pdb
REMARK  8 active torsions:
REMARK  status: ('A' for Active; 'I' for Inactive)
REMARK    1  A    between atoms: _5  and  _11
REMARK    2  A    between atoms: _19  and  _21
REMARK    3  A    between atoms: _22  and  _66
REMARK    4  A    between atoms: _27  and  _30
REMARK    5  A    between atoms: _32  and  _33
REMARK    6  A    between atoms: _38  and  _43
REMARK    7  A    between atoms: _43  and  _46
REMARK    8  A    between atoms: _53  and  _55
REMARK                            x       y       z     vdW  Elec       q    Type
REMARK                         _______ _______ _______ _____ _____    ______ ____
ROOT
ATOM     10  C   UNL     1      27.785  20.885  61.557  0.00  0.00    +0.038 A 
ATOM     11  C   UNL     1      27.731  22.261  61.217  0.00  0.00    +0.047 A 
ATOM     12  C   UNL     1      28.852  23.148  61.487  0.00  0.00    +0.035 A 
ATOM     32  C   UNL     1      30.014  22.599  62.103  0.00  0.00    +0.024 A 
ATOM     33  C   UNL     1      30.086  21.203  62.456  0.00  0.00    +0.007 A 
ATOM     34  C   UNL     1      28.983  20.324  62.194  0.00  0.00    -0.029 A 
ATOM     35  C   UNL     1      29.113  18.837  62.600  0.00  0.00    +0.045 C 
ENDROOT
BRANCH  10   9
ATOM      4  C   UNL     1      25.010  18.425  58.510  0.00  0.00    +0.077 A 
ATOM      5  C   UNL     1      25.814  18.798  57.383  0.00  0.00    +0.048 A 
ATOM      6  C   UNL     1      26.929  19.631  57.629  0.00  0.00    +0.116 A 
ATOM      7  N   UNL     1      27.210  20.052  58.910  0.00  0.00    -0.223 NA
ATOM      8  C   UNL     1      26.412  19.674  59.975  0.00  0.00    +0.220 A 
ATOM      9  N   UNL     1      26.680  20.079  61.274  0.00  0.00    -0.283 N 
ATOM     36  H   UNL     1      26.064  19.785  62.031  0.00  0.00    +0.155 HD
ATOM     37  N   UNL     1      25.341  18.881  59.767  0.00  0.00    -0.214 NA
BRANCH   4   3
ATOM      1  C   UNL     1      21.837  16.326  59.421  0.00  0.00    +0.020 A 
ATOM      2  C   UNL     1      22.995  17.176  59.569  0.00  0.00    +0.013 A 
ATOM      3  C   UNL     1      23.801  17.547  58.413  0.00  0.00    +0.019 A 
ATOM     38  C   UNL     1      23.403  17.038  57.109  0.00  0.00    +0.120 A 
ATOM     39  N   UNL     1      22.283  16.220  56.996  0.00  0.00    -0.263 NA
ATOM     40  C   UNL     1      21.501  15.855  58.103  0.00  0.00    +0.111 A 
ENDBRANCH   4   3
ENDBRANCH  10   9
BRANCH  12  13
ATOM     13  N   UNL     1      28.851  24.555  61.172  0.00  0.00    -0.281 N 
ATOM     14  C   UNL     1      28.824  25.625  62.052  0.00  0.00    +0.248 C 
ATOM     30  O   UNL     1      28.580  25.532  63.246  0.00  0.00    -0.270 OA
ATOM     31  H   UNL     1      28.872  24.791  60.180  0.00  0.00    +0.155 HD
BRANCH  14  15
ATOM     15  C   UNL     1      29.093  26.998  61.527  0.00  0.00    +0.037 A 
ATOM     16  C   UNL     1      28.050  27.768  60.844  0.00  0.00    +0.013 A 
ATOM     17  C   UNL     1      28.341  29.084  60.332  0.00  0.00    +0.005 A 
ATOM     18  C   UNL     1      29.682  29.639  60.503  0.00  0.00    -0.033 A 
ATOM     28  C   UNL     1      30.696  28.855  61.188  0.00  0.00    +0.005 A 
ATOM     29  C   UNL     1      30.415  27.565  61.691  0.00  0.00    +0.013 A 
BRANCH  18  19
ATOM     19  C   UNL     1      30.087  31.026  59.970  0.00  0.00    +0.119 C 
BRANCH  19  20
ATOM     20  N   UNL     1      31.497  31.196  59.507  0.00  0.00    -0.302 NA
ATOM     21  C   UNL     1      31.869  32.670  59.328  0.00  0.00    +0.066 C 
ATOM     22  C   UNL     1      33.354  32.830  58.866  0.00  0.00    -0.064 C 
ATOM     23  N   UNL     1      33.566  32.055  57.564  0.00  0.00    +0.379 N 
ATOM     24  C   UNL     1      34.946  32.251  57.096  0.00  0.00    -0.096 C 
ATOM     25  H   UNL     1      32.884  32.490  56.797  0.00  0.00    -0.082 HD
ATOM     26  C   UNL     1      33.196  30.589  57.733  0.00  0.00    -0.064 C 
ATOM     27  C   UNL     1      31.728  30.442  58.221  0.00  0.00    +0.066 C 
ENDBRANCH  19  20
ENDBRANCH  18  19
ENDBRANCH  14  15
ENDBRANCH  12  13
TORSDOF 6
ENDMDL
MODEL 5
REMARK VINA RESULT:      -9.0     16.359     23.760
REMARK  Name = C:\Users\Docking\Desktop\test protocol\1iep_ligandH.pdb
REMARK  8 active torsions:
REMARK  status: ('A' for Active; 'I' for Inactive)
REMARK    1  A    between atoms: _5  and  _11
REMARK    2  A    between atoms: _19  and  _21
REMARK    3  A    between atoms: _22  and  _66
REMARK    4  A    between atoms: _27  and  _30
REMARK    5  A    between atoms: _32  and  _33
REMARK    6  A    between atoms: _38  and  _43
REMARK    7  A    between atoms: _43  and  _46
REMARK    8  A    between atoms: _53  and  _55
REMARK                            x       y       z     vdW  Elec       q    Type
REMARK                         _______ _______ _______ _____ _____    ______ ____
ROOT
ATOM     10  C   UNL     1       8.209  12.987  53.265  0.00  0.00    +0.038 A 
ATOM     11  C   UNL     1       7.105  13.466  52.514  0.00  0.00    +0.047 A 
ATOM     12  C   UNL     1       5.739  13.136  52.890  0.00  0.00    +0.035 A 
ATOM     32  C   UNL     1       5.534  12.318  54.038  0.00  0.00    +0.024 A 
ATOM     33  C   UNL     1       6.644  11.821  54.813  0.00  0.00    +0.007 A 
ATOM     34  C   UNL     1       7.994  12.141  54.445  0.00  0.00    -0.029 A 
ATOM     35  C   UNL     1       9.146  11.575  55.308  0.00  0.00    +0.045 C 
ENDROOT
BRANCH  10   9
ATOM      4  C   UNL     1      11.630  16.227  52.352  0.00  0.00    +0.077 A 
ATOM      5  C   UNL     1      10.766  17.322  52.687  0.00  0.00    +0.048 A 
ATOM      6  C   UNL     1       9.446  17.008  53.082  0.00  0.00    +0.116 A 
ATOM      7  N   UNL     1       9.032  15.695  53.136  0.00  0.00    -0.223 NA
ATOM      8  C   UNL     1       9.891  14.663  52.805  0.00  0.00    +0.220 A 
ATOM      9  N   UNL     1       9.499  13.334  52.859  0.00  0.00    -0.283 N 
ATOM     36  H   UNL     1      10.161  12.603  52.600  0.00  0.00    +0.155 HD
ATOM     37  N   UNL     1      11.156  14.936  52.423  0.00  0.00    -0.214 NA
BRANCH   4   3
ATOM      1  C   UNL     1      15.061  17.809  51.340  0.00  0.00    +0.020 A 
ATOM      2  C   UNL     1      13.683  17.701  51.759  0.00  0.00    +0.013 A 
ATOM      3  C   UNL     1      13.054  16.396  51.920  0.00  0.00    +0.019 A 
ATOM     38  C   UNL     1      13.853  15.212  51.646  0.00  0.00    +0.120 A 
ATOM     39  N   UNL     1      15.178  15.347  51.242  0.00  0.00    -0.263 NA
ATOM     40  C   UNL     1      15.793  16.597  51.083  0.00  0.00    +0.111 A 
ENDBRANCH   4   3
ENDBRANCH  10   9
BRANCH  12  13
ATOM     13  N   UNL     1       4.580  13.587  52.161  0.00  0.00    -0.281 N 
ATOM     14  C   UNL     1       3.904  14.789  52.296  0.00  0.00    +0.248 C 
ATOM     30  O   UNL     1       4.067  15.574  53.218  0.00  0.00    -0.270 OA
ATOM     31  H   UNL     1       4.213  12.942  51.461  0.00  0.00    +0.155 HD
BRANCH  14  15
ATOM     15  C   UNL     1       2.889  15.166  51.265  0.00  0.00    +0.037 A 
ATOM     16  C   UNL     1       1.454  15.034  51.527  0.00  0.00    +0.013 A 
ATOM     17  C   UNL     1       0.497  15.388  50.509  0.00  0.00    +0.005 A 
ATOM     18  C   UNL     1       0.973  15.881  49.219  0.00  0.00    -0.033 A 
ATOM     28  C   UNL     1       2.403  16.007  48.987  0.00  0.00    +0.005 A 
ATOM     29  C   UNL     1       3.344  15.659  49.982  0.00  0.00    +0.013 A 
BRANCH  18  19
ATOM     19  C   UNL     1       0.025  16.262  48.067  0.00  0.00    +0.119 C 
BRANCH  19  20
ATOM     20  N   UNL     1       0.167  17.632  47.490  0.00  0.00    -0.302 NA
ATOM     21  C   UNL     1      -0.938  18.577  47.973  0.00  0.00    +0.066 C 
ATOM     22  C   UNL     1      -0.761  20.011  47.377  0.00  0.00    -0.064 C 
ATOM     23  N   UNL     1      -0.749  19.928  45.850  0.00  0.00    +0.379 N 
ATOM     24  C   UNL     1      -0.641  21.282  45.286  0.00  0.00    -0.096 C 
ATOM     25  H   UNL     1      -1.728  19.504  45.527  0.00  0.00    -0.082 HD
ATOM     26  C   UNL     1       0.345  18.989  45.361  0.00  0.00    -0.064 C 
ATOM     27  C   UNL     1       0.177  17.574  45.982  0.00  0.00    +0.066 C 
ENDBRANCH  19  20
ENDBRANCH  18  19
ENDBRANCH  14  15
ENDBRANCH  12  13
TORSDOF 6
ENDMDL
