MODEL 1
REMARK VINA RESULT:      -9.1      0.000      0.000
REMARK  Name = C:\Users\Docking\Desktop\test protocol\1iep_ligandH.pdb
REMARK  8 active torsions:
REMARK  status: ('A' for Active; 'I' for Inactive)
REMARK    1  A    between atoms: _5  and  _11
REMARK    2  A    between atoms: _19  and  _21
REMARK    3  A    between atoms: _22  and  _66
REMARK    4  A    between atoms: _27  and  _30
REMARK    5  A    between atoms: _32  and  _33
REMARK    6  A    between atoms: _38  and  _43
REMARK    7  A    between atoms: _43  and  _46
REMARK    8  A    between atoms: _53  and  _55
REMARK                            x       y       z     vdW  Elec       q    Type
REMARK                         _______ _______ _______ _____ _____    ______ ____
ROOT
ATOM     10  C   UNL     1      28.440  20.483  61.849  0.00  0.00    +0.038 A 
ATOM     11  C   UNL     1      27.393  19.557  61.607  0.00  0.00    +0.047 A 
ATOM     12  C   UNL     1      27.125  19.058  60.267  0.00  0.00    +0.035 A 
ATOM     32  C   UNL     1      27.945  19.521  59.197  0.00  0.00    +0.024 A 
ATOM     33  C   UNL     1      29.013  20.463  59.425  0.00  0.00    +0.007 A 
ATOM     34  C   UNL     1      29.280  20.960  60.744  0.00  0.00    -0.029 A 
ATOM     35  C   UNL     1      30.434  21.973  60.930  0.00  0.00    +0.045 C 
ENDROOT
BRANCH  10   9
ATOM      4  C   UNL     1      27.986  23.754  65.332  0.00  0.00    +0.077 A 
ATOM      5  C   UNL     1      27.288  24.663  64.468  0.00  0.00    +0.048 A 
ATOM      6  C   UNL     1      27.073  24.253  63.133  0.00  0.00    +0.116 A 
ATOM      7  N   UNL     1      27.525  23.024  62.705  0.00  0.00    -0.223 NA
ATOM      8  C   UNL     1      28.196  22.173  63.563  0.00  0.00    +0.220 A 
ATOM      9  N   UNL     1      28.653  20.929  63.155  0.00  0.00    -0.283 N 
ATOM     36  H   UNL     1      29.150  20.333  63.817  0.00  0.00    +0.155 HD
ATOM     37  N   UNL     1      28.416  22.541  64.842  0.00  0.00    -0.214 NA
BRANCH   4   3
ATOM      1  C   UNL     1      28.694  25.618  68.697  0.00  0.00    +0.020 A 
ATOM      2  C   UNL     1      28.403  25.395  67.300  0.00  0.00    +0.013 A 
ATOM      3  C   UNL     1      28.287  24.042  66.770  0.00  0.00    +0.019 A 
ATOM     38  C   UNL     1      28.473  22.928  67.688  0.00  0.00    +0.120 A 
ATOM     39  N   UNL     1      28.754  23.174  69.028  0.00  0.00    -0.263 NA
ATOM     40  C   UNL     1      28.870  24.472  69.549  0.00  0.00    +0.111 A 
ENDBRANCH   4   3
ENDBRANCH  10   9
BRANCH  12  13
ATOM     13  N   UNL     1      26.071  18.124  59.959  0.00  0.00    -0.281 N 
ATOM     14  C   UNL     1      24.883  18.370  59.290  0.00  0.00    +0.248 C 
ATOM     30  O   UNL     1      24.449  19.485  59.041  0.00  0.00    -0.270 OA
ATOM     31  H   UNL     1      26.218  17.164  60.272  0.00  0.00    +0.155 HD
BRANCH  14  15
ATOM     15  C   UNL     1      24.050  17.211  58.847  0.00  0.00    +0.037 A 
ATOM     16  C   UNL     1      23.091  16.574  59.752  0.00  0.00    +0.013 A 
ATOM     17  C   UNL     1      22.313  15.446  59.304  0.00  0.00    +0.005 A 
ATOM     18  C   UNL     1      22.490  14.950  57.942  0.00  0.00    -0.033 A 
ATOM     28  C   UNL     1      23.444  15.605  57.062  0.00  0.00    +0.005 A 
ATOM     29  C   UNL     1      24.210  16.709  57.498  0.00  0.00    +0.013 A 
BRANCH  18  19
ATOM     19  C   UNL     1      21.717  13.739  57.386  0.00  0.00    +0.119 C 
BRANCH  19  20
ATOM     20  N   UNL     1      20.721  14.002  56.304  0.00  0.00    -0.302 NA
ATOM     21  C   UNL     1      19.964  15.314  56.526  0.00  0.00    +0.066 C 
ATOM     22  C   UNL     1      18.943  15.584  55.374  0.00  0.00    -0.064 C 
ATOM     23  N   UNL     1      17.970  14.408  55.272  0.00  0.00    +0.379 N 
ATOM     24  C   UNL     1      16.973  14.685  54.228  0.00  0.00    -0.096 C 
ATOM     25  H   UNL     1      17.430  14.332  56.244  0.00  0.00    -0.082 HD
ATOM     26  C   UNL     1      18.714  13.099  55.054  0.00  0.00    -0.064 C 
ATOM     27  C   UNL     1      19.748  12.855  56.189  0.00  0.00    +0.066 C 
ENDBRANCH  19  20
ENDBRANCH  18  19
ENDBRANCH  14  15
ENDBRANCH  12  13
TORSDOF 6
ENDMDL
MODEL 2
REMARK VINA RESULT:      -9.1     21.039     26.648
REMARK  Name = C:\Users\Docking\Desktop\test protocol\1iep_ligandH.pdb
REMARK  8 active torsions:
REMARK  status: ('A' for Active; 'I' for Inactive)
REMARK    1  A    between atoms: _5  and  _11
REMARK    2  A    between atoms: _19  and  _21
REMARK    3  A    between atoms: _22  and  _66
REMARK    4  A    between atoms: _27  and  _30
REMARK    5  A    between atoms: _32  and  _33
REMARK    6  A    between atoms: _38  and  _43
REMARK    7  A    between atoms: _43  and  _46
REMARK    8  A    between atoms: _53  and  _55
REMARK                            x       y       z     vdW  Elec       q    Type
REMARK                         _______ _______ _______ _____ _____    ______ ____
ROOT
ATOM     10  C   UNL     1      26.571  44.375  53.127  0.00  0.00    +0.038 A 
ATOM     11  C   UNL     1      27.333  43.903  54.226  0.00  0.00    +0.047 A 
ATOM     12  C   UNL     1      28.581  44.545  54.608  0.00  0.00    +0.035 A 
ATOM     32  C   UNL     1      29.022  45.669  53.851  0.00  0.00    +0.024 A 
ATOM     33  C   UNL     1      28.261  46.162  52.730  0.00  0.00    +0.007 A 
ATOM     34  C   UNL     1      27.030  45.531  52.347  0.00  0.00    -0.029 A 
ATOM     35  C   UNL     1      26.259  46.098  51.132  0.00  0.00    +0.045 C 
ENDROOT
BRANCH  10   9
ATOM      4  C   UNL     1      21.892  43.532  53.781  0.00  0.00    +0.077 A 
ATOM      5  C   UNL     1      21.819  44.454  54.877  0.00  0.00    +0.048 A 
ATOM      6  C   UNL     1      23.009  45.120  55.246  0.00  0.00    +0.116 A 
ATOM      7  N   UNL     1      24.180  44.874  54.562  0.00  0.00    -0.223 NA
ATOM      8  C   UNL     1      24.216  43.977  53.510  0.00  0.00    +0.220 A 
ATOM      9  N   UNL     1      25.381  43.721  52.803  0.00  0.00    -0.283 N 
ATOM     36  H   UNL     1      25.368  43.046  52.038  0.00  0.00    +0.155 HD
ATOM     37  N   UNL     1      23.093  43.328  53.140  0.00  0.00    -0.214 NA
BRANCH   4   3
ATOM      1  C   UNL     1      19.638  41.127  51.675  0.00  0.00    +0.020 A 
ATOM      2  C   UNL     1      20.801  41.856  52.127  0.00  0.00    +0.013 A 
ATOM      3  C   UNL     1      20.719  42.754  53.271  0.00  0.00    +0.019 A 
ATOM     38  C   UNL     1      19.435  42.894  53.942  0.00  0.00    +0.120 A 
ATOM     39  N   UNL     1      18.332  42.181  53.484  0.00  0.00    -0.263 NA
ATOM     40  C   UNL     1      18.398  41.315  52.382  0.00  0.00    +0.111 A 
ENDBRANCH   4   3
ENDBRANCH  10   9
BRANCH  12  13
ATOM     13  N   UNL     1      29.401  44.105  55.710  0.00  0.00    -0.281 N 
ATOM     14  C   UNL     1      29.715  44.797  56.868  0.00  0.00    +0.248 C 
ATOM     30  O   UNL     1      29.510  45.990  57.037  0.00  0.00    -0.270 OA
ATOM     31  H   UNL     1      29.798  43.169  55.625  0.00  0.00    +0.155 HD
BRANCH  14  15
ATOM     15  C   UNL     1      30.362  44.061  57.996  0.00  0.00    +0.037 A 
ATOM     16  C   UNL     1      29.756  44.028  59.330  0.00  0.00    +0.013 A 
ATOM     17  C   UNL     1      30.410  43.325  60.404  0.00  0.00    +0.005 A 
ATOM     18  C   UNL     1      31.678  42.647  60.149  0.00  0.00    -0.033 A 
ATOM     28  C   UNL     1      32.255  42.690  58.815  0.00  0.00    +0.005 A 
ATOM     29  C   UNL     1      31.617  43.380  57.760  0.00  0.00    +0.013 A 
BRANCH  18  19
ATOM     19  C   UNL     1      32.457  41.890  61.241  0.00  0.00    +0.119 C 
BRANCH  19  20
ATOM     20  N   UNL     1      31.689  40.925  62.084  0.00  0.00    -0.302 NA
ATOM     21  C   UNL     1      32.610  39.960  62.836  0.00  0.00    +0.066 C 
ATOM     22  C   UNL     1      31.791  38.973  63.730  0.00  0.00    -0.064 C 
ATOM     23  N   UNL     1      30.797  38.204  62.858  0.00  0.00    +0.379 N 
ATOM     24  C   UNL     1      30.066  37.234  63.686  0.00  0.00    -0.096 C 
ATOM     25  H   UNL     1      31.382  37.631  62.102  0.00  0.00    -0.082 HD
ATOM     26  C   UNL     1      29.879  39.157  62.105  0.00  0.00    -0.064 C 
ATOM     27  C   UNL     1      30.704  40.153  61.243  0.00  0.00    +0.066 C 
ENDBRANCH  19  20
ENDBRANCH  18  19
ENDBRANCH  14  15
ENDBRANCH  12  13
TORSDOF 6
ENDMDL
MODEL 3
REMARK VINA RESULT:      -8.5     15.504     21.862
REMARK  Name = C:\Users\Docking\Desktop\test protocol\1iep_ligandH.pdb
REMARK  8 active torsions:
REMARK  status: ('A' for Active; 'I' for Inactive)
REMARK    1  A    between atoms: _5  and  _11
REMARK    2  A    between atoms: _19  and  _21
REMARK    3  A    between atoms: _22  and  _66
REMARK    4  A    between atoms: _27  and  _30
REMARK    5  A    between atoms: _32  and  _33
REMARK    6  A    between atoms: _38  and  _43
REMARK    7  A    between atoms: _43  and  _46
REMARK    8  A    between atoms: _53  and  _55
REMARK                            x       y       z     vdW  Elec       q    Type
REMARK                         _______ _______ _______ _____ _____    ______ ____
ROOT
ATOM     10  C   UNL     1       9.038  14.957  52.391  0.00  0.00    +0.038 A 
ATOM     11  C   UNL     1       9.071  14.493  53.731  0.00  0.00    +0.047 A 
ATOM     12  C   UNL     1      10.331  14.198  54.394  0.00  0.00    +0.035 A 
ATOM     32  C   UNL     1      11.540  14.391  53.663  0.00  0.00    +0.024 A 
ATOM     33  C   UNL     1      11.525  14.861  52.301  0.00  0.00    +0.007 A 
ATOM     34  C   UNL     1      10.284  15.151  51.640  0.00  0.00    -0.029 A 
ATOM     35  C   UNL     1      10.327  15.646  50.176  0.00  0.00    +0.045 C 
ENDROOT
BRANCH  10   9
ATOM      4  C   UNL     1       4.997  13.558  50.211  0.00  0.00    +0.077 A 
ATOM      5  C   UNL     1       5.399  12.181  50.219  0.00  0.00    +0.048 A 
ATOM      6  C   UNL     1       6.656  11.876  50.787  0.00  0.00    +0.116 A 
ATOM      7  N   UNL     1       7.444  12.881  51.306  0.00  0.00    -0.223 NA
ATOM      8  C   UNL     1       7.027  14.199  51.280  0.00  0.00    +0.220 A 
ATOM      9  N   UNL     1       7.799  15.225  51.803  0.00  0.00    -0.283 N 
ATOM     36  H   UNL     1       7.459  16.185  51.758  0.00  0.00    +0.155 HD
ATOM     37  N   UNL     1       5.831  14.517  50.742  0.00  0.00    -0.214 NA
BRANCH   4   3
ATOM      1  C   UNL     1       2.179  15.842  48.747  0.00  0.00    +0.020 A 
ATOM      2  C   UNL     1       3.454  15.430  49.286  0.00  0.00    +0.013 A 
ATOM      3  C   UNL     1       3.695  14.039  49.648  0.00  0.00    +0.019 A 
ATOM     38  C   UNL     1       2.617  13.082  49.449  0.00  0.00    +0.120 A 
ATOM     39  N   UNL     1       1.399  13.509  48.929  0.00  0.00    -0.263 NA
ATOM     40  C   UNL     1       1.155  14.845  48.579  0.00  0.00    +0.111 A 
ENDBRANCH   4   3
ENDBRANCH  10   9
BRANCH  12  13
ATOM     13  N   UNL     1      10.427  13.717  55.750  0.00  0.00    -0.281 N 
ATOM     14  C   UNL     1      10.512  12.404  56.183  0.00  0.00    +0.248 C 
ATOM     30  O   UNL     1      10.304  11.428  55.477  0.00  0.00    -0.270 OA
ATOM     31  H   UNL     1      10.432  14.430  56.478  0.00  0.00    +0.155 HD
BRANCH  14  15
ATOM     15  C   UNL     1      10.867  12.136  57.610  0.00  0.00    +0.037 A 
ATOM     16  C   UNL     1      10.020  11.293  58.458  0.00  0.00    +0.013 A 
ATOM     17  C   UNL     1      10.376  11.064  59.836  0.00  0.00    +0.005 A 
ATOM     18  C   UNL     1      11.587  11.680  60.374  0.00  0.00    -0.033 A 
ATOM     28  C   UNL     1      12.412  12.507  59.509  0.00  0.00    +0.005 A 
ATOM     29  C   UNL     1      12.065  12.734  58.158  0.00  0.00    +0.013 A 
BRANCH  18  19
ATOM     19  C   UNL     1      12.033  11.508  61.838  0.00  0.00    +0.119 C 
BRANCH  19  20
ATOM     20  N   UNL     1      13.282  10.727  62.086  0.00  0.00    -0.302 NA
ATOM     21  C   UNL     1      13.056   9.220  61.937  0.00  0.00    +0.066 C 
ATOM     22  C   UNL     1      14.378   8.420  62.177  0.00  0.00    -0.064 C 
ATOM     23  N   UNL     1      14.926   8.751  63.566  0.00  0.00    +0.379 N 
ATOM     24  C   UNL     1      16.138   7.957  63.818  0.00  0.00    -0.096 C 
ATOM     25  H   UNL     1      14.159   8.444  64.314  0.00  0.00    -0.082 HD
ATOM     26  C   UNL     1      15.151  10.249  63.724  0.00  0.00    -0.064 C 
ATOM     27  C   UNL     1      13.838  11.036  63.454  0.00  0.00    +0.066 C 
ENDBRANCH  19  20
ENDBRANCH  18  19
ENDBRANCH  14  15
ENDBRANCH  12  13
TORSDOF 6
ENDMDL
MODEL 4
REMARK VINA RESULT:      -8.4     23.081     27.445
REMARK  Name = C:\Users\Docking\Desktop\test protocol\1iep_ligandH.pdb
REMARK  8 active torsions:
REMARK  status: ('A' for Active; 'I' for Inactive)
REMARK    1  A    between atoms: _5  and  _11
REMARK    2  A    between atoms: _19  and  _21
REMARK    3  A    between atoms: _22  and  _66
REMARK    4  A    between atoms: _27  and  _30
REMARK    5  A    between atoms: _32  and  _33
REMARK    6  A    between atoms: _38  and  _43
REMARK    7  A    between atoms: _43  and  _46
REMARK    8  A    between atoms: _53  and  _55
REMARK                            x       y       z     vdW  Elec       q    Type
REMARK                         _______ _______ _______ _____ _____    ______ ____
ROOT
ATOM     10  C   UNL     1      26.737  44.566  53.483  0.00  0.00    +0.038 A 
ATOM     11  C   UNL     1      27.575  44.019  54.488  0.00  0.00    +0.047 A 
ATOM     12  C   UNL     1      28.808  44.681  54.883  0.00  0.00    +0.035 A 
ATOM     32  C   UNL     1      29.158  45.901  54.233  0.00  0.00    +0.024 A 
ATOM     33  C   UNL     1      28.320  46.471  53.209  0.00  0.00    +0.007 A 
ATOM     34  C   UNL     1      27.102  45.821  52.814  0.00  0.00    -0.029 A 
ATOM     35  C   UNL     1      26.245  46.474  51.704  0.00  0.00    +0.045 C 
ENDROOT
BRANCH  10   9
ATOM      4  C   UNL     1      22.033  43.746  53.966  0.00  0.00    +0.077 A 
ATOM      5  C   UNL     1      21.908  44.732  55.001  0.00  0.00    +0.048 A 
ATOM      6  C   UNL     1      23.079  45.422  55.385  0.00  0.00    +0.116 A 
ATOM      7  N   UNL     1      24.281  45.141  54.772  0.00  0.00    -0.223 NA
ATOM      8  C   UNL     1      24.367  44.183  53.779  0.00  0.00    +0.220 A 
ATOM      9  N   UNL     1      25.564  43.889  53.143  0.00  0.00    -0.283 N 
ATOM     36  H   UNL     1      25.588  43.171  52.420  0.00  0.00    +0.155 HD
ATOM     37  N   UNL     1      23.263  43.508  53.395  0.00  0.00    -0.214 NA
BRANCH   4   3
ATOM      1  C   UNL     1      19.854  41.301  51.828  0.00  0.00    +0.020 A 
ATOM      2  C   UNL     1      20.993  42.063  52.286  0.00  0.00    +0.013 A 
ATOM      3  C   UNL     1      20.886  42.935  53.449  0.00  0.00    +0.019 A 
ATOM     38  C   UNL     1      19.603  43.013  54.132  0.00  0.00    +0.120 A 
ATOM     39  N   UNL     1      18.524  42.269  53.667  0.00  0.00    -0.263 NA
ATOM     40  C   UNL     1      18.614  41.427  52.548  0.00  0.00    +0.111 A 
ENDBRANCH   4   3
ENDBRANCH  10   9
BRANCH  12  13
ATOM     13  N   UNL     1      29.702  44.168  55.891  0.00  0.00    -0.281 N 
ATOM     14  C   UNL     1      29.844  44.597  57.201  0.00  0.00    +0.248 C 
ATOM     30  O   UNL     1      29.371  45.633  57.644  0.00  0.00    -0.270 OA
ATOM     31  H   UNL     1      30.304  43.396  55.605  0.00  0.00    +0.155 HD
BRANCH  14  15
ATOM     15  C   UNL     1      30.637  43.761  58.153  0.00  0.00    +0.037 A 
ATOM     16  C   UNL     1      31.939  43.207  57.773  0.00  0.00    +0.013 A 
ATOM     17  C   UNL     1      32.676  42.389  58.704  0.00  0.00    +0.005 A 
ATOM     18  C   UNL     1      32.112  42.122  60.025  0.00  0.00    -0.033 A 
ATOM     28  C   UNL     1      30.821  42.689  60.377  0.00  0.00    +0.005 A 
ATOM     29  C   UNL     1      30.095  43.489  59.467  0.00  0.00    +0.013 A 
BRANCH  18  19
ATOM     19  C   UNL     1      32.819  41.244  61.075  0.00  0.00    +0.119 C 
BRANCH  19  20
ATOM     20  N   UNL     1      34.312  41.221  61.054  0.00  0.00    -0.302 NA
ATOM     21  C   UNL     1      34.877  39.948  61.690  0.00  0.00    +0.066 C 
ATOM     22  C   UNL     1      36.439  39.931  61.639  0.00  0.00    -0.064 C 
ATOM     23  N   UNL     1      36.983  41.175  62.344  0.00  0.00    +0.379 N 
ATOM     24  C   UNL     1      38.453  41.133  62.349  0.00  0.00    -0.096 C 
ATOM     25  H   UNL     1      36.640  41.141  63.404  0.00  0.00    -0.082 HD
ATOM     26  C   UNL     1      36.425  42.446  61.719  0.00  0.00    -0.064 C 
ATOM     27  C   UNL     1      34.871  42.439  61.748  0.00  0.00    +0.066 C 
ENDBRANCH  19  20
ENDBRANCH  18  19
ENDBRANCH  14  15
ENDBRANCH  12  13
TORSDOF 6
ENDMDL
MODEL 5
REMARK VINA RESULT:      -8.4     19.029     22.306
REMARK  Name = C:\Users\Docking\Desktop\test protocol\1iep_ligandH.pdb
REMARK  8 active torsions:
REMARK  status: ('A' for Active; 'I' for Inactive)
REMARK    1  A    between atoms: _5  and  _11
REMARK    2  A    between atoms: _19  and  _21
REMARK    3  A    between atoms: _22  and  _66
REMARK    4  A    between atoms: _27  and  _30
REMARK    5  A    between atoms: _32  and  _33
REMARK    6  A    between atoms: _38  and  _43
REMARK    7  A    between atoms: _43  and  _46
REMARK    8  A    between atoms: _53  and  _55
REMARK                            x       y       z     vdW  Elec       q    Type
REMARK                         _______ _______ _______ _____ _____    ______ ____
ROOT
ATOM     10  C   UNL     1      21.972  27.890  41.724  0.00  0.00    +0.038 A 
ATOM     11  C   UNL     1      23.168  27.419  42.324  0.00  0.00    +0.047 A 
ATOM     12  C   UNL     1      23.646  26.066  42.089  0.00  0.00    +0.035 A 
ATOM     32  C   UNL     1      22.882  25.219  41.234  0.00  0.00    +0.024 A 
ATOM     33  C   UNL     1      21.664  25.680  40.616  0.00  0.00    +0.007 A 
ATOM     34  C   UNL     1      21.186  27.014  40.847  0.00  0.00    -0.029 A 
ATOM     35  C   UNL     1      19.870  27.453  40.163  0.00  0.00    +0.045 C 
ENDROOT
BRANCH  10   9
ATOM      4  C   UNL     1      21.925  32.588  40.741  0.00  0.00    +0.077 A 
ATOM      5  C   UNL     1      22.819  32.425  39.631  0.00  0.00    +0.048 A 
ATOM      6  C   UNL     1      23.274  31.116  39.351  0.00  0.00    +0.116 A 
ATOM      7  N   UNL     1      22.858  30.058  40.129  0.00  0.00    -0.223 NA
ATOM      8  C   UNL     1      21.997  30.250  41.193  0.00  0.00    +0.220 A 
ATOM      9  N   UNL     1      21.560  29.199  41.984  0.00  0.00    -0.283 N 
ATOM     36  H   UNL     1      20.930  29.383  42.765  0.00  0.00    +0.155 HD
ATOM     37  N   UNL     1      21.550  31.490  41.482  0.00  0.00    -0.214 NA
BRANCH   4   3
ATOM      1  C   UNL     1      21.194  35.875  42.731  0.00  0.00    +0.020 A 
ATOM      2  C   UNL     1      21.775  34.602  42.371  0.00  0.00    +0.013 A 
ATOM      3  C   UNL     1      21.356  33.907  41.161  0.00  0.00    +0.019 A 
ATOM     38  C   UNL     1      20.339  34.533  40.329  0.00  0.00    +0.120 A 
ATOM     39  N   UNL     1      19.796  35.759  40.702  0.00  0.00    -0.263 NA
ATOM     40  C   UNL     1      20.191  36.436  41.865  0.00  0.00    +0.111 A 
ENDBRANCH   4   3
ENDBRANCH  10   9
BRANCH  12  13
ATOM     13  N   UNL     1      24.848  25.530  42.677  0.00  0.00    -0.281 N 
ATOM     14  C   UNL     1      26.108  25.443  42.109  0.00  0.00    +0.248 C 
ATOM     30  O   UNL     1      26.346  25.619  40.924  0.00  0.00    -0.270 OA
ATOM     31  H   UNL     1      24.759  25.171  43.628  0.00  0.00    +0.155 HD
BRANCH  14  15
ATOM     15  C   UNL     1      27.271  25.095  42.982  0.00  0.00    +0.037 A 
ATOM     16  C   UNL     1      27.936  26.111  43.802  0.00  0.00    +0.013 A 
ATOM     17  C   UNL     1      29.066  25.753  44.622  0.00  0.00    +0.005 A 
ATOM     18  C   UNL     1      29.538  24.371  44.626  0.00  0.00    -0.033 A 
ATOM     28  C   UNL     1      28.857  23.382  43.807  0.00  0.00    +0.005 A 
ATOM     29  C   UNL     1      27.749  23.729  43.002  0.00  0.00    +0.013 A 
BRANCH  18  19
ATOM     19  C   UNL     1      30.749  23.903  45.455  0.00  0.00    +0.119 C 
BRANCH  19  20
ATOM     20  N   UNL     1      30.806  22.458  45.828  0.00  0.00    -0.302 NA
ATOM     21  C   UNL     1      30.981  22.262  47.337  0.00  0.00    +0.066 C 
ATOM     22  C   UNL     1      31.015  20.745  47.713  0.00  0.00    -0.064 C 
ATOM     23  N   UNL     1      32.143  20.056  46.942  0.00  0.00    +0.379 N 
ATOM     24  C   UNL     1      32.215  18.642  47.337  0.00  0.00    -0.096 C 
ATOM     25  H   UNL     1      33.102  20.541  47.242  0.00  0.00    -0.082 HD
ATOM     26  C   UNL     1      31.978  20.249  45.441  0.00  0.00    -0.064 C 
ATOM     27  C   UNL     1      31.916  21.760  45.082  0.00  0.00    +0.066 C 
ENDBRANCH  19  20
ENDBRANCH  18  19
ENDBRANCH  14  15
ENDBRANCH  12  13
TORSDOF 6
ENDMDL
