MODEL 1
REMARK VINA RESULT:      -8.1      0.000      0.000
REMARK  Name = C:\Users\Docking\Desktop\test protocol\1iep_ligandH.pdb
REMARK  8 active torsions:
REMARK  status: ('A' for Active; 'I' for Inactive)
REMARK    1  A    between atoms: _5  and  _11
REMARK    2  A    between atoms: _19  and  _21
REMARK    3  A    between atoms: _22  and  _66
REMARK    4  A    between atoms: _27  and  _30
REMARK    5  A    between atoms: _32  and  _33
REMARK    6  A    between atoms: _38  and  _43
REMARK    7  A    between atoms: _43  and  _46
REMARK    8  A    between atoms: _53  and  _55
REMARK                            x       y       z     vdW  Elec       q    Type
REMARK                         _______ _______ _______ _____ _____    ______ ____
ROOT
ATOM     10  C   UNL     1      15.858 -15.358 -16.142  0.00  0.00    +0.038 A 
ATOM     11  C   UNL     1      16.568 -14.678 -15.119  0.00  0.00    +0.047 A 
ATOM     12  C   UNL     1      17.747 -13.882 -15.423  0.00  0.00    +0.035 A 
ATOM     32  C   UNL     1      18.174 -13.798 -16.781  0.00  0.00    +0.024 A 
ATOM     33  C   UNL     1      17.465 -14.485 -17.832  0.00  0.00    +0.007 A 
ATOM     34  C   UNL     1      16.303 -15.273 -17.538  0.00  0.00    -0.029 A 
ATOM     35  C   UNL     1      15.587 -15.993 -18.705  0.00  0.00    +0.045 C 
ENDROOT
BRANCH  10   9
ATOM      4  C   UNL     1      13.722 -19.500 -14.993  0.00  0.00    +0.077 A 
ATOM      5  C   UNL     1      14.947 -20.236 -15.123  0.00  0.00    +0.048 A 
ATOM      6  C   UNL     1      16.102 -19.513 -15.495  0.00  0.00    +0.116 A 
ATOM      7  N   UNL     1      16.027 -18.155 -15.716  0.00  0.00    -0.223 NA
ATOM      8  C   UNL     1      14.830 -17.476 -15.583  0.00  0.00    +0.220 A 
ATOM      9  N   UNL     1      14.733 -16.109 -15.793  0.00  0.00    -0.283 N 
ATOM     36  H   UNL     1      13.830 -15.646 -15.692  0.00  0.00    +0.155 HD
ATOM     37  N   UNL     1      13.712 -18.144 -15.231  0.00  0.00    -0.214 NA
BRANCH   4   3
ATOM      1  C   UNL     1      10.996 -22.089 -13.911  0.00  0.00    +0.020 A 
ATOM      2  C   UNL     1      12.279 -21.537 -14.282  0.00  0.00    +0.013 A 
ATOM      3  C   UNL     1      12.417 -20.123 -14.603  0.00  0.00    +0.019 A 
ATOM     38  C   UNL     1      11.228 -19.286 -14.539  0.00  0.00    +0.120 A 
ATOM     39  N   UNL     1      10.006 -19.845 -14.181  0.00  0.00    -0.263 NA
ATOM     40  C   UNL     1       9.860 -21.205 -13.871  0.00  0.00    +0.111 A 
ENDBRANCH   4   3
ENDBRANCH  10   9
BRANCH  12  13
ATOM     13  N   UNL     1      18.512 -13.175 -14.426  0.00  0.00    -0.281 N 
ATOM     14  C   UNL     1      19.378 -13.705 -13.484  0.00  0.00    +0.248 C 
ATOM     30  O   UNL     1      19.463 -14.894 -13.215  0.00  0.00    -0.270 OA
ATOM     31  H   UNL     1      18.402 -12.161 -14.413  0.00  0.00    +0.155 HD
BRANCH  14  15
ATOM     15  C   UNL     1      20.268 -12.779 -12.719  0.00  0.00    +0.037 A 
ATOM     16  C   UNL     1      19.806 -12.120 -11.495  0.00  0.00    +0.013 A 
ATOM     17  C   UNL     1      20.679 -11.218 -10.786  0.00  0.00    +0.005 A 
ATOM     18  C   UNL     1      22.024 -10.971 -11.300  0.00  0.00    -0.033 A 
ATOM     28  C   UNL     1      22.458 -11.643 -12.514  0.00  0.00    +0.005 A 
ATOM     29  C   UNL     1      21.605 -12.527 -13.212  0.00  0.00    +0.013 A 
BRANCH  18  19
ATOM     19  C   UNL     1      23.016 -10.008 -10.621  0.00  0.00    +0.119 C 
BRANCH  19  20
ATOM     20  N   UNL     1      23.010  -8.587 -11.078  0.00  0.00    -0.302 NA
ATOM     21  C   UNL     1      21.600  -7.991 -11.086  0.00  0.00    +0.066 C 
ATOM     22  C   UNL     1      21.615  -6.497 -11.545  0.00  0.00    -0.064 C 
ATOM     23  N   UNL     1      22.253  -6.399 -12.932  0.00  0.00    +0.379 N 
ATOM     24  C   UNL     1      22.217  -5.003 -13.392  0.00  0.00    -0.096 C 
ATOM     25  H   UNL     1      21.630  -7.002 -13.633  0.00  0.00    -0.082 HD
ATOM     26  C   UNL     1      23.655  -6.991 -12.934  0.00  0.00    -0.064 C 
ATOM     27  C   UNL     1      23.632  -8.468 -12.448  0.00  0.00    +0.066 C 
ENDBRANCH  19  20
ENDBRANCH  18  19
ENDBRANCH  14  15
ENDBRANCH  12  13
TORSDOF 6
ENDMDL
MODEL 2
REMARK VINA RESULT:      -7.9      7.438     12.539
REMARK  Name = C:\Users\Docking\Desktop\test protocol\1iep_ligandH.pdb
REMARK  8 active torsions:
REMARK  status: ('A' for Active; 'I' for Inactive)
REMARK    1  A    between atoms: _5  and  _11
REMARK    2  A    between atoms: _19  and  _21
REMARK    3  A    between atoms: _22  and  _66
REMARK    4  A    between atoms: _27  and  _30
REMARK    5  A    between atoms: _32  and  _33
REMARK    6  A    between atoms: _38  and  _43
REMARK    7  A    between atoms: _43  and  _46
REMARK    8  A    between atoms: _53  and  _55
REMARK                            x       y       z     vdW  Elec       q    Type
REMARK                         _______ _______ _______ _____ _____    ______ ____
ROOT
ATOM     10  C   UNL     1      21.963 -14.226 -12.270  0.00  0.00    +0.038 A 
ATOM     11  C   UNL     1      22.371 -14.836 -11.056  0.00  0.00    +0.047 A 
ATOM     12  C   UNL     1      22.311 -16.279 -10.882  0.00  0.00    +0.035 A 
ATOM     32  C   UNL     1      21.833 -17.071 -11.966  0.00  0.00    +0.024 A 
ATOM     33  C   UNL     1      21.413 -16.467 -13.206  0.00  0.00    +0.007 A 
ATOM     34  C   UNL     1      21.467 -15.044 -13.383  0.00  0.00    -0.029 A 
ATOM     35  C   UNL     1      20.997 -14.451 -14.731  0.00  0.00    +0.045 C 
ENDROOT
BRANCH  10   9
ATOM      4  C   UNL     1      24.233 -10.208 -13.587  0.00  0.00    +0.077 A 
ATOM      5  C   UNL     1      25.370 -10.938 -14.068  0.00  0.00    +0.048 A 
ATOM      6  C   UNL     1      25.335 -12.345 -13.951  0.00  0.00    +0.116 A 
ATOM      7  N   UNL     1      24.238 -12.966 -13.394  0.00  0.00    -0.223 NA
ATOM      8  C   UNL     1      23.158 -12.232 -12.939  0.00  0.00    +0.220 A 
ATOM      9  N   UNL     1      22.041 -12.836 -12.382  0.00  0.00    -0.283 N 
ATOM     36  H   UNL     1      21.268 -12.259 -12.051  0.00  0.00    +0.155 HD
ATOM     37  N   UNL     1      23.168 -10.887 -13.038  0.00  0.00    -0.214 NA
BRANCH   4   3
ATOM      1  C   UNL     1      24.576  -6.478 -14.716  0.00  0.00    +0.020 A 
ATOM      2  C   UNL     1      24.715  -7.916 -14.707  0.00  0.00    +0.013 A 
ATOM      3  C   UNL     1      24.120  -8.716 -13.644  0.00  0.00    +0.019 A 
ATOM     38  C   UNL     1      23.383  -8.024 -12.597  0.00  0.00    +0.120 A 
ATOM     39  N   UNL     1      23.267  -6.638 -12.630  0.00  0.00    -0.263 NA
ATOM     40  C   UNL     1      23.837  -5.858 -13.647  0.00  0.00    +0.111 A 
ENDBRANCH   4   3
ENDBRANCH  10   9
BRANCH  12  13
ATOM     13  N   UNL     1      22.705 -16.954  -9.670  0.00  0.00    -0.281 N 
ATOM     14  C   UNL     1      23.598 -18.004  -9.532  0.00  0.00    +0.248 C 
ATOM     30  O   UNL     1      24.035 -18.667 -10.461  0.00  0.00    -0.270 OA
ATOM     31  H   UNL     1      22.273 -16.617  -8.810  0.00  0.00    +0.155 HD
BRANCH  14  15
ATOM     15  C   UNL     1      24.061 -18.383  -8.162  0.00  0.00    +0.037 A 
ATOM     16  C   UNL     1      23.156 -18.327  -7.011  0.00  0.00    +0.013 A 
ATOM     17  C   UNL     1      23.633 -18.681  -5.698  0.00  0.00    +0.005 A 
ATOM     18  C   UNL     1      25.023 -19.096  -5.529  0.00  0.00    -0.033 A 
ATOM     28  C   UNL     1      25.898 -19.147  -6.688  0.00  0.00    +0.005 A 
ATOM     29  C   UNL     1      25.434 -18.800  -7.977  0.00  0.00    +0.013 A 
BRANCH  18  19
ATOM     19  C   UNL     1      25.623 -19.471  -4.161  0.00  0.00    +0.119 C 
BRANCH  19  20
ATOM     20  N   UNL     1      25.653 -18.408  -3.113  0.00  0.00    -0.302 NA
ATOM     21  C   UNL     1      26.533 -17.223  -3.521  0.00  0.00    +0.066 C 
ATOM     22  C   UNL     1      26.534 -16.110  -2.422  0.00  0.00    -0.064 C 
ATOM     23  N   UNL     1      27.010 -16.707  -1.097  0.00  0.00    +0.379 N 
ATOM     24  C   UNL     1      27.068 -15.650  -0.076  0.00  0.00    -0.096 C 
ATOM     25  H   UNL     1      28.047 -17.086  -1.250  0.00  0.00    -0.082 HD
ATOM     26  C   UNL     1      26.142 -17.887  -0.685  0.00  0.00    -0.064 C 
ATOM     27  C   UNL     1      26.124 -18.974  -1.796  0.00  0.00    +0.066 C 
ENDBRANCH  19  20
ENDBRANCH  18  19
ENDBRANCH  14  15
ENDBRANCH  12  13
TORSDOF 6
ENDMDL
MODEL 3
REMARK VINA RESULT:      -7.9      7.512     11.487
REMARK  Name = C:\Users\Docking\Desktop\test protocol\1iep_ligandH.pdb
REMARK  8 active torsions:
REMARK  status: ('A' for Active; 'I' for Inactive)
REMARK    1  A    between atoms: _5  and  _11
REMARK    2  A    between atoms: _19  and  _21
REMARK    3  A    between atoms: _22  and  _66
REMARK    4  A    between atoms: _27  and  _30
REMARK    5  A    between atoms: _32  and  _33
REMARK    6  A    between atoms: _38  and  _43
REMARK    7  A    between atoms: _43  and  _46
REMARK    8  A    between atoms: _53  and  _55
REMARK                            x       y       z     vdW  Elec       q    Type
REMARK                         _______ _______ _______ _____ _____    ______ ____
ROOT
ATOM     10  C   UNL     1      23.261  -9.671 -13.393  0.00  0.00    +0.038 A 
ATOM     11  C   UNL     1      24.095 -10.698 -13.904  0.00  0.00    +0.047 A 
ATOM     12  C   UNL     1      25.292 -10.385 -14.670  0.00  0.00    +0.035 A 
ATOM     32  C   UNL     1      25.610  -9.014 -14.895  0.00  0.00    +0.024 A 
ATOM     33  C   UNL     1      24.773  -7.957 -14.384  0.00  0.00    +0.007 A 
ATOM     34  C   UNL     1      23.590  -8.260 -13.630  0.00  0.00    -0.029 A 
ATOM     35  C   UNL     1      22.726  -7.087 -13.112  0.00  0.00    +0.045 C 
ENDROOT
BRANCH  10   9
ATOM      4  C   UNL     1      21.064 -12.170  -9.934  0.00  0.00    +0.077 A 
ATOM      5  C   UNL     1      22.278 -12.840  -9.566  0.00  0.00    +0.048 A 
ATOM      6  C   UNL     1      23.444 -12.518 -10.296  0.00  0.00    +0.116 A 
ATOM      7  N   UNL     1      23.389 -11.594 -11.316  0.00  0.00    -0.223 NA
ATOM      8  C   UNL     1      22.202 -10.967 -11.647  0.00  0.00    +0.220 A 
ATOM      9  N   UNL     1      22.125 -10.028 -12.665  0.00  0.00    -0.283 N 
ATOM     36  H   UNL     1      21.229  -9.594 -12.883  0.00  0.00    +0.155 HD
ATOM     37  N   UNL     1      21.074 -11.258 -10.966  0.00  0.00    -0.214 NA
BRANCH   4   3
ATOM      1  C   UNL     1      18.300 -13.490  -7.502  0.00  0.00    +0.020 A 
ATOM      2  C   UNL     1      19.591 -13.304  -8.122  0.00  0.00    +0.013 A 
ATOM      3  C   UNL     1      19.750 -12.401  -9.255  0.00  0.00    +0.019 A 
ATOM     38  C   UNL     1      18.573 -11.695  -9.739  0.00  0.00    +0.120 A 
ATOM     39  N   UNL     1      17.342 -11.896  -9.123  0.00  0.00    -0.263 NA
ATOM     40  C   UNL     1      17.177 -12.764  -8.033  0.00  0.00    +0.111 A 
ENDBRANCH   4   3
ENDBRANCH  10   9
BRANCH  12  13
ATOM     13  N   UNL     1      26.172 -11.386 -15.220  0.00  0.00    -0.281 N 
ATOM     14  C   UNL     1      26.628 -12.545 -14.614  0.00  0.00    +0.248 C 
ATOM     30  O   UNL     1      26.516 -12.792 -13.422  0.00  0.00    -0.270 OA
ATOM     31  H   UNL     1      26.499 -11.219 -16.172  0.00  0.00    +0.155 HD
BRANCH  14  15
ATOM     15  C   UNL     1      27.320 -13.573 -15.450  0.00  0.00    +0.037 A 
ATOM     16  C   UNL     1      26.564 -14.496 -16.299  0.00  0.00    +0.013 A 
ATOM     17  C   UNL     1      27.255 -15.489 -17.083  0.00  0.00    +0.005 A 
ATOM     18  C   UNL     1      28.713 -15.562 -17.021  0.00  0.00    -0.033 A 
ATOM     28  C   UNL     1      29.439 -14.630 -16.174  0.00  0.00    +0.005 A 
ATOM     29  C   UNL     1      28.764 -13.656 -15.404  0.00  0.00    +0.013 A 
BRANCH  18  19
ATOM     19  C   UNL     1      29.532 -16.604 -17.807  0.00  0.00    +0.119 C 
BRANCH  19  20
ATOM     20  N   UNL     1      30.562 -16.088 -18.757  0.00  0.00    -0.302 NA
ATOM     21  C   UNL     1      30.642 -16.932 -20.032  0.00  0.00    +0.066 C 
ATOM     22  C   UNL     1      31.708 -16.365 -21.025  0.00  0.00    -0.064 C 
ATOM     23  N   UNL     1      33.069 -16.307 -20.328  0.00  0.00    +0.379 N 
ATOM     24  C   UNL     1      34.085 -15.829 -21.277  0.00  0.00    -0.096 C 
ATOM     25  H   UNL     1      33.343 -17.347 -20.034  0.00  0.00    -0.082 HD
ATOM     26  C   UNL     1      32.998 -15.471 -19.058  0.00  0.00    -0.064 C 
ATOM     27  C   UNL     1      31.915 -16.026 -18.091  0.00  0.00    +0.066 C 
ENDBRANCH  19  20
ENDBRANCH  18  19
ENDBRANCH  14  15
ENDBRANCH  12  13
TORSDOF 6
ENDMDL
MODEL 4
REMARK VINA RESULT:      -7.9     28.449     31.246
REMARK  Name = C:\Users\Docking\Desktop\test protocol\1iep_ligandH.pdb
REMARK  8 active torsions:
REMARK  status: ('A' for Active; 'I' for Inactive)
REMARK    1  A    between atoms: _5  and  _11
REMARK    2  A    between atoms: _19  and  _21
REMARK    3  A    between atoms: _22  and  _66
REMARK    4  A    between atoms: _27  and  _30
REMARK    5  A    between atoms: _32  and  _33
REMARK    6  A    between atoms: _38  and  _43
REMARK    7  A    between atoms: _43  and  _46
REMARK    8  A    between atoms: _53  and  _55
REMARK                            x       y       z     vdW  Elec       q    Type
REMARK                         _______ _______ _______ _____ _____    ______ ____
ROOT
ATOM     10  C   UNL     1       5.629   2.620 -35.716  0.00  0.00    +0.038 A 
ATOM     11  C   UNL     1       6.688   3.545 -35.529  0.00  0.00    +0.047 A 
ATOM     12  C   UNL     1       6.429   4.973 -35.418  0.00  0.00    +0.035 A 
ATOM     32  C   UNL     1       5.080   5.423 -35.499  0.00  0.00    +0.024 A 
ATOM     33  C   UNL     1       3.991   4.497 -35.691  0.00  0.00    +0.007 A 
ATOM     34  C   UNL     1       4.241   3.088 -35.804  0.00  0.00    -0.029 A 
ATOM     35  C   UNL     1       3.036   2.142 -36.015  0.00  0.00    +0.045 C 
ENDROOT
BRANCH  10   9
ATOM      4  C   UNL     1       6.542  -1.335 -38.277  0.00  0.00    +0.077 A 
ATOM      5  C   UNL     1       6.369  -0.641 -39.521  0.00  0.00    +0.048 A 
ATOM      6  C   UNL     1       6.039   0.731 -39.458  0.00  0.00    +0.116 A 
ATOM      7  N   UNL     1       5.895   1.353 -38.236  0.00  0.00    -0.223 NA
ATOM      8  C   UNL     1       6.067   0.654 -37.056  0.00  0.00    +0.220 A 
ATOM      9  N   UNL     1       5.935   1.261 -35.816  0.00  0.00    -0.283 N 
ATOM     36  H   UNL     1       6.062   0.709 -34.968  0.00  0.00    +0.155 HD
ATOM     37  N   UNL     1       6.381  -0.658 -37.089  0.00  0.00    -0.214 NA
BRANCH   4   3
ATOM      1  C   UNL     1       8.558  -4.680 -38.064  0.00  0.00    +0.020 A 
ATOM      2  C   UNL     1       8.271  -3.268 -38.161  0.00  0.00    +0.013 A 
ATOM      3  C   UNL     1       6.895  -2.787 -38.179  0.00  0.00    +0.019 A 
ATOM     38  C   UNL     1       5.825  -3.769 -38.096  0.00  0.00    +0.120 A 
ATOM     39  N   UNL     1       6.132  -5.123 -38.005  0.00  0.00    -0.263 NA
ATOM     40  C   UNL     1       7.452  -5.598 -37.989  0.00  0.00    +0.111 A 
ENDBRANCH   4   3
ENDBRANCH  10   9
BRANCH  12  13
ATOM     13  N   UNL     1       7.464   5.960 -35.235  0.00  0.00    -0.281 N 
ATOM     14  C   UNL     1       7.642   7.146 -35.927  0.00  0.00    +0.248 C 
ATOM     30  O   UNL     1       7.057   7.438 -36.960  0.00  0.00    -0.270 OA
ATOM     31  H   UNL     1       8.150   5.759 -34.506  0.00  0.00    +0.155 HD
BRANCH  14  15
ATOM     15  C   UNL     1       8.621   8.147 -35.406  0.00  0.00    +0.037 A 
ATOM     16  C   UNL     1       9.938   7.736 -34.911  0.00  0.00    +0.013 A 
ATOM     17  C   UNL     1      10.857   8.720 -34.397  0.00  0.00    +0.005 A 
ATOM     18  C   UNL     1      10.463  10.127 -34.377  0.00  0.00    -0.033 A 
ATOM     28  C   UNL     1       9.153  10.508 -34.879  0.00  0.00    +0.005 A 
ATOM     29  C   UNL     1       8.249   9.546 -35.382  0.00  0.00    +0.013 A 
BRANCH  18  19
ATOM     19  C   UNL     1      11.372  11.242 -33.827  0.00  0.00    +0.119 C 
BRANCH  19  20
ATOM     20  N   UNL     1      11.026  12.648 -34.194  0.00  0.00    -0.302 NA
ATOM     21  C   UNL     1      12.259  13.451 -34.619  0.00  0.00    +0.066 C 
ATOM     22  C   UNL     1      11.876  14.913 -35.020  0.00  0.00    -0.064 C 
ATOM     23  N   UNL     1      11.167  15.591 -33.847  0.00  0.00    +0.379 N 
ATOM     24  C   UNL     1      10.857  16.984 -34.201  0.00  0.00    -0.096 C 
ATOM     25  H   UNL     1      11.877  15.610 -32.988  0.00  0.00    -0.082 HD
ATOM     26  C   UNL     1       9.941  14.798 -33.416  0.00  0.00    -0.064 C 
ATOM     27  C   UNL     1      10.328  13.339 -33.048  0.00  0.00    +0.066 C 
ENDBRANCH  19  20
ENDBRANCH  18  19
ENDBRANCH  14  15
ENDBRANCH  12  13
TORSDOF 6
ENDMDL
MODEL 5
REMARK VINA RESULT:      -7.8      2.504     13.034
REMARK  Name = C:\Users\Docking\Desktop\test protocol\1iep_ligandH.pdb
REMARK  8 active torsions:
REMARK  status: ('A' for Active; 'I' for Inactive)
REMARK    1  A    between atoms: _5  and  _11
REMARK    2  A    between atoms: _19  and  _21
REMARK    3  A    between atoms: _22  and  _66
REMARK    4  A    between atoms: _27  and  _30
REMARK    5  A    between atoms: _32  and  _33
REMARK    6  A    between atoms: _38  and  _43
REMARK    7  A    between atoms: _43  and  _46
REMARK    8  A    between atoms: _53  and  _55
REMARK                            x       y       z     vdW  Elec       q    Type
REMARK                         _______ _______ _______ _____ _____    ______ ____
ROOT
ATOM     10  C   UNL     1      21.664 -13.137 -14.511  0.00  0.00    +0.038 A 
ATOM     11  C   UNL     1      20.352 -13.467 -14.084  0.00  0.00    +0.047 A 
ATOM     12  C   UNL     1      19.925 -14.853 -13.965  0.00  0.00    +0.035 A 
ATOM     32  C   UNL     1      20.862 -15.878 -14.288  0.00  0.00    +0.024 A 
ATOM     33  C   UNL     1      22.199 -15.561 -14.724  0.00  0.00    +0.007 A 
ATOM     34  C   UNL     1      22.624 -14.196 -14.846  0.00  0.00    -0.029 A 
ATOM     35  C   UNL     1      24.068 -13.914 -15.325  0.00  0.00    +0.045 C 
ENDROOT
BRANCH  10   9
ATOM      4  C   UNL     1      23.231  -9.027 -12.592  0.00  0.00    +0.077 A 
ATOM      5  C   UNL     1      23.322  -9.604 -11.282  0.00  0.00    +0.048 A 
ATOM      6  C   UNL     1      22.950 -10.960 -11.143  0.00  0.00    +0.116 A 
ATOM      7  N   UNL     1      22.520 -11.676 -12.240  0.00  0.00    -0.223 NA
ATOM      8  C   UNL     1      22.442 -11.088 -13.489  0.00  0.00    +0.220 A 
ATOM      9  N   UNL     1      22.020 -11.790 -14.607  0.00  0.00    -0.283 N 
ATOM     36  H   UNL     1      21.970 -11.318 -15.510  0.00  0.00    +0.155 HD
ATOM     37  N   UNL     1      22.791  -9.794 -13.647  0.00  0.00    -0.214 NA
BRANCH   4   3
ATOM      1  C   UNL     1      24.428  -5.797 -14.445  0.00  0.00    +0.020 A 
ATOM      2  C   UNL     1      24.094  -7.181 -14.200  0.00  0.00    +0.013 A 
ATOM      3  C   UNL     1      23.592  -7.607 -12.899  0.00  0.00    +0.019 A 
ATOM     38  C   UNL     1      23.439  -6.599 -11.860  0.00  0.00    +0.120 A 
ATOM     39  N   UNL     1      23.770  -5.274 -12.125  0.00  0.00    -0.263 NA
ATOM     40  C   UNL     1      24.255  -4.853 -13.372  0.00  0.00    +0.111 A 
ENDBRANCH   4   3
ENDBRANCH  10   9
BRANCH  12  13
ATOM     13  N   UNL     1      18.604 -15.248 -13.545  0.00  0.00    -0.281 N 
ATOM     14  C   UNL     1      17.500 -15.509 -14.339  0.00  0.00    +0.248 C 
ATOM     30  O   UNL     1      17.423 -15.234 -15.528  0.00  0.00    -0.270 OA
ATOM     31  H   UNL     1      18.466 -15.347 -12.539  0.00  0.00    +0.155 HD
BRANCH  14  15
ATOM     15  C   UNL     1      16.303 -16.157 -13.722  0.00  0.00    +0.037 A 
ATOM     16  C   UNL     1      15.375 -16.960 -14.523  0.00  0.00    +0.013 A 
ATOM     17  C   UNL     1      14.219 -17.560 -13.906  0.00  0.00    +0.005 A 
ATOM     18  C   UNL     1      13.985 -17.360 -12.477  0.00  0.00    -0.033 A 
ATOM     28  C   UNL     1      14.924 -16.563 -11.705  0.00  0.00    +0.005 A 
ATOM     29  C   UNL     1      16.058 -15.973 -12.307  0.00  0.00    +0.013 A 
BRANCH  18  19
ATOM     19  C   UNL     1      12.766 -17.945 -11.740  0.00  0.00    +0.119 C 
BRANCH  19  20
ATOM     20  N   UNL     1      11.734 -18.638 -12.567  0.00  0.00    -0.302 NA
ATOM     21  C   UNL     1      10.516 -17.748 -12.831  0.00  0.00    +0.066 C 
ATOM     22  C   UNL     1       9.457 -18.481 -13.717  0.00  0.00    -0.064 C 
ATOM     23  N   UNL     1       9.038 -19.784 -13.033  0.00  0.00    +0.379 N 
ATOM     24  C   UNL     1       7.999 -20.447 -13.835  0.00  0.00    -0.096 C 
ATOM     25  H   UNL     1       8.587 -19.519 -12.048  0.00  0.00    -0.082 HD
ATOM     26  C   UNL     1      10.243 -20.674 -12.764  0.00  0.00    -0.064 C 
ATOM     27  C   UNL     1      11.303 -19.925 -11.908  0.00  0.00    +0.066 C 
ENDBRANCH  19  20
ENDBRANCH  18  19
ENDBRANCH  14  15
ENDBRANCH  12  13
TORSDOF 6
ENDMDL
