MODEL 1
REMARK VINA RESULT:      -9.7      0.000      0.000
REMARK  Name = C:\Users\Docking\Desktop\test protocol\1iep_ligandH.pdb
REMARK  8 active torsions:
REMARK  status: ('A' for Active; 'I' for Inactive)
REMARK    1  A    between atoms: _5  and  _11
REMARK    2  A    between atoms: _19  and  _21
REMARK    3  A    between atoms: _22  and  _66
REMARK    4  A    between atoms: _27  and  _30
REMARK    5  A    between atoms: _32  and  _33
REMARK    6  A    between atoms: _38  and  _43
REMARK    7  A    between atoms: _43  and  _46
REMARK    8  A    between atoms: _53  and  _55
REMARK                            x       y       z     vdW  Elec       q    Type
REMARK                         _______ _______ _______ _____ _____    ______ ____
ROOT
ATOM     10  C   UNL     1      23.744  -8.055 -13.187  0.00  0.00    +0.038 A 
ATOM     11  C   UNL     1      22.679  -7.479 -12.447  0.00  0.00    +0.047 A 
ATOM     12  C   UNL     1      22.059  -6.232 -12.867  0.00  0.00    +0.035 A 
ATOM     32  C   UNL     1      22.547  -5.599 -14.047  0.00  0.00    +0.024 A 
ATOM     33  C   UNL     1      23.629  -6.169 -14.810  0.00  0.00    +0.007 A 
ATOM     34  C   UNL     1      24.246  -7.398 -14.399  0.00  0.00    -0.029 A 
ATOM     35  C   UNL     1      25.407  -7.960 -15.253  0.00  0.00    +0.045 C 
ENDROOT
BRANCH  10   9
ATOM      4  C   UNL     1      24.052 -12.844 -13.194  0.00  0.00    +0.077 A 
ATOM      5  C   UNL     1      22.993 -12.970 -14.153  0.00  0.00    +0.048 A 
ATOM      6  C   UNL     1      22.390 -11.778 -14.614  0.00  0.00    +0.116 A 
ATOM      7  N   UNL     1      22.823 -10.557 -14.144  0.00  0.00    -0.223 NA
ATOM      8  C   UNL     1      23.846 -10.471 -13.218  0.00  0.00    +0.220 A 
ATOM      9  N   UNL     1      24.302  -9.254 -12.738  0.00  0.00    -0.283 N 
ATOM     36  H   UNL     1      25.054  -9.233 -12.049  0.00  0.00    +0.155 HD
ATOM     37  N   UNL     1      24.437 -11.595 -12.761  0.00  0.00    -0.214 NA
BRANCH   4   3
ATOM      1  C   UNL     1      25.811 -15.278 -10.687  0.00  0.00    +0.020 A 
ATOM      2  C   UNL     1      25.096 -14.130 -11.195  0.00  0.00    +0.013 A 
ATOM      3  C   UNL     1      24.790 -14.011 -12.615  0.00  0.00    +0.019 A 
ATOM     38  C   UNL     1      25.223 -15.081 -13.501  0.00  0.00    +0.120 A 
ATOM     39  N   UNL     1      25.911 -16.174 -12.983  0.00  0.00    -0.263 NA
ATOM     40  C   UNL     1      26.213 -16.298 -11.618  0.00  0.00    +0.111 A 
ENDBRANCH   4   3
ENDBRANCH  10   9
BRANCH  12  13
ATOM     13  N   UNL     1      20.981  -5.596 -12.152  0.00  0.00    -0.281 N 
ATOM     14  C   UNL     1      20.592  -5.801 -10.838  0.00  0.00    +0.248 C 
ATOM     30  O   UNL     1      20.982  -6.724 -10.138  0.00  0.00    -0.270 OA
ATOM     31  H   UNL     1      20.437  -4.912 -12.678  0.00  0.00    +0.155 HD
BRANCH  14  15
ATOM     15  C   UNL     1      19.619  -4.852 -10.216  0.00  0.00    +0.037 A 
ATOM     16  C   UNL     1      19.004  -3.775 -10.996  0.00  0.00    +0.013 A 
ATOM     17  C   UNL     1      18.081  -2.863 -10.368  0.00  0.00    +0.005 A 
ATOM     18  C   UNL     1      17.767  -3.026  -8.950  0.00  0.00    -0.033 A 
ATOM     28  C   UNL     1      18.388  -4.106  -8.201  0.00  0.00    +0.005 A 
ATOM     29  C   UNL     1      19.293  -5.001  -8.814  0.00  0.00    +0.013 A 
BRANCH  18  19
ATOM     19  C   UNL     1      16.811  -2.087  -8.192  0.00  0.00    +0.119 C 
BRANCH  19  20
ATOM     20  N   UNL     1      15.706  -1.458  -8.976  0.00  0.00    -0.302 NA
ATOM     21  C   UNL     1      15.796   0.071  -8.970  0.00  0.00    +0.066 C 
ATOM     22  C   UNL     1      14.646   0.712  -9.814  0.00  0.00    -0.064 C 
ATOM     23  N   UNL     1      13.295   0.246  -9.267  0.00  0.00    +0.379 N 
ATOM     24  C   UNL     1      12.211   0.892 -10.021  0.00  0.00    -0.096 C 
ATOM     25  H   UNL     1      13.223   0.589  -8.209  0.00  0.00    -0.082 HD
ATOM     26  C   UNL     1      13.199  -1.273  -9.267  0.00  0.00    -0.064 C 
ATOM     27  C   UNL     1      14.363  -1.901  -8.451  0.00  0.00    +0.066 C 
ENDBRANCH  19  20
ENDBRANCH  18  19
ENDBRANCH  14  15
ENDBRANCH  12  13
TORSDOF 6
ENDMDL
MODEL 2
REMARK VINA RESULT:      -9.1     12.234     19.738
REMARK  Name = C:\Users\Docking\Desktop\test protocol\1iep_ligandH.pdb
REMARK  8 active torsions:
REMARK  status: ('A' for Active; 'I' for Inactive)
REMARK    1  A    between atoms: _5  and  _11
REMARK    2  A    between atoms: _19  and  _21
REMARK    3  A    between atoms: _22  and  _66
REMARK    4  A    between atoms: _27  and  _30
REMARK    5  A    between atoms: _32  and  _33
REMARK    6  A    between atoms: _38  and  _43
REMARK    7  A    between atoms: _43  and  _46
REMARK    8  A    between atoms: _53  and  _55
REMARK                            x       y       z     vdW  Elec       q    Type
REMARK                         _______ _______ _______ _____ _____    ______ ____
ROOT
ATOM     10  C   UNL     1       7.377   3.667 -12.550  0.00  0.00    +0.038 A 
ATOM     11  C   UNL     1       7.689   4.668 -13.505  0.00  0.00    +0.047 A 
ATOM     12  C   UNL     1       6.689   5.632 -13.939  0.00  0.00    +0.035 A 
ATOM     32  C   UNL     1       5.382   5.548 -13.376  0.00  0.00    +0.024 A 
ATOM     33  C   UNL     1       5.048   4.536 -12.405  0.00  0.00    +0.007 A 
ATOM     34  C   UNL     1       6.029   3.581 -11.976  0.00  0.00    -0.029 A 
ATOM     35  C   UNL     1       5.614   2.514 -10.937  0.00  0.00    +0.045 C 
ENDROOT
BRANCH  10   9
ATOM      4  C   UNL     1      11.550   2.629 -10.417  0.00  0.00    +0.077 A 
ATOM      5  C   UNL     1      11.772   3.998 -10.052  0.00  0.00    +0.048 A 
ATOM      6  C   UNL     1      10.791   4.940 -10.438  0.00  0.00    +0.116 A 
ATOM      7  N   UNL     1       9.676   4.531 -11.137  0.00  0.00    -0.223 NA
ATOM      8  C   UNL     1       9.494   3.202 -11.475  0.00  0.00    +0.220 A 
ATOM      9  N   UNL     1       8.376   2.768 -12.170  0.00  0.00    -0.283 N 
ATOM     36  H   UNL     1       8.282   1.780 -12.407  0.00  0.00    +0.155 HD
ATOM     37  N   UNL     1      10.416   2.284 -11.118  0.00  0.00    -0.214 NA
BRANCH   4   3
ATOM      1  C   UNL     1      13.082  -0.927  -9.860  0.00  0.00    +0.020 A 
ATOM      2  C   UNL     1      12.134   0.109 -10.200  0.00  0.00    +0.013 A 
ATOM      3  C   UNL     1      12.492   1.516 -10.077  0.00  0.00    +0.019 A 
ATOM     38  C   UNL     1      13.829   1.844  -9.604  0.00  0.00    +0.120 A 
ATOM     39  N   UNL     1      14.720   0.826  -9.282  0.00  0.00    -0.263 NA
ATOM     40  C   UNL     1      14.386  -0.532  -9.395  0.00  0.00    +0.111 A 
ENDBRANCH   4   3
ENDBRANCH  10   9
BRANCH  12  13
ATOM     13  N   UNL     1       6.944   6.665 -14.911  0.00  0.00    -0.281 N 
ATOM     14  C   UNL     1       6.900   6.565 -16.292  0.00  0.00    +0.248 C 
ATOM     30  O   UNL     1       6.843   5.510 -16.907  0.00  0.00    -0.270 OA
ATOM     31  H   UNL     1       7.187   7.582 -14.536  0.00  0.00    +0.155 HD
BRANCH  14  15
ATOM     15  C   UNL     1       6.941   7.816 -17.108  0.00  0.00    +0.037 A 
ATOM     16  C   UNL     1       6.789   7.778 -18.565  0.00  0.00    +0.013 A 
ATOM     17  C   UNL     1       6.849   8.998 -19.331  0.00  0.00    +0.005 A 
ATOM     18  C   UNL     1       7.061  10.268 -18.639  0.00  0.00    -0.033 A 
ATOM     28  C   UNL     1       7.204  10.277 -17.193  0.00  0.00    +0.005 A 
ATOM     29  C   UNL     1       7.146   9.083 -16.439  0.00  0.00    +0.013 A 
BRANCH  18  19
ATOM     19  C   UNL     1       7.160  11.616 -19.378  0.00  0.00    +0.119 C 
BRANCH  19  20
ATOM     20  N   UNL     1       8.154  12.605 -18.865  0.00  0.00    -0.302 NA
ATOM     21  C   UNL     1       7.513  13.965 -18.573  0.00  0.00    +0.066 C 
ATOM     22  C   UNL     1       8.563  14.981 -18.016  0.00  0.00    -0.064 C 
ATOM     23  N   UNL     1       9.710  15.126 -19.018  0.00  0.00    +0.379 N 
ATOM     24  C   UNL     1      10.670  16.124 -18.524  0.00  0.00    -0.096 C 
ATOM     25  H   UNL     1       9.279  15.513 -19.971  0.00  0.00    -0.082 HD
ATOM     26  C   UNL     1      10.351  13.778 -19.316  0.00  0.00    -0.064 C 
ATOM     27  C   UNL     1       9.293  12.767 -19.841  0.00  0.00    +0.066 C 
ENDBRANCH  19  20
ENDBRANCH  18  19
ENDBRANCH  14  15
ENDBRANCH  12  13
TORSDOF 6
ENDMDL
MODEL 3
REMARK VINA RESULT:      -8.8      8.910     12.707
REMARK  Name = C:\Users\Docking\Desktop\test protocol\1iep_ligandH.pdb
REMARK  8 active torsions:
REMARK  status: ('A' for Active; 'I' for Inactive)
REMARK    1  A    between atoms: _5  and  _11
REMARK    2  A    between atoms: _19  and  _21
REMARK    3  A    between atoms: _22  and  _66
REMARK    4  A    between atoms: _27  and  _30
REMARK    5  A    between atoms: _32  and  _33
REMARK    6  A    between atoms: _38  and  _43
REMARK    7  A    between atoms: _43  and  _46
REMARK    8  A    between atoms: _53  and  _55
REMARK                            x       y       z     vdW  Elec       q    Type
REMARK                         _______ _______ _______ _____ _____    ______ ____
ROOT
ATOM     10  C   UNL     1      15.624 -16.438 -17.203  0.00  0.00    +0.038 A 
ATOM     11  C   UNL     1      16.467 -15.687 -16.344  0.00  0.00    +0.047 A 
ATOM     12  C   UNL     1      17.798 -15.278 -16.765  0.00  0.00    +0.035 A 
ATOM     32  C   UNL     1      18.237 -15.648 -18.070  0.00  0.00    +0.024 A 
ATOM     33  C   UNL     1      17.394 -16.412 -18.955  0.00  0.00    +0.007 A 
ATOM     34  C   UNL     1      16.081 -16.821 -18.544  0.00  0.00    -0.029 A 
ATOM     35  C   UNL     1      15.223 -17.644 -19.533  0.00  0.00    +0.045 C 
ENDROOT
BRANCH  10   9
ATOM      4  C   UNL     1      12.683 -19.306 -14.720  0.00  0.00    +0.077 A 
ATOM      5  C   UNL     1      13.762 -20.163 -14.319  0.00  0.00    +0.048 A 
ATOM      6  C   UNL     1      15.057 -19.835 -14.779  0.00  0.00    +0.116 A 
ATOM      7  N   UNL     1      15.248 -18.729 -15.580  0.00  0.00    -0.223 NA
ATOM      8  C   UNL     1      14.186 -17.925 -15.949  0.00  0.00    +0.220 A 
ATOM      9  N   UNL     1      14.355 -16.804 -16.747  0.00  0.00    -0.283 N 
ATOM     36  H   UNL     1      13.545 -16.240 -17.004  0.00  0.00    +0.155 HD
ATOM     37  N   UNL     1      12.939 -18.218 -15.525  0.00  0.00    -0.214 NA
BRANCH   4   3
ATOM      1  C   UNL     1       9.060 -18.721 -13.368  0.00  0.00    +0.020 A 
ATOM      2  C   UNL     1      10.431 -18.463 -13.745  0.00  0.00    +0.013 A 
ATOM      3  C   UNL     1      11.259 -19.519 -14.313  0.00  0.00    +0.019 A 
ATOM     38  C   UNL     1      10.664 -20.836 -14.490  0.00  0.00    +0.120 A 
ATOM     39  N   UNL     1       9.342 -21.055 -14.117  0.00  0.00    -0.263 NA
ATOM     40  C   UNL     1       8.536 -20.047 -13.567  0.00  0.00    +0.111 A 
ENDBRANCH   4   3
ENDBRANCH  10   9
BRANCH  12  13
ATOM     13  N   UNL     1      18.701 -14.522 -15.934  0.00  0.00    -0.281 N 
ATOM     14  C   UNL     1      19.756 -14.997 -15.171  0.00  0.00    +0.248 C 
ATOM     30  O   UNL     1      19.951 -16.177 -14.920  0.00  0.00    -0.270 OA
ATOM     31  H   UNL     1      18.544 -13.515 -15.903  0.00  0.00    +0.155 HD
BRANCH  14  15
ATOM     15  C   UNL     1      20.726 -14.018 -14.593  0.00  0.00    +0.037 A 
ATOM     16  C   UNL     1      21.972 -13.682 -15.287  0.00  0.00    +0.013 A 
ATOM     17  C   UNL     1      22.898 -12.747 -14.699  0.00  0.00    +0.005 A 
ATOM     18  C   UNL     1      22.582 -12.142 -13.408  0.00  0.00    -0.033 A 
ATOM     28  C   UNL     1      21.337 -12.490 -12.743  0.00  0.00    +0.005 A 
ATOM     29  C   UNL     1      20.427 -13.406 -13.316  0.00  0.00    +0.013 A 
BRANCH  18  19
ATOM     19  C   UNL     1      23.522 -11.151 -12.696  0.00  0.00    +0.119 C 
BRANCH  19  20
ATOM     20  N   UNL     1      23.097  -9.720 -12.646  0.00  0.00    -0.302 NA
ATOM     21  C   UNL     1      24.072  -8.805 -13.393  0.00  0.00    +0.066 C 
ATOM     22  C   UNL     1      23.600  -7.315 -13.350  0.00  0.00    -0.064 C 
ATOM     23  N   UNL     1      23.449  -6.873 -11.894  0.00  0.00    +0.379 N 
ATOM     24  C   UNL     1      23.062  -5.455 -11.850  0.00  0.00    -0.096 C 
ATOM     25  H   UNL     1      24.448  -6.966 -11.407  0.00  0.00    -0.082 HD
ATOM     26  C   UNL     1      22.483  -7.779 -11.144  0.00  0.00    -0.064 C 
ATOM     27  C   UNL     1      22.946  -9.261 -11.217  0.00  0.00    +0.066 C 
ENDBRANCH  19  20
ENDBRANCH  18  19
ENDBRANCH  14  15
ENDBRANCH  12  13
TORSDOF 6
ENDMDL
MODEL 4
REMARK VINA RESULT:      -8.8     12.748     20.553
REMARK  Name = C:\Users\Docking\Desktop\test protocol\1iep_ligandH.pdb
REMARK  8 active torsions:
REMARK  status: ('A' for Active; 'I' for Inactive)
REMARK    1  A    between atoms: _5  and  _11
REMARK    2  A    between atoms: _19  and  _21
REMARK    3  A    between atoms: _22  and  _66
REMARK    4  A    between atoms: _27  and  _30
REMARK    5  A    between atoms: _32  and  _33
REMARK    6  A    between atoms: _38  and  _43
REMARK    7  A    between atoms: _43  and  _46
REMARK    8  A    between atoms: _53  and  _55
REMARK                            x       y       z     vdW  Elec       q    Type
REMARK                         _______ _______ _______ _____ _____    ______ ____
ROOT
ATOM     10  C   UNL     1       7.885   6.026 -10.363  0.00  0.00    +0.038 A 
ATOM     11  C   UNL     1       7.860   6.817 -11.540  0.00  0.00    +0.047 A 
ATOM     12  C   UNL     1       6.642   7.486 -11.970  0.00  0.00    +0.035 A 
ATOM     32  C   UNL     1       5.468   7.330 -11.177  0.00  0.00    +0.024 A 
ATOM     33  C   UNL     1       5.476   6.529  -9.978  0.00  0.00    +0.007 A 
ATOM     34  C   UNL     1       6.674   5.864  -9.550  0.00  0.00    -0.029 A 
ATOM     35  C   UNL     1       6.622   5.013  -8.260  0.00  0.00    +0.045 C 
ENDROOT
BRANCH  10   9
ATOM      4  C   UNL     1      11.108   2.489 -10.739  0.00  0.00    +0.077 A 
ATOM      5  C   UNL     1      10.330   1.805 -11.731  0.00  0.00    +0.048 A 
ATOM      6  C   UNL     1       9.103   2.393 -12.112  0.00  0.00    +0.116 A 
ATOM      7  N   UNL     1       8.695   3.577 -11.537  0.00  0.00    -0.223 NA
ATOM      8  C   UNL     1       9.469   4.210 -10.581  0.00  0.00    +0.220 A 
ATOM      9  N   UNL     1       9.081   5.406  -9.996  0.00  0.00    -0.283 N 
ATOM     36  H   UNL     1       9.677   5.837  -9.289  0.00  0.00    +0.155 HD
ATOM     37  N   UNL     1      10.644   3.668 -10.200  0.00  0.00    -0.214 NA
BRANCH   4   3
ATOM      1  C   UNL     1      14.711   2.354  -9.222  0.00  0.00    +0.020 A 
ATOM      2  C   UNL     1      13.453   2.882  -9.696  0.00  0.00    +0.013 A 
ATOM      3  C   UNL     1      12.429   1.996 -10.235  0.00  0.00    +0.019 A 
ATOM     38  C   UNL     1      12.712   0.569 -10.280  0.00  0.00    +0.120 A 
ATOM     39  N   UNL     1      13.934   0.090  -9.818  0.00  0.00    -0.263 NA
ATOM     40  C   UNL     1      14.927   0.933  -9.298  0.00  0.00    +0.111 A 
ENDBRANCH   4   3
ENDBRANCH  10   9
BRANCH  12  13
ATOM     13  N   UNL     1       6.554   8.296 -13.160  0.00  0.00    -0.281 N 
ATOM     14  C   UNL     1       7.204   9.489 -13.428  0.00  0.00    +0.248 C 
ATOM     30  O   UNL     1       7.798  10.155 -12.594  0.00  0.00    -0.270 OA
ATOM     31  H   UNL     1       5.938   7.946 -13.894  0.00  0.00    +0.155 HD
BRANCH  14  15
ATOM     15  C   UNL     1       7.177  10.029 -14.822  0.00  0.00    +0.037 A 
ATOM     16  C   UNL     1       6.811  11.422 -15.091  0.00  0.00    +0.013 A 
ATOM     17  C   UNL     1       6.776  11.912 -16.446  0.00  0.00    +0.005 A 
ATOM     18  C   UNL     1       7.111  11.008 -17.543  0.00  0.00    -0.033 A 
ATOM     28  C   UNL     1       7.476   9.632 -17.248  0.00  0.00    +0.005 A 
ATOM     29  C   UNL     1       7.510   9.148 -15.921  0.00  0.00    +0.013 A 
BRANCH  18  19
ATOM     19  C   UNL     1       7.080  11.440 -19.021  0.00  0.00    +0.119 C 
BRANCH  19  20
ATOM     20  N   UNL     1       6.804  12.879 -19.308  0.00  0.00    -0.302 NA
ATOM     21  C   UNL     1       6.013  13.065 -20.605  0.00  0.00    +0.066 C 
ATOM     22  C   UNL     1       5.713  14.575 -20.878  0.00  0.00    -0.064 C 
ATOM     23  N   UNL     1       7.030  15.352 -20.931  0.00  0.00    +0.379 N 
ATOM     24  C   UNL     1       6.756  16.762 -21.244  0.00  0.00    -0.096 C 
ATOM     25  H   UNL     1       7.637  14.931 -21.766  0.00  0.00    -0.082 HD
ATOM     26  C   UNL     1       7.825  15.170 -19.645  0.00  0.00    -0.064 C 
ATOM     27  C   UNL     1       8.091  13.664 -19.369  0.00  0.00    +0.066 C 
ENDBRANCH  19  20
ENDBRANCH  18  19
ENDBRANCH  14  15
ENDBRANCH  12  13
TORSDOF 6
ENDMDL
MODEL 5
REMARK VINA RESULT:      -8.6      7.135      9.705
REMARK  Name = C:\Users\Docking\Desktop\test protocol\1iep_ligandH.pdb
REMARK  8 active torsions:
REMARK  status: ('A' for Active; 'I' for Inactive)
REMARK    1  A    between atoms: _5  and  _11
REMARK    2  A    between atoms: _19  and  _21
REMARK    3  A    between atoms: _22  and  _66
REMARK    4  A    between atoms: _27  and  _30
REMARK    5  A    between atoms: _32  and  _33
REMARK    6  A    between atoms: _38  and  _43
REMARK    7  A    between atoms: _43  and  _46
REMARK    8  A    between atoms: _53  and  _55
REMARK                            x       y       z     vdW  Elec       q    Type
REMARK                         _______ _______ _______ _____ _____    ______ ____
ROOT
ATOM     10  C   UNL     1      22.406 -12.667 -10.922  0.00  0.00    +0.038 A 
ATOM     11  C   UNL     1      21.347 -12.647  -9.978  0.00  0.00    +0.047 A 
ATOM     12  C   UNL     1      21.269 -13.636  -8.914  0.00  0.00    +0.035 A 
ATOM     32  C   UNL     1      22.288 -14.629  -8.839  0.00  0.00    +0.024 A 
ATOM     33  C   UNL     1      23.370 -14.665  -9.791  0.00  0.00    +0.007 A 
ATOM     34  C   UNL     1      23.451 -13.694 -10.844  0.00  0.00    -0.029 A 
ATOM     35  C   UNL     1      24.631 -13.784 -11.840  0.00  0.00    +0.045 C 
ENDROOT
BRANCH  10   9
ATOM      4  C   UNL     1      23.131  -8.170 -12.435  0.00  0.00    +0.077 A 
ATOM      5  C   UNL     1      23.461  -7.716 -11.114  0.00  0.00    +0.048 A 
ATOM      6  C   UNL     1      23.425  -8.670 -10.073  0.00  0.00    +0.116 A 
ATOM      7  N   UNL     1      23.084  -9.977 -10.343  0.00  0.00    -0.223 NA
ATOM      8  C   UNL     1      22.770 -10.381 -11.627  0.00  0.00    +0.220 A 
ATOM      9  N   UNL     1      22.432 -11.693 -11.923  0.00  0.00    -0.283 N 
ATOM     36  H   UNL     1      22.199 -11.950 -12.882  0.00  0.00    +0.155 HD
ATOM     37  N   UNL     1      22.796  -9.489 -12.639  0.00  0.00    -0.214 NA
BRANCH   4   3
ATOM      1  C   UNL     1      22.583  -5.123 -14.826  0.00  0.00    +0.020 A 
ATOM      2  C   UNL     1      22.560  -5.940 -13.634  0.00  0.00    +0.013 A 
ATOM      3  C   UNL     1      23.128  -7.282 -13.641  0.00  0.00    +0.019 A 
ATOM     38  C   UNL     1      23.716  -7.772 -14.878  0.00  0.00    +0.120 A 
ATOM     39  N   UNL     1      23.722  -6.963 -16.010  0.00  0.00    -0.263 NA
ATOM     40  C   UNL     1      23.178  -5.671 -16.017  0.00  0.00    +0.111 A 
ENDBRANCH   4   3
ENDBRANCH  10   9
BRANCH  12  13
ATOM     13  N   UNL     1      20.213 -13.670  -7.933  0.00  0.00    -0.281 N 
ATOM     14  C   UNL     1      18.927 -13.169  -8.047  0.00  0.00    +0.248 C 
ATOM     30  O   UNL     1      18.553 -12.420  -8.938  0.00  0.00    -0.270 OA
ATOM     31  H   UNL     1      20.442 -14.119  -7.046  0.00  0.00    +0.155 HD
BRANCH  14  15
ATOM     15  C   UNL     1      17.912 -13.540  -7.014  0.00  0.00    +0.037 A 
ATOM     16  C   UNL     1      17.785 -12.783  -5.767  0.00  0.00    +0.013 A 
ATOM     17  C   UNL     1      16.810 -13.173  -4.780  0.00  0.00    +0.005 A 
ATOM     18  C   UNL     1      15.952 -14.327  -5.038  0.00  0.00    -0.033 A 
ATOM     28  C   UNL     1      16.096 -15.058  -6.286  0.00  0.00    +0.005 A 
ATOM     29  C   UNL     1      17.052 -14.679  -7.255  0.00  0.00    +0.013 A 
BRANCH  18  19
ATOM     19  C   UNL     1      14.899 -14.828  -4.032  0.00  0.00    +0.119 C 
BRANCH  19  20
ATOM     20  N   UNL     1      13.572 -14.141  -4.032  0.00  0.00    -0.302 NA
ATOM     21  C   UNL     1      13.074 -13.855  -5.451  0.00  0.00    +0.066 C 
ATOM     22  C   UNL     1      11.675 -13.157  -5.433  0.00  0.00    -0.064 C 
ATOM     23  N   UNL     1      11.764 -11.864  -4.620  0.00  0.00    +0.379 N 
ATOM     24  C   UNL     1      10.465 -11.176  -4.649  0.00  0.00    -0.096 C 
ATOM     25  H   UNL     1      12.510 -11.202  -5.118  0.00  0.00    -0.082 HD
ATOM     26  C   UNL     1      12.262 -12.139  -3.208  0.00  0.00    -0.064 C 
ATOM     27  C   UNL     1      13.639 -12.860  -3.238  0.00  0.00    +0.066 C 
ENDBRANCH  19  20
ENDBRANCH  18  19
ENDBRANCH  14  15
ENDBRANCH  12  13
TORSDOF 6
ENDMDL
