MODEL 1
REMARK VINA RESULT:      -4.4      0.000      0.000
REMARK  6 active torsions:
REMARK  status: ('A' for Active; 'I' for Inactive)
REMARK    1  A    between atoms: S_1  and  C_7 
REMARK    2  A    between atoms: O_2  and  C_8 
REMARK    3  A    between atoms: N_4  and  C_6 
REMARK    4  A    between atoms: C_5  and  C_6 
REMARK    5  A    between atoms: C_5  and  C_7 
REMARK    6  A    between atoms: C_6  and  C_8 
ROOT
HETATM    1  C   UNK     0      12.777  61.153  12.667  0.00  0.00     0.315 C 
ENDROOT
BRANCH   1   2
HETATM    2  N   UNK     0      12.124  62.053  13.624  0.00  0.00     0.093 N 
HETATM    3  H   UNK     0      12.817  62.414  14.279  0.00  0.00     0.314 HD
HETATM    4  H   UNK     0      11.453  61.527  14.182  0.00  0.00     0.314 HD
ENDBRANCH   1   2
BRANCH   1   5
HETATM    5  C   UNK     0      13.610  60.117  13.435  0.00  0.00     0.056 C 
BRANCH   5   6
HETATM    6  C   UNK     0      15.085  60.026  13.034  0.00  0.00     0.076 C 
BRANCH   6   7
HETATM    7  S   UNK     0      15.696  58.317  12.939  0.00  0.00    -0.173 SA
HETATM    8  C   UNK     0      14.149  57.514  12.463  0.00  0.00     0.089 C 
ENDBRANCH   6   7
ENDBRANCH   5   6
ENDBRANCH   1   5
BRANCH   1   9
HETATM    9  C   UNK     0      11.666  60.486  11.876  0.00  0.00     0.173 C 
HETATM   10  O   UNK     0      11.823  59.573  11.075  0.00  0.00    -0.648 OA
BRANCH   9  11
HETATM   11  O   UNK     0      10.443  60.997  12.173  0.00  0.00    -0.775 OA
HETATM   12  H   UNK     0      10.475  61.593  12.951  0.00  0.00     0.167 HD
ENDBRANCH   9  11
ENDBRANCH   1   9
TORSDOF 6
ENDMDL
MODEL 2
REMARK VINA RESULT:      -3.9      4.819      6.229
REMARK  6 active torsions:
REMARK  status: ('A' for Active; 'I' for Inactive)
REMARK    1  A    between atoms: S_1  and  C_7 
REMARK    2  A    between atoms: O_2  and  C_8 
REMARK    3  A    between atoms: N_4  and  C_6 
REMARK    4  A    between atoms: C_5  and  C_6 
REMARK    5  A    between atoms: C_5  and  C_7 
REMARK    6  A    between atoms: C_6  and  C_8 
ROOT
HETATM    1  C   UNK     0      16.646  55.443  12.302  0.00  0.00     0.315 C 
ENDROOT
BRANCH   1   2
HETATM    2  N   UNK     0      17.757  56.371  12.540  0.00  0.00     0.093 N 
HETATM    3  H   UNK     0      17.565  56.925  13.374  0.00  0.00     0.314 HD
HETATM    4  H   UNK     0      17.819  57.033  11.768  0.00  0.00     0.314 HD
ENDBRANCH   1   2
BRANCH   1   5
HETATM    5  C   UNK     0      15.331  56.233  12.241  0.00  0.00     0.056 C 
BRANCH   5   6
HETATM    6  C   UNK     0      15.442  57.726  12.568  0.00  0.00     0.076 C 
BRANCH   6   7
HETATM    7  S   UNK     0      13.867  58.615  12.391  0.00  0.00    -0.173 SA
HETATM    8  C   UNK     0      14.250  60.035  13.440  0.00  0.00     0.089 C 
ENDBRANCH   6   7
ENDBRANCH   5   6
ENDBRANCH   1   5
BRANCH   1   9
HETATM    9  C   UNK     0      16.935  54.757  10.978  0.00  0.00     0.173 C 
HETATM   10  O   UNK     0      17.607  53.742  10.843  0.00  0.00    -0.648 OA
BRANCH   9  11
HETATM   11  O   UNK     0      16.335  55.382   9.932  0.00  0.00    -0.775 OA
HETATM   12  H   UNK     0      16.099  56.310  10.147  0.00  0.00     0.167 HD
ENDBRANCH   9  11
ENDBRANCH   1   9
TORSDOF 6
ENDMDL
MODEL 3
REMARK VINA RESULT:      -3.9      6.286      6.896
REMARK  6 active torsions:
REMARK  status: ('A' for Active; 'I' for Inactive)
REMARK    1  A    between atoms: S_1  and  C_7 
REMARK    2  A    between atoms: O_2  and  C_8 
REMARK    3  A    between atoms: N_4  and  C_6 
REMARK    4  A    between atoms: C_5  and  C_6 
REMARK    5  A    between atoms: C_5  and  C_7 
REMARK    6  A    between atoms: C_6  and  C_8 
ROOT
HETATM    1  C   UNK     0      16.814  55.815  11.496  0.00  0.00     0.315 C 
ENDROOT
BRANCH   1   2
HETATM    2  N   UNK     0      15.515  56.372  11.105  0.00  0.00     0.093 N 
HETATM    3  H   UNK     0      15.252  57.112  11.754  0.00  0.00     0.314 HD
HETATM    4  H   UNK     0      14.797  55.653  11.189  0.00  0.00     0.314 HD
ENDBRANCH   1   2
BRANCH   1   5
HETATM    5  C   UNK     0      16.753  55.373  12.965  0.00  0.00     0.056 C 
BRANCH   5   6
HETATM    6  C   UNK     0      15.353  55.067  13.505  0.00  0.00     0.076 C 
BRANCH   6   7
HETATM    7  S   UNK     0      15.345  53.771  14.779  0.00  0.00    -0.173 SA
HETATM    8  C   UNK     0      16.521  52.638  14.005  0.00  0.00     0.089 C 
ENDBRANCH   6   7
ENDBRANCH   5   6
ENDBRANCH   1   5
BRANCH   1   9
HETATM    9  C   UNK     0      17.070  54.633  10.578  0.00  0.00     0.173 C 
HETATM   10  O   UNK     0      17.670  53.613  10.895  0.00  0.00    -0.648 OA
BRANCH   9  11
HETATM   11  O   UNK     0      16.531  54.812   9.344  0.00  0.00    -0.775 OA
HETATM   12  H   UNK     0      15.991  54.042   9.066  0.00  0.00     0.167 HD
ENDBRANCH   9  11
ENDBRANCH   1   9
TORSDOF 6
ENDMDL
