MODEL 1
REMARK VINA RESULT:      -5.2      0.000      0.000
REMARK  6 active torsions:
REMARK  status: ('A' for Active; 'I' for Inactive)
REMARK    1  A    between atoms: S_1  and  C_7 
REMARK    2  A    between atoms: O_2  and  C_8 
REMARK    3  A    between atoms: N_4  and  C_6 
REMARK    4  A    between atoms: C_5  and  C_6 
REMARK    5  A    between atoms: C_5  and  C_7 
REMARK    6  A    between atoms: C_6  and  C_8 
ROOT
HETATM    1  C   UNK     0      19.163  28.221  16.547  0.00  0.00     0.315 C 
ENDROOT
BRANCH   1   2
HETATM    2  N   UNK     0      18.677  29.360  17.334  0.00  0.00     0.093 N 
HETATM    3  H   UNK     0      18.211  30.025  16.718  0.00  0.00     0.314 HD
HETATM    4  H   UNK     0      19.470  29.856  17.739  0.00  0.00     0.314 HD
ENDBRANCH   1   2
BRANCH   1   5
HETATM    5  C   UNK     0      20.223  28.711  15.550  0.00  0.00     0.056 C 
BRANCH   5   6
HETATM    6  C   UNK     0      20.072  30.163  15.087  0.00  0.00     0.076 C 
BRANCH   6   7
HETATM    7  S   UNK     0      21.316  31.276  15.807  0.00  0.00    -0.173 SA
HETATM    8  C   UNK     0      22.315  30.034  16.658  0.00  0.00     0.089 C 
ENDBRANCH   6   7
ENDBRANCH   5   6
ENDBRANCH   1   5
BRANCH   1   9
HETATM    9  C   UNK     0      19.757  27.235  17.537  0.00  0.00     0.173 C 
HETATM   10  O   UNK     0      19.991  27.476  18.715  0.00  0.00    -0.648 OA
BRANCH   9  11
HETATM   11  O   UNK     0      19.986  26.018  16.979  0.00  0.00    -0.775 OA
HETATM   12  H   UNK     0      19.462  25.887  16.160  0.00  0.00     0.167 HD
ENDBRANCH   9  11
ENDBRANCH   1   9
TORSDOF 6
ENDMDL
MODEL 2
REMARK VINA RESULT:      -4.8      1.792      2.009
REMARK  6 active torsions:
REMARK  status: ('A' for Active; 'I' for Inactive)
REMARK    1  A    between atoms: S_1  and  C_7 
REMARK    2  A    between atoms: O_2  and  C_8 
REMARK    3  A    between atoms: N_4  and  C_6 
REMARK    4  A    between atoms: C_5  and  C_6 
REMARK    5  A    between atoms: C_5  and  C_7 
REMARK    6  A    between atoms: C_6  and  C_8 
ROOT
HETATM    1  C   UNK     0      19.915  27.571  17.256  0.00  0.00     0.315 C 
ENDROOT
BRANCH   1   2
HETATM    2  N   UNK     0      19.979  26.124  17.021  0.00  0.00     0.093 N 
HETATM    3  H   UNK     0      20.928  25.794  17.191  0.00  0.00     0.314 HD
HETATM    4  H   UNK     0      19.784  25.931  16.039  0.00  0.00     0.314 HD
ENDBRANCH   1   2
BRANCH   1   5
HETATM    5  C   UNK     0      19.153  28.238  16.101  0.00  0.00     0.056 C 
BRANCH   5   6
HETATM    6  C   UNK     0      20.021  28.969  15.073  0.00  0.00     0.076 C 
BRANCH   6   7
HETATM    7  S   UNK     0      19.856  30.778  15.156  0.00  0.00    -0.173 SA
HETATM    8  C   UNK     0      21.437  31.147  15.950  0.00  0.00     0.089 C 
ENDBRANCH   6   7
ENDBRANCH   5   6
ENDBRANCH   1   5
BRANCH   1   9
HETATM    9  C   UNK     0      19.187  27.762  18.575  0.00  0.00     0.173 C 
HETATM   10  O   UNK     0      18.133  28.370  18.715  0.00  0.00    -0.648 OA
BRANCH   9  11
HETATM   11  O   UNK     0      19.824  27.151  19.608  0.00  0.00    -0.775 OA
HETATM   12  H   UNK     0      19.679  27.622  20.456  0.00  0.00     0.167 HD
ENDBRANCH   9  11
ENDBRANCH   1   9
TORSDOF 6
ENDMDL
MODEL 3
REMARK VINA RESULT:      -4.8      1.328      1.498
REMARK  6 active torsions:
REMARK  status: ('A' for Active; 'I' for Inactive)
REMARK    1  A    between atoms: S_1  and  C_7 
REMARK    2  A    between atoms: O_2  and  C_8 
REMARK    3  A    between atoms: N_4  and  C_6 
REMARK    4  A    between atoms: C_5  and  C_6 
REMARK    5  A    between atoms: C_5  and  C_7 
REMARK    6  A    between atoms: C_6  and  C_8 
ROOT
HETATM    1  C   UNK     0      19.495  28.322  16.542  0.00  0.00     0.315 C 
ENDROOT
BRANCH   1   2
HETATM    2  N   UNK     0      18.876  29.443  17.258  0.00  0.00     0.093 N 
HETATM    3  H   UNK     0      18.573  29.131  18.180  0.00  0.00     0.314 HD
HETATM    4  H   UNK     0      18.032  29.736  16.767  0.00  0.00     0.314 HD
ENDBRANCH   1   2
BRANCH   1   5
HETATM    5  C   UNK     0      20.808  28.796  15.901  0.00  0.00     0.056 C 
BRANCH   5   6
HETATM    6  C   UNK     0      21.575  29.868  16.682  0.00  0.00     0.076 C 
BRANCH   6   7
HETATM    7  S   UNK     0      23.332  29.464  16.912  0.00  0.00    -0.173 SA
HETATM    8  C   UNK     0      23.261  28.973  18.649  0.00  0.00     0.089 C 
ENDBRANCH   6   7
ENDBRANCH   5   6
ENDBRANCH   1   5
BRANCH   1   9
HETATM    9  C   UNK     0      19.750  27.239  17.574  0.00  0.00     0.173 C 
HETATM   10  O   UNK     0      19.706  27.399  18.788  0.00  0.00    -0.648 OA
BRANCH   9  11
HETATM   11  O   UNK     0      20.012  26.034  17.004  0.00  0.00    -0.775 OA
HETATM   12  H   UNK     0      19.204  25.623  16.629  0.00  0.00     0.167 HD
ENDBRANCH   9  11
ENDBRANCH   1   9
TORSDOF 6
ENDMDL
