MODEL 1
REMARK VINA RESULT:      -4.6      0.000      0.000
REMARK  6 active torsions:
REMARK  status: ('A' for Active; 'I' for Inactive)
REMARK    1  A    between atoms: S_1  and  C_7 
REMARK    2  A    between atoms: O_2  and  C_8 
REMARK    3  A    between atoms: N_4  and  C_6 
REMARK    4  A    between atoms: C_5  and  C_6 
REMARK    5  A    between atoms: C_5  and  C_7 
REMARK    6  A    between atoms: C_6  and  C_8 
ROOT
HETATM    1  C   UNK     0      49.447   0.766  31.816  0.00  0.00     0.315 C 
ENDROOT
BRANCH   1   2
HETATM    2  N   UNK     0      49.630   1.460  33.096  0.00  0.00     0.093 N 
HETATM    3  H   UNK     0      49.030   2.284  33.125  0.00  0.00     0.314 HD
HETATM    4  H   UNK     0      50.587   1.803  33.163  0.00  0.00     0.314 HD
ENDBRANCH   1   2
BRANCH   1   5
HETATM    5  C   UNK     0      49.639  -0.743  32.028  0.00  0.00     0.056 C 
BRANCH   5   6
HETATM    6  C   UNK     0      50.578  -1.434  31.035  0.00  0.00     0.076 C 
BRANCH   6   7
HETATM    7  S   UNK     0      49.701  -2.234  29.659  0.00  0.00    -0.173 SA
HETATM    8  C   UNK     0      51.134  -2.636  28.635  0.00  0.00     0.089 C 
ENDBRANCH   6   7
ENDBRANCH   5   6
ENDBRANCH   1   5
BRANCH   1   9
HETATM    9  C   UNK     0      48.035   1.079  31.354  0.00  0.00     0.173 C 
HETATM   10  O   UNK     0      47.296   0.297  30.771  0.00  0.00    -0.648 OA
BRANCH   9  11
HETATM   11  O   UNK     0      47.653   2.341  31.683  0.00  0.00    -0.775 OA
HETATM   12  H   UNK     0      47.547   2.910  30.891  0.00  0.00     0.167 HD
ENDBRANCH   9  11
ENDBRANCH   1   9
TORSDOF 6
ENDMDL
MODEL 2
REMARK VINA RESULT:      -4.3      1.673      2.266
REMARK  6 active torsions:
REMARK  status: ('A' for Active; 'I' for Inactive)
REMARK    1  A    between atoms: S_1  and  C_7 
REMARK    2  A    between atoms: O_2  and  C_8 
REMARK    3  A    between atoms: N_4  and  C_6 
REMARK    4  A    between atoms: C_5  and  C_6 
REMARK    5  A    between atoms: C_5  and  C_7 
REMARK    6  A    between atoms: C_6  and  C_8 
ROOT
HETATM    1  C   UNK     0      49.512   0.819  31.837  0.00  0.00     0.315 C 
ENDROOT
BRANCH   1   2
HETATM    2  N   UNK     0      49.605   1.526  33.119  0.00  0.00     0.093 N 
HETATM    3  H   UNK     0      50.397   1.165  33.650  0.00  0.00     0.314 HD
HETATM    4  H   UNK     0      48.776   1.328  33.677  0.00  0.00     0.314 HD
ENDBRANCH   1   2
BRANCH   1   5
HETATM    5  C   UNK     0      49.816  -0.670  32.058  0.00  0.00     0.056 C 
BRANCH   5   6
HETATM    6  C   UNK     0      51.022  -1.220  31.291  0.00  0.00     0.076 C 
BRANCH   6   7
HETATM    7  S   UNK     0      52.512  -1.379  32.320  0.00  0.00    -0.173 SA
HETATM    8  C   UNK     0      51.712  -1.361  33.940  0.00  0.00     0.089 C 
ENDBRANCH   6   7
ENDBRANCH   5   6
ENDBRANCH   1   5
BRANCH   1   9
HETATM    9  C   UNK     0      48.093   1.020  31.336  0.00  0.00     0.173 C 
HETATM   10  O   UNK     0      47.429   0.177  30.745  0.00  0.00    -0.648 OA
BRANCH   9  11
HETATM   11  O   UNK     0      47.609   2.253  31.639  0.00  0.00    -0.775 OA
HETATM   12  H   UNK     0      46.630   2.280  31.604  0.00  0.00     0.167 HD
ENDBRANCH   9  11
ENDBRANCH   1   9
TORSDOF 6
ENDMDL
MODEL 3
REMARK VINA RESULT:      -4.3      2.100      2.205
REMARK  6 active torsions:
REMARK  status: ('A' for Active; 'I' for Inactive)
REMARK    1  A    between atoms: S_1  and  C_7 
REMARK    2  A    between atoms: O_2  and  C_8 
REMARK    3  A    between atoms: N_4  and  C_6 
REMARK    4  A    between atoms: C_5  and  C_6 
REMARK    5  A    between atoms: C_5  and  C_7 
REMARK    6  A    between atoms: C_6  and  C_8 
ROOT
HETATM    1  C   UNK     0      48.424  -0.040  31.402  0.00  0.00     0.315 C 
ENDROOT
BRANCH   1   2
HETATM    2  N   UNK     0      47.285   0.881  31.311  0.00  0.00     0.093 N 
HETATM    3  H   UNK     0      46.536   0.444  30.775  0.00  0.00     0.314 HD
HETATM    4  H   UNK     0      47.561   1.711  30.788  0.00  0.00     0.314 HD
ENDBRANCH   1   2
BRANCH   1   5
HETATM    5  C   UNK     0      48.576  -0.789  30.070  0.00  0.00     0.056 C 
BRANCH   5   6
HETATM    6  C   UNK     0      49.088  -2.229  30.177  0.00  0.00     0.076 C 
BRANCH   6   7
HETATM    7  S   UNK     0      50.587  -2.528  29.193  0.00  0.00    -0.173 SA
HETATM    8  C   UNK     0      51.767  -2.673  30.554  0.00  0.00     0.089 C 
ENDBRANCH   6   7
ENDBRANCH   5   6
ENDBRANCH   1   5
BRANCH   1   9
HETATM    9  C   UNK     0      49.646   0.813  31.693  0.00  0.00     0.173 C 
HETATM   10  O   UNK     0      50.737   0.687  31.153  0.00  0.00    -0.648 OA
BRANCH   9  11
HETATM   11  O   UNK     0      49.394   1.774  32.620  0.00  0.00    -0.775 OA
HETATM   12  H   UNK     0      49.318   1.400  33.524  0.00  0.00     0.167 HD
ENDBRANCH   9  11
ENDBRANCH   1   9
TORSDOF 6
ENDMDL
