MODEL 1
REMARK VINA RESULT:      -4.1      0.000      0.000
REMARK  6 active torsions:
REMARK  status: ('A' for Active; 'I' for Inactive)
REMARK    1  A    between atoms: S_1  and  C_7 
REMARK    2  A    between atoms: O_2  and  C_8 
REMARK    3  A    between atoms: N_4  and  C_6 
REMARK    4  A    between atoms: C_5  and  C_6 
REMARK    5  A    between atoms: C_5  and  C_7 
REMARK    6  A    between atoms: C_6  and  C_8 
ROOT
HETATM    1  C   UNK     0     -22.497 -16.104  35.522  0.00  0.00     0.315 C 
ENDROOT
BRANCH   1   2
HETATM    2  N   UNK     0     -22.333 -17.109  34.466  0.00  0.00     0.093 N 
HETATM    3  H   UNK     0     -22.336 -16.650  33.556  0.00  0.00     0.314 HD
HETATM    4  H   UNK     0     -23.134 -17.739  34.469  0.00  0.00     0.314 HD
ENDBRANCH   1   2
BRANCH   1   5
HETATM    5  C   UNK     0     -22.739 -16.813  36.862  0.00  0.00     0.056 C 
BRANCH   5   6
HETATM    6  C   UNK     0     -22.827 -15.899  38.088  0.00  0.00     0.076 C 
BRANCH   6   7
HETATM    7  S   UNK     0     -21.470 -16.155  39.269  0.00  0.00    -0.173 SA
HETATM    8  C   UNK     0     -20.784 -17.666  38.555  0.00  0.00     0.089 C 
ENDBRANCH   6   7
ENDBRANCH   5   6
ENDBRANCH   1   5
BRANCH   1   9
HETATM    9  C   UNK     0     -21.210 -15.298  35.553  0.00  0.00     0.173 C 
HETATM   10  O   UNK     0     -21.145 -14.081  35.675  0.00  0.00    -0.648 OA
BRANCH   9  11
HETATM   11  O   UNK     0     -20.107 -16.085  35.457  0.00  0.00    -0.775 OA
HETATM   12  H   UNK     0     -19.880 -16.284  34.524  0.00  0.00     0.167 HD
ENDBRANCH   9  11
ENDBRANCH   1   9
TORSDOF 6
ENDMDL
MODEL 2
REMARK VINA RESULT:      -4.0      2.097      2.676
REMARK  6 active torsions:
REMARK  status: ('A' for Active; 'I' for Inactive)
REMARK    1  A    between atoms: S_1  and  C_7 
REMARK    2  A    between atoms: O_2  and  C_8 
REMARK    3  A    between atoms: N_4  and  C_6 
REMARK    4  A    between atoms: C_5  and  C_6 
REMARK    5  A    between atoms: C_5  and  C_7 
REMARK    6  A    between atoms: C_6  and  C_8 
ROOT
HETATM    1  C   UNK     0     -21.494 -15.605  35.792  0.00  0.00     0.315 C 
ENDROOT
BRANCH   1   2
HETATM    2  N   UNK     0     -20.122 -16.026  35.486  0.00  0.00     0.093 N 
HETATM    3  H   UNK     0     -19.589 -16.104  36.351  0.00  0.00     0.314 HD
HETATM    4  H   UNK     0     -19.661 -15.305  34.933  0.00  0.00     0.314 HD
ENDBRANCH   1   2
BRANCH   1   5
HETATM    5  C   UNK     0     -21.518 -14.921  37.167  0.00  0.00     0.056 C 
BRANCH   5   6
HETATM    6  C   UNK     0     -22.502 -15.512  38.181  0.00  0.00     0.076 C 
BRANCH   6   7
HETATM    7  S   UNK     0     -23.626 -16.740  37.454  0.00  0.00    -0.173 SA
HETATM    8  C   UNK     0     -25.040 -15.655  37.155  0.00  0.00     0.089 C 
ENDBRANCH   6   7
ENDBRANCH   5   6
ENDBRANCH   1   5
BRANCH   1   9
HETATM    9  C   UNK     0     -21.904 -14.641  34.693  0.00  0.00     0.173 C 
HETATM   10  O   UNK     0     -22.453 -14.960  33.646  0.00  0.00    -0.648 OA
BRANCH   9  11
HETATM   11  O   UNK     0     -21.617 -13.351  35.006  0.00  0.00    -0.775 OA
HETATM   12  H   UNK     0     -20.770 -13.057  34.608  0.00  0.00     0.167 HD
ENDBRANCH   9  11
ENDBRANCH   1   9
TORSDOF 6
ENDMDL
MODEL 3
REMARK VINA RESULT:      -4.0     34.218     35.189
REMARK  6 active torsions:
REMARK  status: ('A' for Active; 'I' for Inactive)
REMARK    1  A    between atoms: S_1  and  C_7 
REMARK    2  A    between atoms: O_2  and  C_8 
REMARK    3  A    between atoms: N_4  and  C_6 
REMARK    4  A    between atoms: C_5  and  C_6 
REMARK    5  A    between atoms: C_5  and  C_7 
REMARK    6  A    between atoms: C_6  and  C_8 
ROOT
HETATM    1  C   UNK     0     -17.767  13.057  16.069  0.00  0.00     0.315 C 
ENDROOT
BRANCH   1   2
HETATM    2  N   UNK     0     -17.234  13.213  17.427  0.00  0.00     0.093 N 
HETATM    3  H   UNK     0     -17.791  12.660  18.077  0.00  0.00     0.314 HD
HETATM    4  H   UNK     0     -17.333  14.183  17.722  0.00  0.00     0.314 HD
ENDBRANCH   1   2
BRANCH   1   5
HETATM    5  C   UNK     0     -17.754  11.570  15.688  0.00  0.00     0.056 C 
BRANCH   5   6
HETATM    6  C   UNK     0     -17.180  10.622  16.746  0.00  0.00     0.076 C 
BRANCH   6   7
HETATM    7  S   UNK     0     -15.943   9.470  16.076  0.00  0.00    -0.173 SA
HETATM    8  C   UNK     0     -16.606   9.321  14.402  0.00  0.00     0.089 C 
ENDBRANCH   6   7
ENDBRANCH   5   6
ENDBRANCH   1   5
BRANCH   1   9
HETATM    9  C   UNK     0     -19.183  13.604  16.098  0.00  0.00     0.173 C 
HETATM   10  O   UNK     0     -19.502  14.749  15.802  0.00  0.00    -0.648 OA
BRANCH   9  11
HETATM   11  O   UNK     0     -20.091  12.664  16.469  0.00  0.00    -0.775 OA
HETATM   12  H   UNK     0     -20.861  13.060  16.930  0.00  0.00     0.167 HD
ENDBRANCH   9  11
ENDBRANCH   1   9
TORSDOF 6
ENDMDL
