MODEL 1
REMARK VINA RESULT:      -4.7      0.000      0.000
REMARK  6 active torsions:
REMARK  status: ('A' for Active; 'I' for Inactive)
REMARK    1  A    between atoms: S_1  and  C_7 
REMARK    2  A    between atoms: O_2  and  C_8 
REMARK    3  A    between atoms: N_4  and  C_6 
REMARK    4  A    between atoms: C_5  and  C_6 
REMARK    5  A    between atoms: C_5  and  C_7 
REMARK    6  A    between atoms: C_6  and  C_8 
ROOT
HETATM    1  C   UNK     0     -23.973 -28.695  26.013  0.00  0.00     0.315 C 
ENDROOT
BRANCH   1   2
HETATM    2  N   UNK     0     -23.304 -28.659  24.707  0.00  0.00     0.093 N 
HETATM    3  H   UNK     0     -23.203 -29.609  24.350  0.00  0.00     0.314 HD
HETATM    4  H   UNK     0     -22.358 -28.297  24.820  0.00  0.00     0.314 HD
ENDBRANCH   1   2
BRANCH   1   5
HETATM    5  C   UNK     0     -23.580 -27.447  26.816  0.00  0.00     0.056 C 
BRANCH   5   6
HETATM    6  C   UNK     0     -23.801 -26.108  26.106  0.00  0.00     0.076 C 
BRANCH   6   7
HETATM    7  S   UNK     0     -24.865 -24.970  27.042  0.00  0.00    -0.173 SA
HETATM    8  C   UNK     0     -24.399 -23.435  26.212  0.00  0.00     0.089 C 
ENDBRANCH   6   7
ENDBRANCH   5   6
ENDBRANCH   1   5
BRANCH   1   9
HETATM    9  C   UNK     0     -25.465 -28.719  25.731  0.00  0.00     0.173 C 
HETATM   10  O   UNK     0     -25.978 -28.517  24.638  0.00  0.00    -0.648 OA
BRANCH   9  11
HETATM   11  O   UNK     0     -26.193 -29.020  26.838  0.00  0.00    -0.775 OA
HETATM   12  H   UNK     0     -25.854 -28.561  27.635  0.00  0.00     0.167 HD
ENDBRANCH   9  11
ENDBRANCH   1   9
TORSDOF 6
ENDMDL
MODEL 2
REMARK VINA RESULT:      -4.0     14.974     15.733
REMARK  6 active torsions:
REMARK  status: ('A' for Active; 'I' for Inactive)
REMARK    1  A    between atoms: S_1  and  C_7 
REMARK    2  A    between atoms: O_2  and  C_8 
REMARK    3  A    between atoms: N_4  and  C_6 
REMARK    4  A    between atoms: C_5  and  C_6 
REMARK    5  A    between atoms: C_5  and  C_7 
REMARK    6  A    between atoms: C_6  and  C_8 
ROOT
HETATM    1  C   UNK     0     -21.954 -16.080  35.682  0.00  0.00     0.315 C 
ENDROOT
BRANCH   1   2
HETATM    2  N   UNK     0     -20.694 -16.735  35.316  0.00  0.00     0.093 N 
HETATM    3  H   UNK     0     -20.891 -17.655  34.923  0.00  0.00     0.314 HD
HETATM    4  H   UNK     0     -20.139 -16.898  36.155  0.00  0.00     0.314 HD
ENDBRANCH   1   2
BRANCH   1   5
HETATM    5  C   UNK     0     -21.775 -15.354  37.023  0.00  0.00     0.056 C 
BRANCH   5   6
HETATM    6  C   UNK     0     -22.884 -15.587  38.054  0.00  0.00     0.076 C 
BRANCH   6   7
HETATM    7  S   UNK     0     -24.063 -16.876  37.555  0.00  0.00    -0.173 SA
HETATM    8  C   UNK     0     -25.432 -15.803  37.067  0.00  0.00     0.089 C 
ENDBRANCH   6   7
ENDBRANCH   5   6
ENDBRANCH   1   5
BRANCH   1   9
HETATM    9  C   UNK     0     -22.270 -15.100  34.566  0.00  0.00     0.173 C 
HETATM   10  O   UNK     0     -22.527 -15.409  33.409  0.00  0.00    -0.648 OA
BRANCH   9  11
HETATM   11  O   UNK     0     -22.264 -13.811  34.995  0.00  0.00    -0.775 OA
HETATM   12  H   UNK     0     -21.567 -13.281  34.552  0.00  0.00     0.167 HD
ENDBRANCH   9  11
ENDBRANCH   1   9
TORSDOF 6
ENDMDL
MODEL 3
REMARK VINA RESULT:      -4.0     15.179     16.000
REMARK  6 active torsions:
REMARK  status: ('A' for Active; 'I' for Inactive)
REMARK    1  A    between atoms: S_1  and  C_7 
REMARK    2  A    between atoms: O_2  and  C_8 
REMARK    3  A    between atoms: N_4  and  C_6 
REMARK    4  A    between atoms: C_5  and  C_6 
REMARK    5  A    between atoms: C_5  and  C_7 
REMARK    6  A    between atoms: C_6  and  C_8 
ROOT
HETATM    1  C   UNK     0     -21.973 -16.088  35.667  0.00  0.00     0.315 C 
ENDROOT
BRANCH   1   2
HETATM    2  N   UNK     0     -20.695 -16.732  35.346  0.00  0.00     0.093 N 
HETATM    3  H   UNK     0     -20.113 -16.769  36.182  0.00  0.00     0.314 HD
HETATM    4  H   UNK     0     -20.186 -16.161  34.672  0.00  0.00     0.314 HD
ENDBRANCH   1   2
BRANCH   1   5
HETATM    5  C   UNK     0     -21.849 -15.364  37.015  0.00  0.00     0.056 C 
BRANCH   5   6
HETATM    6  C   UNK     0     -23.026 -15.553  37.977  0.00  0.00     0.076 C 
BRANCH   6   7
HETATM    7  S   UNK     0     -22.552 -16.356  39.537  0.00  0.00    -0.173 SA
HETATM    8  C   UNK     0     -23.059 -18.041  39.127  0.00  0.00     0.089 C 
ENDBRANCH   6   7
ENDBRANCH   5   6
ENDBRANCH   1   5
BRANCH   1   9
HETATM    9  C   UNK     0     -22.257 -15.108  34.542  0.00  0.00     0.173 C 
HETATM   10  O   UNK     0     -22.539 -15.420  33.392  0.00  0.00    -0.648 OA
BRANCH   9  11
HETATM   11  O   UNK     0     -22.190 -13.816  34.956  0.00  0.00    -0.775 OA
HETATM   12  H   UNK     0     -22.805 -13.239  34.454  0.00  0.00     0.167 HD
ENDBRANCH   9  11
ENDBRANCH   1   9
TORSDOF 6
ENDMDL
