MODEL 1
REMARK VINA RESULT:      -4.4      0.000      0.000
REMARK  6 active torsions:
REMARK  status: ('A' for Active; 'I' for Inactive)
REMARK    1  A    between atoms: S_1  and  C_7 
REMARK    2  A    between atoms: O_2  and  C_8 
REMARK    3  A    between atoms: N_4  and  C_6 
REMARK    4  A    between atoms: C_5  and  C_6 
REMARK    5  A    between atoms: C_5  and  C_7 
REMARK    6  A    between atoms: C_6  and  C_8 
ROOT
HETATM    1  C   UNK     0     -30.494  52.102  14.044  0.00  0.00     0.315 C 
ENDROOT
BRANCH   1   2
HETATM    2  N   UNK     0     -30.584  51.961  12.587  0.00  0.00     0.093 N 
HETATM    3  H   UNK     0     -30.059  51.138  12.291  0.00  0.00     0.314 HD
HETATM    4  H   UNK     0     -30.134  52.759  12.140  0.00  0.00     0.314 HD
ENDBRANCH   1   2
BRANCH   1   5
HETATM    5  C   UNK     0     -31.832  52.629  14.584  0.00  0.00     0.056 C 
BRANCH   5   6
HETATM    6  C   UNK     0     -31.980  52.616  16.108  0.00  0.00     0.076 C 
BRANCH   6   7
HETATM    7  S   UNK     0     -33.707  52.471  16.658  0.00  0.00    -0.173 SA
HETATM    8  C   UNK     0     -34.426  53.741  15.593  0.00  0.00     0.089 C 
ENDBRANCH   6   7
ENDBRANCH   5   6
ENDBRANCH   1   5
BRANCH   1   9
HETATM    9  C   UNK     0     -30.189  50.719  14.593  0.00  0.00     0.173 C 
HETATM   10  O   UNK     0     -29.297  50.460  15.392  0.00  0.00    -0.648 OA
BRANCH   9  11
HETATM   11  O   UNK     0     -31.041  49.775  14.115  0.00  0.00    -0.775 OA
HETATM   12  H   UNK     0     -30.943  48.921  14.587  0.00  0.00     0.167 HD
ENDBRANCH   9  11
ENDBRANCH   1   9
TORSDOF 6
ENDMDL
MODEL 2
REMARK VINA RESULT:      -4.4      1.819      1.946
REMARK  6 active torsions:
REMARK  status: ('A' for Active; 'I' for Inactive)
REMARK    1  A    between atoms: S_1  and  C_7 
REMARK    2  A    between atoms: O_2  and  C_8 
REMARK    3  A    between atoms: N_4  and  C_6 
REMARK    4  A    between atoms: C_5  and  C_6 
REMARK    5  A    between atoms: C_5  and  C_7 
REMARK    6  A    between atoms: C_6  and  C_8 
ROOT
HETATM    1  C   UNK     0     -30.633  50.787  14.627  0.00  0.00     0.315 C 
ENDROOT
BRANCH   1   2
HETATM    2  N   UNK     0     -29.593  50.000  15.300  0.00  0.00     0.093 N 
HETATM    3  H   UNK     0     -30.029  49.263  15.853  0.00  0.00     0.314 HD
HETATM    4  H   UNK     0     -29.093  50.593  15.961  0.00  0.00     0.314 HD
ENDBRANCH   1   2
BRANCH   1   5
HETATM    5  C   UNK     0     -31.439  51.563  15.679  0.00  0.00     0.056 C 
BRANCH   5   6
HETATM    6  C   UNK     0     -32.774  52.137  15.196  0.00  0.00     0.076 C 
BRANCH   6   7
HETATM    7  S   UNK     0     -33.896  52.578  16.556  0.00  0.00    -0.173 SA
HETATM    8  C   UNK     0     -35.152  53.444  15.588  0.00  0.00     0.089 C 
ENDBRANCH   6   7
ENDBRANCH   5   6
ENDBRANCH   1   5
BRANCH   1   9
HETATM    9  C   UNK     0     -29.914  51.731  13.681  0.00  0.00     0.173 C 
HETATM   10  O   UNK     0     -28.818  52.238  13.890  0.00  0.00    -0.648 OA
BRANCH   9  11
HETATM   11  O   UNK     0     -30.613  51.945  12.536  0.00  0.00    -0.775 OA
HETATM   12  H   UNK     0     -30.910  51.105  12.126  0.00  0.00     0.167 HD
ENDBRANCH   9  11
ENDBRANCH   1   9
TORSDOF 6
ENDMDL
MODEL 3
REMARK VINA RESULT:      -4.3      3.255      4.346
REMARK  6 active torsions:
REMARK  status: ('A' for Active; 'I' for Inactive)
REMARK    1  A    between atoms: S_1  and  C_7 
REMARK    2  A    between atoms: O_2  and  C_8 
REMARK    3  A    between atoms: N_4  and  C_6 
REMARK    4  A    between atoms: C_5  and  C_6 
REMARK    5  A    between atoms: C_5  and  C_7 
REMARK    6  A    between atoms: C_6  and  C_8 
ROOT
HETATM    1  C   UNK     0     -32.962  52.168  16.072  0.00  0.00     0.315 C 
ENDROOT
BRANCH   1   2
HETATM    2  N   UNK     0     -32.900  50.736  15.761  0.00  0.00     0.093 N 
HETATM    3  H   UNK     0     -32.235  50.281  16.386  0.00  0.00     0.314 HD
HETATM    4  H   UNK     0     -32.535  50.608  14.818  0.00  0.00     0.314 HD
ENDBRANCH   1   2
BRANCH   1   5
HETATM    5  C   UNK     0     -31.689  52.853  15.555  0.00  0.00     0.056 C 
BRANCH   5   6
HETATM    6  C   UNK     0     -31.253  52.457  14.141  0.00  0.00     0.076 C 
BRANCH   6   7
HETATM    7  S   UNK     0     -29.498  51.995  14.038  0.00  0.00    -0.173 SA
HETATM    8  C   UNK     0     -29.519  50.626  15.217  0.00  0.00     0.089 C 
ENDBRANCH   6   7
ENDBRANCH   5   6
ENDBRANCH   1   5
BRANCH   1   9
HETATM    9  C   UNK     0     -34.197  52.707  15.372  0.00  0.00     0.173 C 
HETATM   10  O   UNK     0     -34.708  53.799  15.587  0.00  0.00    -0.648 OA
BRANCH   9  11
HETATM   11  O   UNK     0     -34.679  51.844  14.440  0.00  0.00    -0.775 OA
HETATM   12  H   UNK     0     -34.222  51.945  13.578  0.00  0.00     0.167 HD
ENDBRANCH   9  11
ENDBRANCH   1   9
TORSDOF 6
ENDMDL
