MODEL 1
REMARK VINA RESULT:      -4.3      0.000      0.000
REMARK  6 active torsions:
REMARK  status: ('A' for Active; 'I' for Inactive)
REMARK    1  A    between atoms: S_1  and  C_7 
REMARK    2  A    between atoms: O_2  and  C_8 
REMARK    3  A    between atoms: N_4  and  C_6 
REMARK    4  A    between atoms: C_5  and  C_6 
REMARK    5  A    between atoms: C_5  and  C_7 
REMARK    6  A    between atoms: C_6  and  C_8 
ROOT
HETATM    1  C   UNK     0     -28.440 -58.218   8.633  0.00  0.00     0.315 C 
ENDROOT
BRANCH   1   2
HETATM    2  N   UNK     0     -27.158 -58.325   7.928  0.00  0.00     0.093 N 
HETATM    3  H   UNK     0     -26.704 -57.413   7.906  0.00  0.00     0.314 HD
HETATM    4  H   UNK     0     -27.324 -58.583   6.957  0.00  0.00     0.314 HD
ENDBRANCH   1   2
BRANCH   1   5
HETATM    5  C   UNK     0     -28.985 -59.627   8.909  0.00  0.00     0.056 C 
BRANCH   5   6
HETATM    6  C   UNK     0     -30.055 -59.720  10.000  0.00  0.00     0.076 C 
BRANCH   6   7
HETATM    7  S   UNK     0     -31.739 -59.441   9.375  0.00  0.00    -0.173 SA
HETATM    8  C   UNK     0     -32.039 -57.834  10.144  0.00  0.00     0.089 C 
ENDBRANCH   6   7
ENDBRANCH   5   6
ENDBRANCH   1   5
BRANCH   1   9
HETATM    9  C   UNK     0     -28.159 -57.476   9.927  0.00  0.00     0.173 C 
HETATM   10  O   UNK     0     -28.754 -56.475  10.308  0.00  0.00    -0.648 OA
BRANCH   9  11
HETATM   11  O   UNK     0     -27.174 -58.063  10.655  0.00  0.00    -0.775 OA
HETATM   12  H   UNK     0     -26.768 -57.438  11.293  0.00  0.00     0.167 HD
ENDBRANCH   9  11
ENDBRANCH   1   9
TORSDOF 6
ENDMDL
MODEL 2
REMARK VINA RESULT:      -4.2      1.854      2.250
REMARK  6 active torsions:
REMARK  status: ('A' for Active; 'I' for Inactive)
REMARK    1  A    between atoms: S_1  and  C_7 
REMARK    2  A    between atoms: O_2  and  C_8 
REMARK    3  A    between atoms: N_4  and  C_6 
REMARK    4  A    between atoms: C_5  and  C_6 
REMARK    5  A    between atoms: C_5  and  C_7 
REMARK    6  A    between atoms: C_6  and  C_8 
ROOT
HETATM    1  C   UNK     0     -29.224 -56.990   9.370  0.00  0.00     0.315 C 
ENDROOT
BRANCH   1   2
HETATM    2  N   UNK     0     -28.784 -55.591   9.391  0.00  0.00     0.093 N 
HETATM    3  H   UNK     0     -28.227 -55.396   8.561  0.00  0.00     0.314 HD
HETATM    4  H   UNK     0     -28.167 -55.441  10.188  0.00  0.00     0.314 HD
ENDBRANCH   1   2
BRANCH   1   5
HETATM    5  C   UNK     0     -30.070 -57.234   8.111  0.00  0.00     0.056 C 
BRANCH   5   6
HETATM    6  C   UNK     0     -30.962 -58.479   8.146  0.00  0.00     0.076 C 
BRANCH   6   7
HETATM    7  S   UNK     0     -31.743 -58.753   9.764  0.00  0.00    -0.173 SA
HETATM    8  C   UNK     0     -30.820 -60.228  10.252  0.00  0.00     0.089 C 
ENDBRANCH   6   7
ENDBRANCH   5   6
ENDBRANCH   1   5
BRANCH   1   9
HETATM    9  C   UNK     0     -27.965 -57.837   9.357  0.00  0.00     0.173 C 
HETATM   10  O   UNK     0     -27.426 -58.281   8.350  0.00  0.00    -0.648 OA
BRANCH   9  11
HETATM   11  O   UNK     0     -27.466 -58.039  10.604  0.00  0.00    -0.775 OA
HETATM   12  H   UNK     0     -28.152 -57.923  11.296  0.00  0.00     0.167 HD
ENDBRANCH   9  11
ENDBRANCH   1   9
TORSDOF 6
ENDMDL
MODEL 3
REMARK VINA RESULT:      -4.0      1.736      1.928
REMARK  6 active torsions:
REMARK  status: ('A' for Active; 'I' for Inactive)
REMARK    1  A    between atoms: S_1  and  C_7 
REMARK    2  A    between atoms: O_2  and  C_8 
REMARK    3  A    between atoms: N_4  and  C_6 
REMARK    4  A    between atoms: C_5  and  C_6 
REMARK    5  A    between atoms: C_5  and  C_7 
REMARK    6  A    between atoms: C_6  and  C_8 
ROOT
HETATM    1  C   UNK     0     -29.156 -57.222   8.851  0.00  0.00     0.315 C 
ENDROOT
BRANCH   1   2
HETATM    2  N   UNK     0     -28.758 -56.217   7.859  0.00  0.00     0.093 N 
HETATM    3  H   UNK     0     -27.879 -56.496   7.425  0.00  0.00     0.314 HD
HETATM    4  H   UNK     0     -28.574 -55.331   8.328  0.00  0.00     0.314 HD
ENDBRANCH   1   2
BRANCH   1   5
HETATM    5  C   UNK     0     -30.250 -58.117   8.251  0.00  0.00     0.056 C 
BRANCH   5   6
HETATM    6  C   UNK     0     -31.156 -58.822   9.266  0.00  0.00     0.076 C 
BRANCH   6   7
HETATM    7  S   UNK     0     -31.466 -57.830  10.757  0.00  0.00    -0.173 SA
HETATM    8  C   UNK     0     -32.927 -56.939  10.177  0.00  0.00     0.089 C 
ENDBRANCH   6   7
ENDBRANCH   5   6
ENDBRANCH   1   5
BRANCH   1   9
HETATM    9  C   UNK     0     -27.908 -58.024   9.175  0.00  0.00     0.173 C 
HETATM   10  O   UNK     0     -27.191 -58.575   8.349  0.00  0.00    -0.648 OA
BRANCH   9  11
HETATM   11  O   UNK     0     -27.645 -58.051  10.507  0.00  0.00    -0.775 OA
HETATM   12  H   UNK     0     -27.261 -57.204  10.821  0.00  0.00     0.167 HD
ENDBRANCH   9  11
ENDBRANCH   1   9
TORSDOF 6
ENDMDL
