MODEL 1
REMARK VINA RESULT:      -4.7      0.000      0.000
REMARK  6 active torsions:
REMARK  status: ('A' for Active; 'I' for Inactive)
REMARK    1  A    between atoms: S_1  and  C_7 
REMARK    2  A    between atoms: O_2  and  C_8 
REMARK    3  A    between atoms: N_4  and  C_6 
REMARK    4  A    between atoms: C_5  and  C_6 
REMARK    5  A    between atoms: C_5  and  C_7 
REMARK    6  A    between atoms: C_6  and  C_8 
ROOT
HETATM    1  C   UNK     0       0.651   6.437  19.129  0.00  0.00     0.315 C 
ENDROOT
BRANCH   1   2
HETATM    2  N   UNK     0      -0.815   6.385  19.184  0.00  0.00     0.093 N 
HETATM    3  H   UNK     0      -1.166   7.206  19.676  0.00  0.00     0.314 HD
HETATM    4  H   UNK     0      -1.106   5.579  19.736  0.00  0.00     0.314 HD
ENDBRANCH   1   2
BRANCH   1   5
HETATM    5  C   UNK     0       1.196   5.027  18.860  0.00  0.00     0.056 C 
BRANCH   5   6
HETATM    6  C   UNK     0       2.474   4.656  19.619  0.00  0.00     0.076 C 
BRANCH   6   7
HETATM    7  S   UNK     0       2.839   5.784  20.996  0.00  0.00    -0.173 SA
HETATM    8  C   UNK     0       4.179   6.716  20.221  0.00  0.00     0.089 C 
ENDBRANCH   6   7
ENDBRANCH   5   6
ENDBRANCH   1   5
BRANCH   1   9
HETATM    9  C   UNK     0       1.006   7.387  18.000  0.00  0.00     0.173 C 
HETATM   10  O   UNK     0       2.122   7.514  17.511  0.00  0.00    -0.648 OA
BRANCH   9  11
HETATM   11  O   UNK     0      -0.072   8.084  17.554  0.00  0.00    -0.775 OA
HETATM   12  H   UNK     0      -0.007   9.038  17.773  0.00  0.00     0.167 HD
ENDBRANCH   9  11
ENDBRANCH   1   9
TORSDOF 6
ENDMDL
MODEL 2
REMARK VINA RESULT:      -4.5      2.812      3.230
REMARK  6 active torsions:
REMARK  status: ('A' for Active; 'I' for Inactive)
REMARK    1  A    between atoms: S_1  and  C_7 
REMARK    2  A    between atoms: O_2  and  C_8 
REMARK    3  A    between atoms: N_4  and  C_6 
REMARK    4  A    between atoms: C_5  and  C_6 
REMARK    5  A    between atoms: C_5  and  C_7 
REMARK    6  A    between atoms: C_6  and  C_8 
ROOT
HETATM    1  C   UNK     0       1.085   6.854  17.936  0.00  0.00     0.315 C 
ENDROOT
BRANCH   1   2
HETATM    2  N   UNK     0       0.232   8.029  17.722  0.00  0.00     0.093 N 
HETATM    3  H   UNK     0       0.088   8.510  18.609  0.00  0.00     0.314 HD
HETATM    4  H   UNK     0      -0.690   7.727  17.411  0.00  0.00     0.314 HD
ENDBRANCH   1   2
BRANCH   1   5
HETATM    5  C   UNK     0       2.372   7.288  18.651  0.00  0.00     0.056 C 
BRANCH   5   6
HETATM    6  C   UNK     0       3.678   6.949  17.926  0.00  0.00     0.076 C 
BRANCH   6   7
HETATM    7  S   UNK     0       3.414   6.263  16.264  0.00  0.00    -0.173 SA
HETATM    8  C   UNK     0       3.794   7.748  15.306  0.00  0.00     0.089 C 
ENDBRANCH   6   7
ENDBRANCH   5   6
ENDBRANCH   1   5
BRANCH   1   9
HETATM    9  C   UNK     0       0.283   5.888  18.789  0.00  0.00     0.173 C 
HETATM   10  O   UNK     0       0.667   4.783  19.152  0.00  0.00    -0.648 OA
BRANCH   9  11
HETATM   11  O   UNK     0      -0.927   6.396  19.143  0.00  0.00    -0.775 OA
HETATM   12  H   UNK     0      -1.392   6.800  18.380  0.00  0.00     0.167 HD
ENDBRANCH   9  11
ENDBRANCH   1   9
TORSDOF 6
ENDMDL
MODEL 3
REMARK VINA RESULT:      -4.5      2.909      3.341
REMARK  6 active torsions:
REMARK  status: ('A' for Active; 'I' for Inactive)
REMARK    1  A    between atoms: S_1  and  C_7 
REMARK    2  A    between atoms: O_2  and  C_8 
REMARK    3  A    between atoms: N_4  and  C_6 
REMARK    4  A    between atoms: C_5  and  C_6 
REMARK    5  A    between atoms: C_5  and  C_7 
REMARK    6  A    between atoms: C_6  and  C_8 
ROOT
HETATM    1  C   UNK     0       0.988   6.945  17.850  0.00  0.00     0.315 C 
ENDROOT
BRANCH   1   2
HETATM    2  N   UNK     0       0.081   8.088  17.695  0.00  0.00     0.093 N 
HETATM    3  H   UNK     0       0.622   8.952  17.683  0.00  0.00     0.314 HD
HETATM    4  H   UNK     0      -0.531   8.149  18.508  0.00  0.00     0.314 HD
ENDBRANCH   1   2
BRANCH   1   5
HETATM    5  C   UNK     0       2.322   7.434  18.433  0.00  0.00     0.056 C 
BRANCH   5   6
HETATM    6  C   UNK     0       3.422   7.728  17.409  0.00  0.00     0.076 C 
BRANCH   6   7
HETATM    7  S   UNK     0       3.350   9.420  16.749  0.00  0.00    -0.173 SA
HETATM    8  C   UNK     0       2.963  10.284  18.288  0.00  0.00     0.089 C 
ENDBRANCH   6   7
ENDBRANCH   5   6
ENDBRANCH   1   5
BRANCH   1   9
HETATM    9  C   UNK     0       0.300   5.974  18.793  0.00  0.00     0.173 C 
HETATM   10  O   UNK     0       0.785   4.926  19.201  0.00  0.00    -0.648 OA
BRANCH   9  11
HETATM   11  O   UNK     0      -0.931   6.407  19.171  0.00  0.00    -0.775 OA
HETATM   12  H   UNK     0      -1.387   5.756  19.746  0.00  0.00     0.167 HD
ENDBRANCH   9  11
ENDBRANCH   1   9
TORSDOF 6
ENDMDL
