MODEL 1
REMARK VINA RESULT:      -4.3      0.000      0.000
REMARK  6 active torsions:
REMARK  status: ('A' for Active; 'I' for Inactive)
REMARK    1  A    between atoms: S_1  and  C_7 
REMARK    2  A    between atoms: O_2  and  C_8 
REMARK    3  A    between atoms: N_4  and  C_6 
REMARK    4  A    between atoms: C_5  and  C_6 
REMARK    5  A    between atoms: C_5  and  C_7 
REMARK    6  A    between atoms: C_6  and  C_8 
ROOT
HETATM    1  C   UNK     0      32.946  20.335   2.981  0.00  0.00     0.315 C 
ENDROOT
BRANCH   1   2
HETATM    2  N   UNK     0      34.396  20.209   3.164  0.00  0.00     0.093 N 
HETATM    3  H   UNK     0      34.740  20.995   3.714  0.00  0.00     0.314 HD
HETATM    4  H   UNK     0      34.860  20.272   2.259  0.00  0.00     0.314 HD
ENDBRANCH   1   2
BRANCH   1   5
HETATM    5  C   UNK     0      32.536  19.620   1.685  0.00  0.00     0.056 C 
BRANCH   5   6
HETATM    6  C   UNK     0      33.333  18.356   1.348  0.00  0.00     0.076 C 
BRANCH   6   7
HETATM    7  S   UNK     0      32.340  17.091   0.499  0.00  0.00    -0.173 SA
HETATM    8  C   UNK     0      30.702  17.679   0.983  0.00  0.00     0.089 C 
ENDBRANCH   6   7
ENDBRANCH   5   6
ENDBRANCH   1   5
BRANCH   1   9
HETATM    9  C   UNK     0      32.300  19.687   4.192  0.00  0.00     0.173 C 
HETATM   10  O   UNK     0      31.095  19.546   4.356  0.00  0.00    -0.648 OA
BRANCH   9  11
HETATM   11  O   UNK     0      33.218  19.243   5.090  0.00  0.00    -0.775 OA
HETATM   12  H   UNK     0      33.121  18.283   5.268  0.00  0.00     0.167 HD
ENDBRANCH   9  11
ENDBRANCH   1   9
TORSDOF 6
ENDMDL
MODEL 2
REMARK VINA RESULT:      -4.1      1.796      2.097
REMARK  6 active torsions:
REMARK  status: ('A' for Active; 'I' for Inactive)
REMARK    1  A    between atoms: S_1  and  C_7 
REMARK    2  A    between atoms: O_2  and  C_8 
REMARK    3  A    between atoms: N_4  and  C_6 
REMARK    4  A    between atoms: C_5  and  C_6 
REMARK    5  A    between atoms: C_5  and  C_7 
REMARK    6  A    between atoms: C_6  and  C_8 
ROOT
HETATM    1  C   UNK     0      32.674  19.507   1.859  0.00  0.00     0.315 C 
ENDROOT
BRANCH   1   2
HETATM    2  N   UNK     0      33.668  18.453   1.625  0.00  0.00     0.093 N 
HETATM    3  H   UNK     0      33.411  17.620   2.153  0.00  0.00     0.314 HD
HETATM    4  H   UNK     0      34.571  18.752   1.990  0.00  0.00     0.314 HD
ENDBRANCH   1   2
BRANCH   1   5
HETATM    5  C   UNK     0      31.283  18.869   1.988  0.00  0.00     0.056 C 
BRANCH   5   6
HETATM    6  C   UNK     0      30.768  18.149   0.738  0.00  0.00     0.076 C 
BRANCH   6   7
HETATM    7  S   UNK     0      29.995  16.545   1.105  0.00  0.00    -0.173 SA
HETATM    8  C   UNK     0      31.312  15.474   0.487  0.00  0.00     0.089 C 
ENDBRANCH   6   7
ENDBRANCH   5   6
ENDBRANCH   1   5
BRANCH   1   9
HETATM    9  C   UNK     0      33.079  20.204   3.146  0.00  0.00     0.173 C 
HETATM   10  O   UNK     0      32.306  20.559   4.027  0.00  0.00    -0.648 OA
BRANCH   9  11
HETATM   11  O   UNK     0      34.423  20.375   3.238  0.00  0.00    -0.775 OA
HETATM   12  H   UNK     0      34.901  19.911   2.518  0.00  0.00     0.167 HD
ENDBRANCH   9  11
ENDBRANCH   1   9
TORSDOF 6
ENDMDL
MODEL 3
REMARK VINA RESULT:      -3.9      1.372      1.770
REMARK  6 active torsions:
REMARK  status: ('A' for Active; 'I' for Inactive)
REMARK    1  A    between atoms: S_1  and  C_7 
REMARK    2  A    between atoms: O_2  and  C_8 
REMARK    3  A    between atoms: N_4  and  C_6 
REMARK    4  A    between atoms: C_5  and  C_6 
REMARK    5  A    between atoms: C_5  and  C_7 
REMARK    6  A    between atoms: C_6  and  C_8 
ROOT
HETATM    1  C   UNK     0      32.893  19.726   2.270  0.00  0.00     0.315 C 
ENDROOT
BRANCH   1   2
HETATM    2  N   UNK     0      34.080  20.202   2.989  0.00  0.00     0.093 N 
HETATM    3  H   UNK     0      34.618  19.403   3.323  0.00  0.00     0.314 HD
HETATM    4  H   UNK     0      33.791  20.717   3.819  0.00  0.00     0.314 HD
ENDBRANCH   1   2
BRANCH   1   5
HETATM    5  C   UNK     0      33.202  18.365   1.629  0.00  0.00     0.056 C 
BRANCH   5   6
HETATM    6  C   UNK     0      32.782  18.214   0.164  0.00  0.00     0.076 C 
BRANCH   6   7
HETATM    7  S   UNK     0      31.620  16.843  -0.108  0.00  0.00    -0.173 SA
HETATM    8  C   UNK     0      32.655  15.498   0.510  0.00  0.00     0.089 C 
ENDBRANCH   6   7
ENDBRANCH   5   6
ENDBRANCH   1   5
BRANCH   1   9
HETATM    9  C   UNK     0      31.784  19.608   3.300  0.00  0.00     0.173 C 
HETATM   10  O   UNK     0      31.851  20.009   4.455  0.00  0.00    -0.648 OA
BRANCH   9  11
HETATM   11  O   UNK     0      30.669  19.020   2.793  0.00  0.00    -0.775 OA
HETATM   12  H   UNK     0      30.056  18.727   3.500  0.00  0.00     0.167 HD
ENDBRANCH   9  11
ENDBRANCH   1   9
TORSDOF 6
ENDMDL
