MODEL 1
REMARK VINA RESULT:      -4.2      0.000      0.000
REMARK  6 active torsions:
REMARK  status: ('A' for Active; 'I' for Inactive)
REMARK    1  A    between atoms: S_1  and  C_7 
REMARK    2  A    between atoms: O_2  and  C_8 
REMARK    3  A    between atoms: N_4  and  C_6 
REMARK    4  A    between atoms: C_5  and  C_6 
REMARK    5  A    between atoms: C_5  and  C_7 
REMARK    6  A    between atoms: C_6  and  C_8 
ROOT
HETATM    1  C   UNK     0      23.091  57.982  23.374  0.00  0.00     0.315 C 
ENDROOT
BRANCH   1   2
HETATM    2  N   UNK     0      22.520  59.073  24.172  0.00  0.00     0.093 N 
HETATM    3  H   UNK     0      22.634  59.955  23.674  0.00  0.00     0.314 HD
HETATM    4  H   UNK     0      23.045  59.169  25.041  0.00  0.00     0.314 HD
ENDBRANCH   1   2
BRANCH   1   5
HETATM    5  C   UNK     0      22.230  57.769  22.121  0.00  0.00     0.056 C 
BRANCH   5   6
HETATM    6  C   UNK     0      20.744  57.500  22.378  0.00  0.00     0.076 C 
BRANCH   6   7
HETATM    7  S   UNK     0      20.437  55.894  23.173  0.00  0.00    -0.173 SA
HETATM    8  C   UNK     0      19.879  56.502  24.780  0.00  0.00     0.089 C 
ENDBRANCH   6   7
ENDBRANCH   5   6
ENDBRANCH   1   5
BRANCH   1   9
HETATM    9  C   UNK     0      24.500  58.411  23.004  0.00  0.00     0.173 C 
HETATM   10  O   UNK     0      24.816  59.527  22.611  0.00  0.00    -0.648 OA
BRANCH   9  11
HETATM   11  O   UNK     0      25.405  57.414  23.182  0.00  0.00    -0.775 OA
HETATM   12  H   UNK     0      26.073  57.394  22.464  0.00  0.00     0.167 HD
ENDBRANCH   9  11
ENDBRANCH   1   9
TORSDOF 6
ENDMDL
MODEL 2
REMARK VINA RESULT:      -4.1     13.190     13.697
REMARK  6 active torsions:
REMARK  status: ('A' for Active; 'I' for Inactive)
REMARK    1  A    between atoms: S_1  and  C_7 
REMARK    2  A    between atoms: O_2  and  C_8 
REMARK    3  A    between atoms: N_4  and  C_6 
REMARK    4  A    between atoms: C_5  and  C_6 
REMARK    5  A    between atoms: C_5  and  C_7 
REMARK    6  A    between atoms: C_6  and  C_8 
ROOT
HETATM    1  C   UNK     0      11.889  52.103  20.186  0.00  0.00     0.315 C 
ENDROOT
BRANCH   1   2
HETATM    2  N   UNK     0      11.938  53.474  20.706  0.00  0.00     0.093 N 
HETATM    3  H   UNK     0      11.413  54.091  20.087  0.00  0.00     0.314 HD
HETATM    4  H   UNK     0      12.900  53.809  20.691  0.00  0.00     0.314 HD
ENDBRANCH   1   2
BRANCH   1   5
HETATM    5  C   UNK     0      11.917  51.116  21.362  0.00  0.00     0.056 C 
BRANCH   5   6
HETATM    6  C   UNK     0      12.301  49.676  21.007  0.00  0.00     0.076 C 
BRANCH   6   7
HETATM    7  S   UNK     0      13.048  48.772  22.396  0.00  0.00    -0.173 SA
HETATM    8  C   UNK     0      12.646  47.094  21.861  0.00  0.00     0.089 C 
ENDBRANCH   6   7
ENDBRANCH   5   6
ENDBRANCH   1   5
BRANCH   1   9
HETATM    9  C   UNK     0      10.594  51.985  19.403  0.00  0.00     0.173 C 
HETATM   10  O   UNK     0      10.499  51.553  18.260  0.00  0.00    -0.648 OA
BRANCH   9  11
HETATM   11  O   UNK     0       9.517  52.392  20.123  0.00  0.00    -0.775 OA
HETATM   12  H   UNK     0       8.902  51.651  20.313  0.00  0.00     0.167 HD
ENDBRANCH   9  11
ENDBRANCH   1   9
TORSDOF 6
ENDMDL
MODEL 3
REMARK VINA RESULT:      -4.0      8.485      9.715
REMARK  6 active torsions:
REMARK  status: ('A' for Active; 'I' for Inactive)
REMARK    1  A    between atoms: S_1  and  C_7 
REMARK    2  A    between atoms: O_2  and  C_8 
REMARK    3  A    between atoms: N_4  and  C_6 
REMARK    4  A    between atoms: C_5  and  C_6 
REMARK    5  A    between atoms: C_5  and  C_7 
REMARK    6  A    between atoms: C_6  and  C_8 
ROOT
HETATM    1  C   UNK     0      14.381  53.952  24.951  0.00  0.00     0.315 C 
ENDROOT
BRANCH   1   2
HETATM    2  N   UNK     0      13.438  53.769  23.842  0.00  0.00     0.093 N 
HETATM    3  H   UNK     0      13.117  52.802  23.825  0.00  0.00     0.314 HD
HETATM    4  H   UNK     0      13.920  53.924  22.958  0.00  0.00     0.314 HD
ENDBRANCH   1   2
BRANCH   1   5
HETATM    5  C   UNK     0      14.977  55.365  24.879  0.00  0.00     0.056 C 
BRANCH   5   6
HETATM    6  C   UNK     0      16.488  55.433  24.638  0.00  0.00     0.076 C 
BRANCH   6   7
HETATM    7  S   UNK     0      17.219  53.821  24.225  0.00  0.00    -0.173 SA
HETATM    8  C   UNK     0      17.583  54.139  22.484  0.00  0.00     0.089 C 
ENDBRANCH   6   7
ENDBRANCH   5   6
ENDBRANCH   1   5
BRANCH   1   9
HETATM    9  C   UNK     0      13.585  53.758  26.230  0.00  0.00     0.173 C 
HETATM   10  O   UNK     0      14.027  53.280  27.268  0.00  0.00    -0.648 OA
BRANCH   9  11
HETATM   11  O   UNK     0      12.307  54.202  26.114  0.00  0.00    -0.775 OA
HETATM   12  H   UNK     0      11.785  53.657  25.487  0.00  0.00     0.167 HD
ENDBRANCH   9  11
ENDBRANCH   1   9
TORSDOF 6
ENDMDL
