MODEL 1
REMARK VINA RESULT:      -4.4      0.000      0.000
REMARK  6 active torsions:
REMARK  status: ('A' for Active; 'I' for Inactive)
REMARK    1  A    between atoms: S_1  and  C_7 
REMARK    2  A    between atoms: O_2  and  C_8 
REMARK    3  A    between atoms: N_4  and  C_6 
REMARK    4  A    between atoms: C_5  and  C_6 
REMARK    5  A    between atoms: C_5  and  C_7 
REMARK    6  A    between atoms: C_6  and  C_8 
ROOT
HETATM    1  C   UNK     0      35.146  33.504  48.360  0.00  0.00     0.315 C 
ENDROOT
BRANCH   1   2
HETATM    2  N   UNK     0      35.999  33.932  49.474  0.00  0.00     0.093 N 
HETATM    3  H   UNK     0      36.944  33.576  49.336  0.00  0.00     0.314 HD
HETATM    4  H   UNK     0      35.662  33.513  50.340  0.00  0.00     0.314 HD
ENDBRANCH   1   2
BRANCH   1   5
HETATM    5  C   UNK     0      33.908  34.410  48.295  0.00  0.00     0.056 C 
BRANCH   5   6
HETATM    6  C   UNK     0      32.567  33.687  48.137  0.00  0.00     0.076 C 
BRANCH   6   7
HETATM    7  S   UNK     0      31.782  33.980  46.524  0.00  0.00    -0.173 SA
HETATM    8  C   UNK     0      30.057  33.876  47.052  0.00  0.00     0.089 C 
ENDBRANCH   6   7
ENDBRANCH   5   6
ENDBRANCH   1   5
BRANCH   1   9
HETATM    9  C   UNK     0      35.986  33.632  47.101  0.00  0.00     0.173 C 
HETATM   10  O   UNK     0      35.573  33.466  45.960  0.00  0.00    -0.648 OA
BRANCH   9  11
HETATM   11  O   UNK     0      37.269  33.984  47.371  0.00  0.00    -0.775 OA
HETATM   12  H   UNK     0      37.437  34.932  47.182  0.00  0.00     0.167 HD
ENDBRANCH   9  11
ENDBRANCH   1   9
TORSDOF 6
ENDMDL
MODEL 2
REMARK VINA RESULT:      -4.4     17.109     17.856
REMARK  6 active torsions:
REMARK  status: ('A' for Active; 'I' for Inactive)
REMARK    1  A    between atoms: S_1  and  C_7 
REMARK    2  A    between atoms: O_2  and  C_8 
REMARK    3  A    between atoms: N_4  and  C_6 
REMARK    4  A    between atoms: C_5  and  C_6 
REMARK    5  A    between atoms: C_5  and  C_7 
REMARK    6  A    between atoms: C_6  and  C_8 
ROOT
HETATM    1  C   UNK     0      18.774  27.014  52.325  0.00  0.00     0.315 C 
ENDROOT
BRANCH   1   2
HETATM    2  N   UNK     0      18.533  26.098  51.205  0.00  0.00     0.093 N 
HETATM    3  H   UNK     0      19.102  26.379  50.407  0.00  0.00     0.314 HD
HETATM    4  H   UNK     0      17.563  26.178  50.902  0.00  0.00     0.314 HD
ENDBRANCH   1   2
BRANCH   1   5
HETATM    5  C   UNK     0      17.702  26.789  53.401  0.00  0.00     0.056 C 
BRANCH   5   6
HETATM    6  C   UNK     0      17.000  28.052  53.909  0.00  0.00     0.076 C 
BRANCH   6   7
HETATM    7  S   UNK     0      17.743  28.721  55.427  0.00  0.00    -0.173 SA
HETATM    8  C   UNK     0      18.762  30.008  54.672  0.00  0.00     0.089 C 
ENDBRANCH   6   7
ENDBRANCH   5   6
ENDBRANCH   1   5
BRANCH   1   9
HETATM    9  C   UNK     0      20.159  26.692  52.855  0.00  0.00     0.173 C 
HETATM   10  O   UNK     0      20.577  27.000  53.965  0.00  0.00    -0.648 OA
BRANCH   9  11
HETATM   11  O   UNK     0      20.901  25.985  51.963  0.00  0.00    -0.775 OA
HETATM   12  H   UNK     0      20.346  25.394  51.412  0.00  0.00     0.167 HD
ENDBRANCH   9  11
ENDBRANCH   1   9
TORSDOF 6
ENDMDL
MODEL 3
REMARK VINA RESULT:      -4.2     16.526     17.471
REMARK  6 active torsions:
REMARK  status: ('A' for Active; 'I' for Inactive)
REMARK    1  A    between atoms: S_1  and  C_7 
REMARK    2  A    between atoms: O_2  and  C_8 
REMARK    3  A    between atoms: N_4  and  C_6 
REMARK    4  A    between atoms: C_5  and  C_6 
REMARK    5  A    between atoms: C_5  and  C_7 
REMARK    6  A    between atoms: C_6  and  C_8 
ROOT
HETATM    1  C   UNK     0      19.500  26.281  53.679  0.00  0.00     0.315 C 
ENDROOT
BRANCH   1   2
HETATM    2  N   UNK     0      20.556  26.147  54.689  0.00  0.00     0.093 N 
HETATM    3  H   UNK     0      20.814  25.166  54.784  0.00  0.00     0.314 HD
HETATM    4  H   UNK     0      20.195  26.435  55.598  0.00  0.00     0.314 HD
ENDBRANCH   1   2
BRANCH   1   5
HETATM    5  C   UNK     0      18.375  27.164  54.238  0.00  0.00     0.056 C 
BRANCH   5   6
HETATM    6  C   UNK     0      18.800  28.562  54.698  0.00  0.00     0.076 C 
BRANCH   6   7
HETATM    7  S   UNK     0      18.058  29.895  53.710  0.00  0.00    -0.173 SA
HETATM    8  C   UNK     0      16.325  29.418  53.888  0.00  0.00     0.089 C 
ENDBRANCH   6   7
ENDBRANCH   5   6
ENDBRANCH   1   5
BRANCH   1   9
HETATM    9  C   UNK     0      20.146  26.921  52.463  0.00  0.00     0.173 C 
HETATM   10  O   UNK     0      21.321  27.259  52.387  0.00  0.00    -0.648 OA
BRANCH   9  11
HETATM   11  O   UNK     0      19.275  27.061  51.431  0.00  0.00    -0.775 OA
HETATM   12  H   UNK     0      18.897  27.966  51.392  0.00  0.00     0.167 HD
ENDBRANCH   9  11
ENDBRANCH   1   9
TORSDOF 6
ENDMDL
