MODEL 1
REMARK VINA RESULT:      -3.9      0.000      0.000
REMARK  6 active torsions:
REMARK  status: ('A' for Active; 'I' for Inactive)
REMARK    1  A    between atoms: S_1  and  C_7 
REMARK    2  A    between atoms: O_2  and  C_8 
REMARK    3  A    between atoms: N_4  and  C_6 
REMARK    4  A    between atoms: C_5  and  C_6 
REMARK    5  A    between atoms: C_5  and  C_7 
REMARK    6  A    between atoms: C_6  and  C_8 
ROOT
HETATM    1  C   UNK     0     -28.929 -62.777  22.372  0.00  0.00     0.315 C 
ENDROOT
BRANCH   1   2
HETATM    2  N   UNK     0     -28.718 -64.183  22.008  0.00  0.00     0.093 N 
HETATM    3  H   UNK     0     -28.091 -64.619  22.683  0.00  0.00     0.314 HD
HETATM    4  H   UNK     0     -28.244 -64.234  21.107  0.00  0.00     0.314 HD
ENDBRANCH   1   2
BRANCH   1   5
HETATM    5  C   UNK     0     -28.591 -61.888  21.166  0.00  0.00     0.056 C 
BRANCH   5   6
HETATM    6  C   UNK     0     -28.007 -60.512  21.503  0.00  0.00     0.076 C 
BRANCH   6   7
HETATM    7  S   UNK     0     -27.261 -60.439  23.159  0.00  0.00    -0.173 SA
HETATM    8  C   UNK     0     -28.495 -59.385  23.954  0.00  0.00     0.089 C 
ENDBRANCH   6   7
ENDBRANCH   5   6
ENDBRANCH   1   5
BRANCH   1   9
HETATM    9  C   UNK     0     -30.391 -62.647  22.756  0.00  0.00     0.173 C 
HETATM   10  O   UNK     0     -30.802 -62.193  23.817  0.00  0.00    -0.648 OA
BRANCH   9  11
HETATM   11  O   UNK     0     -31.224 -63.070  21.770  0.00  0.00    -0.775 OA
HETATM   12  H   UNK     0     -30.949 -63.939  21.407  0.00  0.00     0.167 HD
ENDBRANCH   9  11
ENDBRANCH   1   9
TORSDOF 6
ENDMDL
MODEL 2
REMARK VINA RESULT:      -3.9     30.738     31.454
REMARK  6 active torsions:
REMARK  status: ('A' for Active; 'I' for Inactive)
REMARK    1  A    between atoms: S_1  and  C_7 
REMARK    2  A    between atoms: O_2  and  C_8 
REMARK    3  A    between atoms: N_4  and  C_6 
REMARK    4  A    between atoms: C_5  and  C_6 
REMARK    5  A    between atoms: C_5  and  C_7 
REMARK    6  A    between atoms: C_6  and  C_8 
ROOT
HETATM    1  C   UNK     0     -36.225 -33.944  13.931  0.00  0.00     0.315 C 
ENDROOT
BRANCH   1   2
HETATM    2  N   UNK     0     -34.926 -33.363  14.287  0.00  0.00     0.093 N 
HETATM    3  H   UNK     0     -34.450 -33.975  14.949  0.00  0.00     0.314 HD
HETATM    4  H   UNK     0     -35.070 -32.479  14.771  0.00  0.00     0.314 HD
ENDBRANCH   1   2
BRANCH   1   5
HETATM    5  C   UNK     0     -37.340 -33.158  14.636  0.00  0.00     0.056 C 
BRANCH   5   6
HETATM    6  C   UNK     0     -36.884 -31.925  15.421  0.00  0.00     0.076 C 
BRANCH   6   7
HETATM    7  S   UNK     0     -37.312 -30.359  14.603  0.00  0.00    -0.173 SA
HETATM    8  C   UNK     0     -38.708 -30.951  13.622  0.00  0.00     0.089 C 
ENDBRANCH   6   7
ENDBRANCH   5   6
ENDBRANCH   1   5
BRANCH   1   9
HETATM    9  C   UNK     0     -36.347 -33.834  12.421  0.00  0.00     0.173 C 
HETATM   10  O   UNK     0     -36.272 -32.791  11.783  0.00  0.00    -0.648 OA
BRANCH   9  11
HETATM   11  O   UNK     0     -36.527 -35.043  11.829  0.00  0.00    -0.775 OA
HETATM   12  H   UNK     0     -37.144 -35.612  12.337  0.00  0.00     0.167 HD
ENDBRANCH   9  11
ENDBRANCH   1   9
TORSDOF 6
ENDMDL
MODEL 3
REMARK VINA RESULT:      -3.9      2.470      2.785
REMARK  6 active torsions:
REMARK  status: ('A' for Active; 'I' for Inactive)
REMARK    1  A    between atoms: S_1  and  C_7 
REMARK    2  A    between atoms: O_2  and  C_8 
REMARK    3  A    between atoms: N_4  and  C_6 
REMARK    4  A    between atoms: C_5  and  C_6 
REMARK    5  A    between atoms: C_5  and  C_7 
REMARK    6  A    between atoms: C_6  and  C_8 
ROOT
HETATM    1  C   UNK     0     -29.931 -62.275  21.228  0.00  0.00     0.315 C 
ENDROOT
BRANCH   1   2
HETATM    2  N   UNK     0     -31.025 -62.962  21.923  0.00  0.00     0.093 N 
HETATM    3  H   UNK     0     -30.658 -63.444  22.743  0.00  0.00     0.314 HD
HETATM    4  H   UNK     0     -31.411 -63.686  21.318  0.00  0.00     0.314 HD
ENDBRANCH   1   2
BRANCH   1   5
HETATM    5  C   UNK     0     -29.784 -60.856  21.796  0.00  0.00     0.056 C 
BRANCH   5   6
HETATM    6  C   UNK     0     -29.526 -59.755  20.763  0.00  0.00     0.076 C 
BRANCH   6   7
HETATM    7  S   UNK     0     -27.782 -59.250  20.677  0.00  0.00    -0.173 SA
HETATM    8  C   UNK     0     -28.035 -57.467  20.528  0.00  0.00     0.089 C 
ENDBRANCH   6   7
ENDBRANCH   5   6
ENDBRANCH   1   5
BRANCH   1   9
HETATM    9  C   UNK     0     -28.679 -63.098  21.477  0.00  0.00     0.173 C 
HETATM   10  O   UNK     0     -27.589 -62.895  20.957  0.00  0.00    -0.648 OA
BRANCH   9  11
HETATM   11  O   UNK     0     -28.887 -64.093  22.378  0.00  0.00    -0.775 OA
HETATM   12  H   UNK     0     -28.781 -63.779  23.301  0.00  0.00     0.167 HD
ENDBRANCH   9  11
ENDBRANCH   1   9
TORSDOF 6
ENDMDL
