MODEL 1
REMARK VINA RESULT:      -4.6      0.000      0.000
REMARK  6 active torsions:
REMARK  status: ('A' for Active; 'I' for Inactive)
REMARK    1  A    between atoms: S_1  and  C_7 
REMARK    2  A    between atoms: O_2  and  C_8 
REMARK    3  A    between atoms: N_4  and  C_6 
REMARK    4  A    between atoms: C_5  and  C_6 
REMARK    5  A    between atoms: C_5  and  C_7 
REMARK    6  A    between atoms: C_6  and  C_8 
ROOT
HETATM    1  C   UNK     0     167.602  -4.868 344.115  0.00  0.00     0.315 C 
ENDROOT
BRANCH   1   2
HETATM    2  N   UNK     0     168.369  -6.104 344.303  0.00  0.00     0.093 N 
HETATM    3  H   UNK     0     168.888  -6.315 343.451  0.00  0.00     0.314 HD
HETATM    4  H   UNK     0     167.728  -6.884 344.444  0.00  0.00     0.314 HD
ENDBRANCH   1   2
BRANCH   1   5
HETATM    5  C   UNK     0     166.171  -5.078 344.630  0.00  0.00     0.056 C 
BRANCH   5   6
HETATM    6  C   UNK     0     165.059  -4.861 343.600  0.00  0.00     0.076 C 
BRANCH   6   7
HETATM    7  S   UNK     0     164.736  -3.106 343.255  0.00  0.00    -0.173 SA
HETATM    8  C   UNK     0     162.963  -3.226 342.932  0.00  0.00     0.089 C 
ENDBRANCH   6   7
ENDBRANCH   5   6
ENDBRANCH   1   5
BRANCH   1   9
HETATM    9  C   UNK     0     168.319  -3.792 344.911  0.00  0.00     0.173 C 
HETATM   10  O   UNK     0     168.003  -2.608 344.938  0.00  0.00    -0.648 OA
BRANCH   9  11
HETATM   11  O   UNK     0     169.357  -4.289 345.632  0.00  0.00    -0.775 OA
HETATM   12  H   UNK     0     169.933  -4.870 345.091  0.00  0.00     0.167 HD
ENDBRANCH   9  11
ENDBRANCH   1   9
TORSDOF 6
ENDMDL
MODEL 2
REMARK VINA RESULT:      -4.6      2.204      2.533
REMARK  6 active torsions:
REMARK  status: ('A' for Active; 'I' for Inactive)
REMARK    1  A    between atoms: S_1  and  C_7 
REMARK    2  A    between atoms: O_2  and  C_8 
REMARK    3  A    between atoms: N_4  and  C_6 
REMARK    4  A    between atoms: C_5  and  C_6 
REMARK    5  A    between atoms: C_5  and  C_7 
REMARK    6  A    between atoms: C_6  and  C_8 
ROOT
HETATM    1  C   UNK     0     167.658  -4.229 345.167  0.00  0.00     0.315 C 
ENDROOT
BRANCH   1   2
HETATM    2  N   UNK     0     169.101  -4.230 345.428  0.00  0.00     0.093 N 
HETATM    3  H   UNK     0     169.533  -5.019 344.948  0.00  0.00     0.314 HD
HETATM    4  H   UNK     0     169.267  -4.378 346.422  0.00  0.00     0.314 HD
ENDBRANCH   1   2
BRANCH   1   5
HETATM    5  C   UNK     0     167.323  -3.100 344.181  0.00  0.00     0.056 C 
BRANCH   5   6
HETATM    6  C   UNK     0     167.677  -3.374 342.717  0.00  0.00     0.076 C 
BRANCH   6   7
HETATM    7  S   UNK     0     166.302  -3.043 341.575  0.00  0.00    -0.173 SA
HETATM    8  C   UNK     0     164.967  -2.968 342.790  0.00  0.00     0.089 C 
ENDBRANCH   6   7
ENDBRANCH   5   6
ENDBRANCH   1   5
BRANCH   1   9
HETATM    9  C   UNK     0     167.326  -5.588 344.576  0.00  0.00     0.173 C 
HETATM   10  O   UNK     0     166.194  -6.012 344.378  0.00  0.00    -0.648 OA
BRANCH   9  11
HETATM   11  O   UNK     0     168.440  -6.297 344.256  0.00  0.00    -0.775 OA
HETATM   12  H   UNK     0     169.109  -5.741 343.803  0.00  0.00     0.167 HD
ENDBRANCH   9  11
ENDBRANCH   1   9
TORSDOF 6
ENDMDL
MODEL 3
REMARK VINA RESULT:      -4.5      0.949      1.010
REMARK  6 active torsions:
REMARK  status: ('A' for Active; 'I' for Inactive)
REMARK    1  A    between atoms: S_1  and  C_7 
REMARK    2  A    between atoms: O_2  and  C_8 
REMARK    3  A    between atoms: N_4  and  C_6 
REMARK    4  A    between atoms: C_5  and  C_6 
REMARK    5  A    between atoms: C_5  and  C_7 
REMARK    6  A    between atoms: C_6  and  C_8 
ROOT
HETATM    1  C   UNK     0     167.608  -4.908 344.088  0.00  0.00     0.315 C 
ENDROOT
BRANCH   1   2
HETATM    2  N   UNK     0     168.354  -6.149 344.325  0.00  0.00     0.093 N 
HETATM    3  H   UNK     0     168.419  -6.320 345.327  0.00  0.00     0.314 HD
HETATM    4  H   UNK     0     169.311  -6.038 343.993  0.00  0.00     0.314 HD
ENDBRANCH   1   2
BRANCH   1   5
HETATM    5  C   UNK     0     166.158  -5.092 344.561  0.00  0.00     0.056 C 
BRANCH   5   6
HETATM    6  C   UNK     0     165.080  -4.809 343.512  0.00  0.00     0.076 C 
BRANCH   6   7
HETATM    7  S   UNK     0     164.790  -3.034 343.245  0.00  0.00    -0.173 SA
HETATM    8  C   UNK     0     165.697  -2.853 341.693  0.00  0.00     0.089 C 
ENDBRANCH   6   7
ENDBRANCH   5   6
ENDBRANCH   1   5
BRANCH   1   9
HETATM    9  C   UNK     0     168.311  -3.824 344.884  0.00  0.00     0.173 C 
HETATM   10  O   UNK     0     167.996  -2.640 344.892  0.00  0.00    -0.648 OA
BRANCH   9  11
HETATM   11  O   UNK     0     169.337  -4.313 345.627  0.00  0.00    -0.775 OA
HETATM   12  H   UNK     0     169.255  -4.066 346.573  0.00  0.00     0.167 HD
ENDBRANCH   9  11
ENDBRANCH   1   9
TORSDOF 6
ENDMDL
