MODEL 1
REMARK VINA RESULT:      -4.6      0.000      0.000
REMARK  6 active torsions:
REMARK  status: ('A' for Active; 'I' for Inactive)
REMARK    1  A    between atoms: S_1  and  C_7 
REMARK    2  A    between atoms: O_2  and  C_8 
REMARK    3  A    between atoms: N_4  and  C_6 
REMARK    4  A    between atoms: C_5  and  C_6 
REMARK    5  A    between atoms: C_5  and  C_7 
REMARK    6  A    between atoms: C_6  and  C_8 
ROOT
HETATM    1  C   UNK     0     -13.173  29.505  -3.894  0.00  0.00     0.315 C 
ENDROOT
BRANCH   1   2
HETATM    2  N   UNK     0     -14.109  28.964  -4.886  0.00  0.00     0.093 N 
HETATM    3  H   UNK     0     -13.791  28.044  -5.188  0.00  0.00     0.314 HD
HETATM    4  H   UNK     0     -14.102  29.553  -5.717  0.00  0.00     0.314 HD
ENDBRANCH   1   2
BRANCH   1   5
HETATM    5  C   UNK     0     -12.394  30.672  -4.519  0.00  0.00     0.056 C 
BRANCH   5   6
HETATM    6  C   UNK     0     -10.902  30.418  -4.756  0.00  0.00     0.076 C 
BRANCH   6   7
HETATM    7  S   UNK     0     -10.555  28.761  -5.415  0.00  0.00    -0.173 SA
HETATM    8  C   UNK     0      -8.914  29.089  -6.095  0.00  0.00     0.089 C 
ENDBRANCH   6   7
ENDBRANCH   5   6
ENDBRANCH   1   5
BRANCH   1   9
HETATM    9  C   UNK     0     -14.013  29.974  -2.719  0.00  0.00     0.173 C 
HETATM   10  O   UNK     0     -13.726  30.904  -1.976  0.00  0.00    -0.648 OA
BRANCH   9  11
HETATM   11  O   UNK     0     -15.158  29.256  -2.586  0.00  0.00    -0.775 OA
HETATM   12  H   UNK     0     -15.522  29.312  -1.676  0.00  0.00     0.167 HD
ENDBRANCH   9  11
ENDBRANCH   1   9
TORSDOF 6
ENDMDL
MODEL 2
REMARK VINA RESULT:      -4.6      3.076      3.830
REMARK  6 active torsions:
REMARK  status: ('A' for Active; 'I' for Inactive)
REMARK    1  A    between atoms: S_1  and  C_7 
REMARK    2  A    between atoms: O_2  and  C_8 
REMARK    3  A    between atoms: N_4  and  C_6 
REMARK    4  A    between atoms: C_5  and  C_6 
REMARK    5  A    between atoms: C_5  and  C_7 
REMARK    6  A    between atoms: C_6  and  C_8 
ROOT
HETATM    1  C   UNK     0     -15.710  30.133  -0.983  0.00  0.00     0.315 C 
ENDROOT
BRANCH   1   2
HETATM    2  N   UNK     0     -16.894  29.533  -1.608  0.00  0.00     0.093 N 
HETATM    3  H   UNK     0     -17.324  28.875  -0.959  0.00  0.00     0.314 HD
HETATM    4  H   UNK     0     -16.610  28.985  -2.419  0.00  0.00     0.314 HD
ENDBRANCH   1   2
BRANCH   1   5
HETATM    5  C   UNK     0     -14.650  30.399  -2.062  0.00  0.00     0.056 C 
BRANCH   5   6
HETATM    6  C   UNK     0     -14.137  29.162  -2.804  0.00  0.00     0.076 C 
BRANCH   6   7
HETATM    7  S   UNK     0     -13.479  29.540  -4.456  0.00  0.00    -0.173 SA
HETATM    8  C   UNK     0     -12.766  31.159  -4.088  0.00  0.00     0.089 C 
ENDBRANCH   6   7
ENDBRANCH   5   6
ENDBRANCH   1   5
BRANCH   1   9
HETATM    9  C   UNK     0     -16.172  31.427  -0.338  0.00  0.00     0.173 C 
HETATM   10  O   UNK     0     -15.441  32.235   0.221  0.00  0.00    -0.648 OA
BRANCH   9  11
HETATM   11  O   UNK     0     -17.511  31.618  -0.468  0.00  0.00    -0.775 OA
HETATM   12  H   UNK     0     -17.724  32.529  -0.762  0.00  0.00     0.167 HD
ENDBRANCH   9  11
ENDBRANCH   1   9
TORSDOF 6
ENDMDL
MODEL 3
REMARK VINA RESULT:      -4.3      1.710      2.105
REMARK  6 active torsions:
REMARK  status: ('A' for Active; 'I' for Inactive)
REMARK    1  A    between atoms: S_1  and  C_7 
REMARK    2  A    between atoms: O_2  and  C_8 
REMARK    3  A    between atoms: N_4  and  C_6 
REMARK    4  A    between atoms: C_5  and  C_6 
REMARK    5  A    between atoms: C_5  and  C_7 
REMARK    6  A    between atoms: C_6  and  C_8 
ROOT
HETATM    1  C   UNK     0     -13.730  29.678  -2.677  0.00  0.00     0.315 C 
ENDROOT
BRANCH   1   2
HETATM    2  N   UNK     0     -15.147  29.436  -2.386  0.00  0.00     0.093 N 
HETATM    3  H   UNK     0     -15.689  30.269  -2.615  0.00  0.00     0.314 HD
HETATM    4  H   UNK     0     -15.268  29.286  -1.385  0.00  0.00     0.314 HD
ENDBRANCH   1   2
BRANCH   1   5
HETATM    5  C   UNK     0     -13.539  29.797  -4.196  0.00  0.00     0.056 C 
BRANCH   5   6
HETATM    6  C   UNK     0     -13.250  28.485  -4.930  0.00  0.00     0.076 C 
BRANCH   6   7
HETATM    7  S   UNK     0     -11.490  28.259  -5.324  0.00  0.00    -0.173 SA
HETATM    8  C   UNK     0     -10.931  29.946  -4.998  0.00  0.00     0.089 C 
ENDBRANCH   6   7
ENDBRANCH   5   6
ENDBRANCH   1   5
BRANCH   1   9
HETATM    9  C   UNK     0     -13.361  30.973  -1.975  0.00  0.00     0.173 C 
HETATM   10  O   UNK     0     -12.218  31.347  -1.741  0.00  0.00    -0.648 OA
BRANCH   9  11
HETATM   11  O   UNK     0     -14.454  31.710  -1.645  0.00  0.00    -0.775 OA
HETATM   12  H   UNK     0     -14.978  31.961  -2.435  0.00  0.00     0.167 HD
ENDBRANCH   9  11
ENDBRANCH   1   9
TORSDOF 6
ENDMDL
