MODEL 1
REMARK VINA RESULT:      -4.7      0.000      0.000
REMARK  6 active torsions:
REMARK  status: ('A' for Active; 'I' for Inactive)
REMARK    1  A    between atoms: S_1  and  C_7 
REMARK    2  A    between atoms: O_2  and  C_8 
REMARK    3  A    between atoms: N_4  and  C_6 
REMARK    4  A    between atoms: C_5  and  C_6 
REMARK    5  A    between atoms: C_5  and  C_7 
REMARK    6  A    between atoms: C_6  and  C_8 
ROOT
HETATM    1  C   UNK     0      37.185   5.106  39.254  0.00  0.00     0.315 C 
ENDROOT
BRANCH   1   2
HETATM    2  N   UNK     0      36.295   5.113  40.421  0.00  0.00     0.093 N 
HETATM    3  H   UNK     0      35.657   4.320  40.367  0.00  0.00     0.314 HD
HETATM    4  H   UNK     0      35.712   5.948  40.398  0.00  0.00     0.314 HD
ENDBRANCH   1   2
BRANCH   1   5
HETATM    5  C   UNK     0      37.152   3.716  38.602  0.00  0.00     0.056 C 
BRANCH   5   6
HETATM    6  C   UNK     0      38.518   3.118  38.253  0.00  0.00     0.076 C 
BRANCH   6   7
HETATM    7  S   UNK     0      39.290   3.895  36.803  0.00  0.00    -0.173 SA
HETATM    8  C   UNK     0      40.407   2.550  36.350  0.00  0.00     0.089 C 
ENDBRANCH   6   7
ENDBRANCH   5   6
ENDBRANCH   1   5
BRANCH   1   9
HETATM    9  C   UNK     0      36.659   6.169  38.305  0.00  0.00     0.173 C 
HETATM   10  O   UNK     0      36.258   5.960  37.167  0.00  0.00    -0.648 OA
BRANCH   9  11
HETATM   11  O   UNK     0      36.652   7.405  38.868  0.00  0.00    -0.775 OA
HETATM   12  H   UNK     0      36.565   7.362  39.845  0.00  0.00     0.167 HD
ENDBRANCH   9  11
ENDBRANCH   1   9
TORSDOF 6
ENDMDL
MODEL 2
REMARK VINA RESULT:      -4.6      1.714      1.875
REMARK  6 active torsions:
REMARK  status: ('A' for Active; 'I' for Inactive)
REMARK    1  A    between atoms: S_1  and  C_7 
REMARK    2  A    between atoms: O_2  and  C_8 
REMARK    3  A    between atoms: N_4  and  C_6 
REMARK    4  A    between atoms: C_5  and  C_6 
REMARK    5  A    between atoms: C_5  and  C_7 
REMARK    6  A    between atoms: C_6  and  C_8 
ROOT
HETATM    1  C   UNK     0      37.696   3.995  39.133  0.00  0.00     0.315 C 
ENDROOT
BRANCH   1   2
HETATM    2  N   UNK     0      36.945   2.861  39.683  0.00  0.00     0.093 N 
HETATM    3  H   UNK     0      36.833   2.983  40.689  0.00  0.00     0.314 HD
HETATM    4  H   UNK     0      37.484   2.005  39.560  0.00  0.00     0.314 HD
ENDBRANCH   1   2
BRANCH   1   5
HETATM    5  C   UNK     0      37.802   3.840  37.609  0.00  0.00     0.056 C 
BRANCH   5   6
HETATM    6  C   UNK     0      39.221   3.904  37.035  0.00  0.00     0.076 C 
BRANCH   6   7
HETATM    7  S   UNK     0      39.256   4.264  35.254  0.00  0.00    -0.173 SA
HETATM    8  C   UNK     0      40.720   3.299  34.822  0.00  0.00     0.089 C 
ENDBRANCH   6   7
ENDBRANCH   5   6
ENDBRANCH   1   5
BRANCH   1   9
HETATM    9  C   UNK     0      36.920   5.246  39.504  0.00  0.00     0.173 C 
HETATM   10  O   UNK     0      36.930   6.295  38.870  0.00  0.00    -0.648 OA
BRANCH   9  11
HETATM   11  O   UNK     0      36.171   5.075  40.624  0.00  0.00    -0.775 OA
HETATM   12  H   UNK     0      36.540   5.567  41.389  0.00  0.00     0.167 HD
ENDBRANCH   9  11
ENDBRANCH   1   9
TORSDOF 6
ENDMDL
MODEL 3
REMARK VINA RESULT:      -4.4      2.183      2.529
REMARK  6 active torsions:
REMARK  status: ('A' for Active; 'I' for Inactive)
REMARK    1  A    between atoms: S_1  and  C_7 
REMARK    2  A    between atoms: O_2  and  C_8 
REMARK    3  A    between atoms: N_4  and  C_6 
REMARK    4  A    between atoms: C_5  and  C_6 
REMARK    5  A    between atoms: C_5  and  C_7 
REMARK    6  A    between atoms: C_6  and  C_8 
ROOT
HETATM    1  C   UNK     0      37.189   3.898  38.057  0.00  0.00     0.315 C 
ENDROOT
BRANCH   1   2
HETATM    2  N   UNK     0      36.258   4.712  37.268  0.00  0.00     0.093 N 
HETATM    3  H   UNK     0      35.688   4.104  36.681  0.00  0.00     0.314 HD
HETATM    4  H   UNK     0      36.785   5.309  36.631  0.00  0.00     0.314 HD
ENDBRANCH   1   2
BRANCH   1   5
HETATM    5  C   UNK     0      38.630   4.270  37.681  0.00  0.00     0.056 C 
BRANCH   5   6
HETATM    6  C   UNK     0      39.569   3.090  37.411  0.00  0.00     0.076 C 
BRANCH   6   7
HETATM    7  S   UNK     0      40.371   3.173  35.783  0.00  0.00    -0.173 SA
HETATM    8  C   UNK     0      41.558   1.829  36.008  0.00  0.00     0.089 C 
ENDBRANCH   6   7
ENDBRANCH   5   6
ENDBRANCH   1   5
BRANCH   1   9
HETATM    9  C   UNK     0      36.905   4.211  39.516  0.00  0.00     0.173 C 
HETATM   10  O   UNK     0      36.936   5.329  40.014  0.00  0.00    -0.648 OA
BRANCH   9  11
HETATM   11  O   UNK     0      36.578   3.100  40.227  0.00  0.00    -0.775 OA
HETATM   12  H   UNK     0      37.372   2.594  40.501  0.00  0.00     0.167 HD
ENDBRANCH   9  11
ENDBRANCH   1   9
TORSDOF 6
ENDMDL
