MODEL 1
REMARK VINA RESULT:      -4.3      0.000      0.000
REMARK  6 active torsions:
REMARK  status: ('A' for Active; 'I' for Inactive)
REMARK    1  A    between atoms: S_1  and  C_7 
REMARK    2  A    between atoms: O_2  and  C_8 
REMARK    3  A    between atoms: N_4  and  C_6 
REMARK    4  A    between atoms: C_5  and  C_6 
REMARK    5  A    between atoms: C_5  and  C_7 
REMARK    6  A    between atoms: C_6  and  C_8 
ROOT
HETATM    1  C   UNK     0     -26.557   4.299  17.750  0.00  0.00     0.315 C 
ENDROOT
BRANCH   1   2
HETATM    2  N   UNK     0     -27.724   3.595  17.206  0.00  0.00     0.093 N 
HETATM    3  H   UNK     0     -28.549   4.189  17.289  0.00  0.00     0.314 HD
HETATM    4  H   UNK     0     -27.914   2.766  17.768  0.00  0.00     0.314 HD
ENDBRANCH   1   2
BRANCH   1   5
HETATM    5  C   UNK     0     -25.415   4.250  16.725  0.00  0.00     0.056 C 
BRANCH   5   6
HETATM    6  C   UNK     0     -24.006   4.431  17.297  0.00  0.00     0.076 C 
BRANCH   6   7
HETATM    7  S   UNK     0     -23.142   5.882  16.623  0.00  0.00    -0.173 SA
HETATM    8  C   UNK     0     -21.551   5.642  17.443  0.00  0.00     0.089 C 
ENDBRANCH   6   7
ENDBRANCH   5   6
ENDBRANCH   1   5
BRANCH   1   9
HETATM    9  C   UNK     0     -26.999   5.728  18.011  0.00  0.00     0.173 C 
HETATM   10  O   UNK     0     -26.261   6.639  18.367  0.00  0.00    -0.648 OA
BRANCH   9  11
HETATM   11  O   UNK     0     -28.325   5.908  17.780  0.00  0.00    -0.775 OA
HETATM   12  H   UNK     0     -28.780   5.062  17.580  0.00  0.00     0.167 HD
ENDBRANCH   9  11
ENDBRANCH   1   9
TORSDOF 6
ENDMDL
MODEL 2
REMARK VINA RESULT:      -4.1      1.997      2.296
REMARK  6 active torsions:
REMARK  status: ('A' for Active; 'I' for Inactive)
REMARK    1  A    between atoms: S_1  and  C_7 
REMARK    2  A    between atoms: O_2  and  C_8 
REMARK    3  A    between atoms: N_4  and  C_6 
REMARK    4  A    between atoms: C_5  and  C_6 
REMARK    5  A    between atoms: C_5  and  C_7 
REMARK    6  A    between atoms: C_6  and  C_8 
ROOT
HETATM    1  C   UNK     0     -26.466   4.952  17.243  0.00  0.00     0.315 C 
ENDROOT
BRANCH   1   2
HETATM    2  N   UNK     0     -27.270   5.793  18.137  0.00  0.00     0.093 N 
HETATM    3  H   UNK     0     -27.113   5.510  19.103  0.00  0.00     0.314 HD
HETATM    4  H   UNK     0     -28.260   5.634  17.953  0.00  0.00     0.314 HD
ENDBRANCH   1   2
BRANCH   1   5
HETATM    5  C   UNK     0     -25.024   4.893  17.767  0.00  0.00     0.056 C 
BRANCH   5   6
HETATM    6  C   UNK     0     -23.973   5.572  16.884  0.00  0.00     0.076 C 
BRANCH   6   7
HETATM    7  S   UNK     0     -22.323   4.823  17.032  0.00  0.00    -0.173 SA
HETATM    8  C   UNK     0     -21.369   6.339  17.266  0.00  0.00     0.089 C 
ENDBRANCH   6   7
ENDBRANCH   5   6
ENDBRANCH   1   5
BRANCH   1   9
HETATM    9  C   UNK     0     -27.109   3.576  17.252  0.00  0.00     0.173 C 
HETATM   10  O   UNK     0     -28.013   3.227  18.000  0.00  0.00    -0.648 OA
BRANCH   9  11
HETATM   11  O   UNK     0     -26.584   2.756  16.305  0.00  0.00    -0.775 OA
HETATM   12  H   UNK     0     -26.920   2.970  15.408  0.00  0.00     0.167 HD
ENDBRANCH   9  11
ENDBRANCH   1   9
TORSDOF 6
ENDMDL
MODEL 3
REMARK VINA RESULT:      -3.9     28.086     28.486
REMARK  6 active torsions:
REMARK  status: ('A' for Active; 'I' for Inactive)
REMARK    1  A    between atoms: S_1  and  C_7 
REMARK    2  A    between atoms: O_2  and  C_8 
REMARK    3  A    between atoms: N_4  and  C_6 
REMARK    4  A    between atoms: C_5  and  C_6 
REMARK    5  A    between atoms: C_5  and  C_7 
REMARK    6  A    between atoms: C_6  and  C_8 
ROOT
HETATM    1  C   UNK     0     -19.411 -23.158  15.276  0.00  0.00     0.315 C 
ENDROOT
BRANCH   1   2
HETATM    2  N   UNK     0     -18.313 -24.020  15.726  0.00  0.00     0.093 N 
HETATM    3  H   UNK     0     -18.008 -24.614  14.955  0.00  0.00     0.314 HD
HETATM    4  H   UNK     0     -18.651 -24.650  16.452  0.00  0.00     0.314 HD
ENDBRANCH   1   2
BRANCH   1   5
HETATM    5  C   UNK     0     -18.928 -22.298  14.099  0.00  0.00     0.056 C 
BRANCH   5   6
HETATM    6  C   UNK     0     -19.553 -20.903  14.000  0.00  0.00     0.076 C 
BRANCH   6   7
HETATM    7  S   UNK     0     -20.220 -20.305  15.581  0.00  0.00    -0.173 SA
HETATM    8  C   UNK     0     -19.811 -18.556  15.391  0.00  0.00     0.089 C 
ENDBRANCH   6   7
ENDBRANCH   5   6
ENDBRANCH   1   5
BRANCH   1   9
HETATM    9  C   UNK     0     -20.539 -24.082  14.854  0.00  0.00     0.173 C 
HETATM   10  O   UNK     0     -20.407 -25.079  14.154  0.00  0.00    -0.648 OA
BRANCH   9  11
HETATM   11  O   UNK     0     -21.738 -23.698  15.363  0.00  0.00    -0.775 OA
HETATM   12  H   UNK     0     -21.684 -23.511  16.325  0.00  0.00     0.167 HD
ENDBRANCH   9  11
ENDBRANCH   1   9
TORSDOF 6
ENDMDL
