MODEL 1
REMARK VINA RESULT:      -4.4      0.000      0.000
REMARK  6 active torsions:
REMARK  status: ('A' for Active; 'I' for Inactive)
REMARK    1  A    between atoms: S_1  and  C_7 
REMARK    2  A    between atoms: O_2  and  C_8 
REMARK    3  A    between atoms: N_4  and  C_6 
REMARK    4  A    between atoms: C_5  and  C_6 
REMARK    5  A    between atoms: C_5  and  C_7 
REMARK    6  A    between atoms: C_6  and  C_8 
ROOT
HETATM    1  C   UNK     0     -16.507  34.086  40.264  0.00  0.00     0.315 C 
ENDROOT
BRANCH   1   2
HETATM    2  N   UNK     0     -15.056  34.270  40.382  0.00  0.00     0.093 N 
HETATM    3  H   UNK     0     -14.636  33.423  40.766  0.00  0.00     0.314 HD
HETATM    4  H   UNK     0     -14.861  35.012  41.053  0.00  0.00     0.314 HD
ENDBRANCH   1   2
BRANCH   1   5
HETATM    5  C   UNK     0     -17.141  34.157  41.661  0.00  0.00     0.056 C 
BRANCH   5   6
HETATM    6  C   UNK     0     -16.828  35.422  42.466  0.00  0.00     0.076 C 
BRANCH   6   7
HETATM    7  S   UNK     0     -18.315  36.347  42.950  0.00  0.00    -0.173 SA
HETATM    8  C   UNK     0     -18.097  37.777  41.868  0.00  0.00     0.089 C 
ENDBRANCH   6   7
ENDBRANCH   5   6
ENDBRANCH   1   5
BRANCH   1   9
HETATM    9  C   UNK     0     -17.012  35.210  39.376  0.00  0.00     0.173 C 
HETATM   10  O   UNK     0     -18.165  35.332  38.984  0.00  0.00    -0.648 OA
BRANCH   9  11
HETATM   11  O   UNK     0     -16.036  36.105  39.072  0.00  0.00    -0.775 OA
HETATM   12  H   UNK     0     -15.370  36.177  39.789  0.00  0.00     0.167 HD
ENDBRANCH   9  11
ENDBRANCH   1   9
TORSDOF 6
ENDMDL
MODEL 2
REMARK VINA RESULT:      -4.4     14.976     15.397
REMARK  6 active torsions:
REMARK  status: ('A' for Active; 'I' for Inactive)
REMARK    1  A    between atoms: S_1  and  C_7 
REMARK    2  A    between atoms: O_2  and  C_8 
REMARK    3  A    between atoms: N_4  and  C_6 
REMARK    4  A    between atoms: C_5  and  C_6 
REMARK    5  A    between atoms: C_5  and  C_7 
REMARK    6  A    between atoms: C_6  and  C_8 
ROOT
HETATM    1  C   UNK     0      -6.143  29.896  49.387  0.00  0.00     0.315 C 
ENDROOT
BRANCH   1   2
HETATM    2  N   UNK     0      -6.398  30.542  48.094  0.00  0.00     0.093 N 
HETATM    3  H   UNK     0      -6.411  31.554  48.216  0.00  0.00     0.314 HD
HETATM    4  H   UNK     0      -7.326  30.284  47.762  0.00  0.00     0.314 HD
ENDBRANCH   1   2
BRANCH   1   5
HETATM    5  C   UNK     0      -7.066  28.678  49.533  0.00  0.00     0.056 C 
BRANCH   5   6
HETATM    6  C   UNK     0      -8.264  28.865  50.469  0.00  0.00     0.076 C 
BRANCH   6   7
HETATM    7  S   UNK     0      -7.815  29.617  52.062  0.00  0.00    -0.173 SA
HETATM    8  C   UNK     0      -9.439  30.269  52.509  0.00  0.00     0.089 C 
ENDBRANCH   6   7
ENDBRANCH   5   6
ENDBRANCH   1   5
BRANCH   1   9
HETATM    9  C   UNK     0      -4.683  29.480  49.380  0.00  0.00     0.173 C 
HETATM   10  O   UNK     0      -3.999  29.297  50.380  0.00  0.00    -0.648 OA
BRANCH   9  11
HETATM   11  O   UNK     0      -4.204  29.300  48.122  0.00  0.00    -0.775 OA
HETATM   12  H   UNK     0      -3.881  28.384  47.981  0.00  0.00     0.167 HD
ENDBRANCH   9  11
ENDBRANCH   1   9
TORSDOF 6
ENDMDL
MODEL 3
REMARK VINA RESULT:      -4.4      1.627      1.988
REMARK  6 active torsions:
REMARK  status: ('A' for Active; 'I' for Inactive)
REMARK    1  A    between atoms: S_1  and  C_7 
REMARK    2  A    between atoms: O_2  and  C_8 
REMARK    3  A    between atoms: N_4  and  C_6 
REMARK    4  A    between atoms: C_5  and  C_6 
REMARK    5  A    between atoms: C_5  and  C_7 
REMARK    6  A    between atoms: C_6  and  C_8 
ROOT
HETATM    1  C   UNK     0     -17.081  34.306  41.201  0.00  0.00     0.315 C 
ENDROOT
BRANCH   1   2
HETATM    2  N   UNK     0     -16.551  33.048  41.739  0.00  0.00     0.093 N 
HETATM    3  H   UNK     0     -17.290  32.347  41.755  0.00  0.00     0.314 HD
HETATM    4  H   UNK     0     -16.270  33.185  42.709  0.00  0.00     0.314 HD
ENDBRANCH   1   2
BRANCH   1   5
HETATM    5  C   UNK     0     -17.096  35.365  42.314  0.00  0.00     0.056 C 
BRANCH   5   6
HETATM    6  C   UNK     0     -17.960  36.599  42.040  0.00  0.00     0.076 C 
BRANCH   6   7
HETATM    7  S   UNK     0     -19.141  36.954  43.374  0.00  0.00    -0.173 SA
HETATM    8  C   UNK     0     -18.930  35.431  44.322  0.00  0.00     0.089 C 
ENDBRANCH   6   7
ENDBRANCH   5   6
ENDBRANCH   1   5
BRANCH   1   9
HETATM    9  C   UNK     0     -16.155  34.714  40.069  0.00  0.00     0.173 C 
HETATM   10  O   UNK     0     -16.468  35.434  39.129  0.00  0.00    -0.648 OA
BRANCH   9  11
HETATM   11  O   UNK     0     -14.903  34.209  40.219  0.00  0.00    -0.775 OA
HETATM   12  H   UNK     0     -14.806  33.336  39.782  0.00  0.00     0.167 HD
ENDBRANCH   9  11
ENDBRANCH   1   9
TORSDOF 6
ENDMDL
