MODEL 1
REMARK VINA RESULT:      -4.5      0.000      0.000
REMARK  6 active torsions:
REMARK  status: ('A' for Active; 'I' for Inactive)
REMARK    1  A    between atoms: S_1  and  C_7 
REMARK    2  A    between atoms: O_2  and  C_8 
REMARK    3  A    between atoms: N_4  and  C_6 
REMARK    4  A    between atoms: C_5  and  C_6 
REMARK    5  A    between atoms: C_5  and  C_7 
REMARK    6  A    between atoms: C_6  and  C_8 
ROOT
HETATM    1  C   UNK     0       9.581   9.690  -0.288  0.00  0.00     0.315 C 
ENDROOT
BRANCH   1   2
HETATM    2  N   UNK     0      10.203   8.437  -0.730  0.00  0.00     0.093 N 
HETATM    3  H   UNK     0       9.516   7.685  -0.695  0.00  0.00     0.314 HD
HETATM    4  H   UNK     0      10.942   8.175  -0.077  0.00  0.00     0.314 HD
ENDBRANCH   1   2
BRANCH   1   5
HETATM    5  C   UNK     0       9.539   9.720   1.247  0.00  0.00     0.056 C 
BRANCH   5   6
HETATM    6  C   UNK     0       8.338  10.444   1.861  0.00  0.00     0.076 C 
BRANCH   6   7
HETATM    7  S   UNK     0       7.849   9.773   3.478  0.00  0.00    -0.173 SA
HETATM    8  C   UNK     0       6.726   8.483   2.896  0.00  0.00     0.089 C 
ENDBRANCH   6   7
ENDBRANCH   5   6
ENDBRANCH   1   5
BRANCH   1   9
HETATM    9  C   UNK     0      10.442  10.814  -0.835  0.00  0.00     0.173 C 
HETATM   10  O   UNK     0      10.682  11.865  -0.252  0.00  0.00    -0.648 OA
BRANCH   9  11
HETATM   11  O   UNK     0      10.957  10.522  -2.058  0.00  0.00    -0.775 OA
HETATM   12  H   UNK     0      11.649  11.162  -2.326  0.00  0.00     0.167 HD
ENDBRANCH   9  11
ENDBRANCH   1   9
TORSDOF 6
ENDMDL
MODEL 2
REMARK VINA RESULT:      -4.4      1.735      2.074
REMARK  6 active torsions:
REMARK  status: ('A' for Active; 'I' for Inactive)
REMARK    1  A    between atoms: S_1  and  C_7 
REMARK    2  A    between atoms: O_2  and  C_8 
REMARK    3  A    between atoms: N_4  and  C_6 
REMARK    4  A    between atoms: C_5  and  C_6 
REMARK    5  A    between atoms: C_5  and  C_7 
REMARK    6  A    between atoms: C_6  and  C_8 
ROOT
HETATM    1  C   UNK     0       8.514   9.864   0.179  0.00  0.00     0.315 C 
ENDROOT
BRANCH   1   2
HETATM    2  N   UNK     0       9.501   8.913  -0.345  0.00  0.00     0.093 N 
HETATM    3  H   UNK     0       9.572   8.115   0.286  0.00  0.00     0.314 HD
HETATM    4  H   UNK     0      10.421   9.349  -0.355  0.00  0.00     0.314 HD
ENDBRANCH   1   2
BRANCH   1   5
HETATM    5  C   UNK     0       8.261   9.565   1.663  0.00  0.00     0.056 C 
BRANCH   5   6
HETATM    6  C   UNK     0       9.506   9.549   2.555  0.00  0.00     0.076 C 
BRANCH   6   7
HETATM    7  S   UNK     0       9.533  10.901   3.770  0.00  0.00    -0.173 SA
HETATM    8  C   UNK     0       8.141  10.363   4.788  0.00  0.00     0.089 C 
ENDBRANCH   6   7
ENDBRANCH   5   6
ENDBRANCH   1   5
BRANCH   1   9
HETATM    9  C   UNK     0       9.110  11.248  -0.008  0.00  0.00     0.173 C 
HETATM   10  O   UNK     0      10.264  11.478  -0.347  0.00  0.00    -0.648 OA
BRANCH   9  11
HETATM   11  O   UNK     0       8.204  12.235   0.221  0.00  0.00    -0.775 OA
HETATM   12  H   UNK     0       8.587  12.967   0.749  0.00  0.00     0.167 HD
ENDBRANCH   9  11
ENDBRANCH   1   9
TORSDOF 6
ENDMDL
MODEL 3
REMARK VINA RESULT:      -4.3      1.682      2.506
REMARK  6 active torsions:
REMARK  status: ('A' for Active; 'I' for Inactive)
REMARK    1  A    between atoms: S_1  and  C_7 
REMARK    2  A    between atoms: O_2  and  C_8 
REMARK    3  A    between atoms: N_4  and  C_6 
REMARK    4  A    between atoms: C_5  and  C_6 
REMARK    5  A    between atoms: C_5  and  C_7 
REMARK    6  A    between atoms: C_6  and  C_8 
ROOT
HETATM    1  C   UNK     0       9.546   9.757  -0.315  0.00  0.00     0.315 C 
ENDROOT
BRANCH   1   2
HETATM    2  N   UNK     0      10.250   8.513  -0.644  0.00  0.00     0.093 N 
HETATM    3  H   UNK     0       9.810   8.077  -1.454  0.00  0.00     0.314 HD
HETATM    4  H   UNK     0      10.149   7.851   0.124  0.00  0.00     0.314 HD
ENDBRANCH   1   2
BRANCH   1   5
HETATM    5  C   UNK     0       9.389   9.860   1.209  0.00  0.00     0.056 C 
BRANCH   5   6
HETATM    6  C   UNK     0      10.670   9.652   2.021  0.00  0.00     0.076 C 
BRANCH   6   7
HETATM    7  S   UNK     0      10.808  10.779   3.441  0.00  0.00    -0.173 SA
HETATM    8  C   UNK     0      12.155  11.812   2.822  0.00  0.00     0.089 C 
ENDBRANCH   6   7
ENDBRANCH   5   6
ENDBRANCH   1   5
BRANCH   1   9
HETATM    9  C   UNK     0      10.399  10.891  -0.855  0.00  0.00     0.173 C 
HETATM   10  O   UNK     0      10.580  11.965  -0.294  0.00  0.00    -0.648 OA
BRANCH   9  11
HETATM   11  O   UNK     0      10.979  10.578  -2.043  0.00  0.00    -0.775 OA
HETATM   12  H   UNK     0      11.902  10.906  -2.097  0.00  0.00     0.167 HD
ENDBRANCH   9  11
ENDBRANCH   1   9
TORSDOF 6
ENDMDL
