MODEL 1
REMARK VINA RESULT:      -8.1      0.000      0.000
REMARK  Name = C:\Users\Docking\Desktop\test protocol\1iep_ligandH.pdb
REMARK  8 active torsions:
REMARK  status: ('A' for Active; 'I' for Inactive)
REMARK    1  A    between atoms: _5  and  _11
REMARK    2  A    between atoms: _19  and  _21
REMARK    3  A    between atoms: _22  and  _66
REMARK    4  A    between atoms: _27  and  _30
REMARK    5  A    between atoms: _32  and  _33
REMARK    6  A    between atoms: _38  and  _43
REMARK    7  A    between atoms: _43  and  _46
REMARK    8  A    between atoms: _53  and  _55
REMARK                            x       y       z     vdW  Elec       q    Type
REMARK                         _______ _______ _______ _____ _____    ______ ____
ROOT
ATOM     10  C   UNL     1      14.732  21.980   6.933  0.00  0.00    +0.038 A 
ATOM     11  C   UNL     1      15.796  22.025   7.869  0.00  0.00    +0.047 A 
ATOM     12  C   UNL     1      16.765  20.943   7.960  0.00  0.00    +0.035 A 
ATOM     32  C   UNL     1      16.620  19.832   7.079  0.00  0.00    +0.024 A 
ATOM     33  C   UNL     1      15.544  19.770   6.122  0.00  0.00    +0.007 A 
ATOM     34  C   UNL     1      14.584  20.833   6.030  0.00  0.00    -0.029 A 
ATOM     35  C   UNL     1      13.446  20.710   4.990  0.00  0.00    +0.045 C 
ENDROOT
BRANCH  10   9
ATOM      4  C   UNL     1      10.694  24.169   8.327  0.00  0.00    +0.077 A 
ATOM      5  C   UNL     1      10.336  23.085   9.195  0.00  0.00    +0.048 A 
ATOM      6  C   UNL     1      11.214  21.979   9.249  0.00  0.00    +0.116 A 
ATOM      7  N   UNL     1      12.362  21.970   8.487  0.00  0.00    -0.223 NA
ATOM      8  C   UNL     1      12.677  23.031   7.659  0.00  0.00    +0.220 A 
ATOM      9  N   UNL     1      13.831  23.047   6.890  0.00  0.00    -0.283 N 
ATOM     36  H   UNL     1      14.023  23.845   6.286  0.00  0.00    +0.155 HD
ATOM     37  N   UNL     1      11.854  24.098   7.588  0.00  0.00    -0.214 NA
BRANCH   4   3
ATOM      1  C   UNL     1       8.498  27.318   9.078  0.00  0.00    +0.020 A 
ATOM      2  C   UNL     1       9.286  26.126   9.290  0.00  0.00    +0.013 A 
ATOM      3  C   UNL     1       9.869  25.408   8.164  0.00  0.00    +0.019 A 
ATOM     38  C   UNL     1       9.636  25.928   6.825  0.00  0.00    +0.120 A 
ATOM     39  N   UNL     1       8.872  27.078   6.651  0.00  0.00    -0.263 NA
ATOM     40  C   UNL     1       8.304  27.776   7.728  0.00  0.00    +0.111 A 
ENDBRANCH   4   3
ENDBRANCH  10   9
BRANCH  12  13
ATOM     13  N   UNL     1      17.861  20.930   8.896  0.00  0.00    -0.281 N 
ATOM     14  C   UNL     1      19.159  21.371   8.694  0.00  0.00    +0.248 C 
ATOM     30  O   UNL     1      19.632  21.651   7.602  0.00  0.00    -0.270 OA
ATOM     31  H   UNL     1      17.656  20.548   9.819  0.00  0.00    +0.155 HD
BRANCH  14  15
ATOM     15  C   UNL     1      20.067  21.509   9.873  0.00  0.00    +0.037 A 
ATOM     16  C   UNL     1      20.956  22.664  10.017  0.00  0.00    +0.013 A 
ATOM     17  C   UNL     1      21.834  22.764  11.156  0.00  0.00    +0.005 A 
ATOM     18  C   UNL     1      21.825  21.704  12.162  0.00  0.00    -0.033 A 
ATOM     28  C   UNL     1      20.928  20.572  11.997  0.00  0.00    +0.005 A 
ATOM     29  C   UNL     1      20.067  20.470  10.882  0.00  0.00    +0.013 A 
BRANCH  18  19
ATOM     19  C   UNL     1      22.743  21.717  13.399  0.00  0.00    +0.119 C 
BRANCH  19  20
ATOM     20  N   UNL     1      22.236  22.413  14.619  0.00  0.00    -0.302 NA
ATOM     21  C   UNL     1      22.525  23.916  14.585  0.00  0.00    +0.066 C 
ATOM     22  C   UNL     1      21.968  24.631  15.859  0.00  0.00    -0.064 C 
ATOM     23  N   UNL     1      22.577  23.990  17.108  0.00  0.00    +0.379 N 
ATOM     24  C   UNL     1      22.100  24.698  18.305  0.00  0.00    -0.096 C 
ATOM     25  H   UNL     1      23.682  24.126  17.052  0.00  0.00    -0.082 HD
ATOM     26  C   UNL     1      22.296  22.495  17.148  0.00  0.00    -0.064 C 
ATOM     27  C   UNL     1      22.828  21.798  15.864  0.00  0.00    +0.066 C 
ENDBRANCH  19  20
ENDBRANCH  18  19
ENDBRANCH  14  15
ENDBRANCH  12  13
TORSDOF 6
ENDMDL
MODEL 2
REMARK VINA RESULT:      -8.1      7.230     11.632
REMARK  Name = C:\Users\Docking\Desktop\test protocol\1iep_ligandH.pdb
REMARK  8 active torsions:
REMARK  status: ('A' for Active; 'I' for Inactive)
REMARK    1  A    between atoms: _5  and  _11
REMARK    2  A    between atoms: _19  and  _21
REMARK    3  A    between atoms: _22  and  _66
REMARK    4  A    between atoms: _27  and  _30
REMARK    5  A    between atoms: _32  and  _33
REMARK    6  A    between atoms: _38  and  _43
REMARK    7  A    between atoms: _43  and  _46
REMARK    8  A    between atoms: _53  and  _55
REMARK                            x       y       z     vdW  Elec       q    Type
REMARK                         _______ _______ _______ _____ _____    ______ ____
ROOT
ATOM     10  C   UNL     1      19.669  25.548   4.119  0.00  0.00    +0.038 A 
ATOM     11  C   UNL     1      18.369  25.395   4.664  0.00  0.00    +0.047 A 
ATOM     12  C   UNL     1      17.734  24.089   4.739  0.00  0.00    +0.035 A 
ATOM     32  C   UNL     1      18.453  22.958   4.253  0.00  0.00    +0.024 A 
ATOM     33  C   UNL     1      19.776  23.096   3.694  0.00  0.00    +0.007 A 
ATOM     34  C   UNL     1      20.406  24.383   3.615  0.00  0.00    -0.029 A 
ATOM     35  C   UNL     1      21.823  24.472   3.001  0.00  0.00    +0.045 C 
ENDROOT
BRANCH  10   9
ATOM      4  C   UNL     1      20.804  29.589   1.789  0.00  0.00    +0.077 A 
ATOM      5  C   UNL     1      20.254  29.102   0.557  0.00  0.00    +0.048 A 
ATOM      6  C   UNL     1      19.695  27.805   0.563  0.00  0.00    +0.116 A 
ATOM      7  N   UNL     1      19.692  27.058   1.721  0.00  0.00    -0.223 NA
ATOM      8  C   UNL     1      20.232  27.556   2.892  0.00  0.00    +0.220 A 
ATOM      9  N   UNL     1      20.231  26.826   4.071  0.00  0.00    -0.283 N 
ATOM     36  H   UNL     1      20.646  27.226   4.912  0.00  0.00    +0.155 HD
ATOM     37  N   UNL     1      20.772  28.792   2.912  0.00  0.00    -0.214 NA
BRANCH   4   3
ATOM      1  C   UNL     1      22.907  32.825   1.153  0.00  0.00    +0.020 A 
ATOM      2  C   UNL     1      22.333  31.514   0.956  0.00  0.00    +0.013 A 
ATOM      3  C   UNL     1      21.427  30.941   1.944  0.00  0.00    +0.019 A 
ATOM     38  C   UNL     1      21.119  31.728   3.128  0.00  0.00    +0.120 A 
ATOM     39  N   UNL     1      21.688  32.988   3.291  0.00  0.00    -0.263 NA
ATOM     40  C   UNL     1      22.563  33.548   2.349  0.00  0.00    +0.111 A 
ENDBRANCH   4   3
ENDBRANCH  10   9
BRANCH  12  13
ATOM     13  N   UNL     1      16.413  23.873   5.275  0.00  0.00    -0.281 N 
ATOM     14  C   UNL     1      16.053  23.107   6.372  0.00  0.00    +0.248 C 
ATOM     30  O   UNL     1      16.794  22.315   6.935  0.00  0.00    -0.270 OA
ATOM     31  H   UNL     1      15.650  24.341   4.786  0.00  0.00    +0.155 HD
BRANCH  14  15
ATOM     15  C   UNL     1      14.665  23.228   6.914  0.00  0.00    +0.037 A 
ATOM     16  C   UNL     1      13.502  23.263   6.023  0.00  0.00    +0.013 A 
ATOM     17  C   UNL     1      12.176  23.397   6.570  0.00  0.00    +0.005 A 
ATOM     18  C   UNL     1      12.005  23.497   8.018  0.00  0.00    -0.033 A 
ATOM     28  C   UNL     1      13.175  23.455   8.878  0.00  0.00    +0.005 A 
ATOM     29  C   UNL     1      14.477  23.324   8.346  0.00  0.00    +0.013 A 
BRANCH  18  19
ATOM     19  C   UNL     1      10.628  23.664   8.688  0.00  0.00    +0.119 C 
BRANCH  19  20
ATOM     20  N   UNL     1      10.087  22.493   9.440  0.00  0.00    -0.302 NA
ATOM     21  C   UNL     1      10.659  21.168   8.928  0.00  0.00    +0.066 C 
ATOM     22  C   UNL     1      10.100  19.955   9.741  0.00  0.00    -0.064 C 
ATOM     23  N   UNL     1       8.572  19.952   9.660  0.00  0.00    +0.379 N 
ATOM     24  C   UNL     1       8.046  18.780  10.375  0.00  0.00    -0.096 C 
ATOM     25  H   UNL     1       8.291  19.849   8.587  0.00  0.00    -0.082 HD
ATOM     26  C   UNL     1       7.995  21.267  10.164  0.00  0.00    -0.064 C 
ATOM     27  C   UNL     1       8.580  22.468   9.370  0.00  0.00    +0.066 C 
ENDBRANCH  19  20
ENDBRANCH  18  19
ENDBRANCH  14  15
ENDBRANCH  12  13
TORSDOF 6
ENDMDL
MODEL 3
REMARK VINA RESULT:      -7.7      5.809      8.410
REMARK  Name = C:\Users\Docking\Desktop\test protocol\1iep_ligandH.pdb
REMARK  8 active torsions:
REMARK  status: ('A' for Active; 'I' for Inactive)
REMARK    1  A    between atoms: _5  and  _11
REMARK    2  A    between atoms: _19  and  _21
REMARK    3  A    between atoms: _22  and  _66
REMARK    4  A    between atoms: _27  and  _30
REMARK    5  A    between atoms: _32  and  _33
REMARK    6  A    between atoms: _38  and  _43
REMARK    7  A    between atoms: _43  and  _46
REMARK    8  A    between atoms: _53  and  _55
REMARK                            x       y       z     vdW  Elec       q    Type
REMARK                         _______ _______ _______ _____ _____    ______ ____
ROOT
ATOM     10  C   UNL     1      10.991  23.755   8.621  0.00  0.00    +0.038 A 
ATOM     11  C   UNL     1      12.188  23.848   7.866  0.00  0.00    +0.047 A 
ATOM     12  C   UNL     1      13.477  23.522   8.457  0.00  0.00    +0.035 A 
ATOM     32  C   UNL     1      13.509  23.102   9.819  0.00  0.00    +0.024 A 
ATOM     33  C   UNL     1      12.302  23.003  10.601  0.00  0.00    +0.007 A 
ATOM     34  C   UNL     1      11.028  23.326  10.024  0.00  0.00    -0.029 A 
ATOM     35  C   UNL     1       9.767  23.208  10.912  0.00  0.00    +0.045 C 
ENDROOT
BRANCH  10   9
ATOM      4  C   UNL     1       7.582  26.898   7.380  0.00  0.00    +0.077 A 
ATOM      5  C   UNL     1       8.256  27.979   8.040  0.00  0.00    +0.048 A 
ATOM      6  C   UNL     1       9.473  27.683   8.694  0.00  0.00    +0.116 A 
ATOM      7  N   UNL     1       9.970  26.398   8.681  0.00  0.00    -0.223 NA
ATOM      8  C   UNL     1       9.295  25.378   8.036  0.00  0.00    +0.220 A 
ATOM      9  N   UNL     1       9.781  24.080   8.003  0.00  0.00    -0.283 N 
ATOM     36  H   UNL     1       9.249  23.355   7.523  0.00  0.00    +0.155 HD
ATOM     37  N   UNL     1       8.130  25.635   7.406  0.00  0.00    -0.214 NA
BRANCH   4   3
ATOM      1  C   UNL     1       3.814  27.537   6.546  0.00  0.00    +0.020 A 
ATOM      2  C   UNL     1       5.036  27.399   7.305  0.00  0.00    +0.013 A 
ATOM      3  C   UNL     1       6.288  27.054   6.643  0.00  0.00    +0.019 A 
ATOM     38  C   UNL     1       6.270  26.855   5.202  0.00  0.00    +0.120 A 
ATOM     39  N   UNL     1       5.077  26.994   4.498  0.00  0.00    -0.263 NA
ATOM     40  C   UNL     1       3.866  27.323   5.124  0.00  0.00    +0.111 A 
ENDBRANCH   4   3
ENDBRANCH  10   9
BRANCH  12  13
ATOM     13  N   UNL     1      14.726  23.605   7.742  0.00  0.00    -0.281 N 
ATOM     14  C   UNL     1      15.439  22.575   7.150  0.00  0.00    +0.248 C 
ATOM     30  O   UNL     1      15.215  21.387   7.330  0.00  0.00    -0.270 OA
ATOM     31  H   UNL     1      15.135  24.536   7.663  0.00  0.00    +0.155 HD
BRANCH  14  15
ATOM     15  C   UNL     1      16.573  22.913   6.237  0.00  0.00    +0.037 A 
ATOM     16  C   UNL     1      17.851  22.202   6.318  0.00  0.00    +0.013 A 
ATOM     17  C   UNL     1      18.934  22.560   5.436  0.00  0.00    +0.005 A 
ATOM     18  C   UNL     1      18.742  23.634   4.465  0.00  0.00    -0.033 A 
ATOM     28  C   UNL     1      17.462  24.319   4.403  0.00  0.00    +0.005 A 
ATOM     29  C   UNL     1      16.398  23.972   5.265  0.00  0.00    +0.013 A 
BRANCH  18  19
ATOM     19  C   UNL     1      19.850  24.096   3.499  0.00  0.00    +0.119 C 
BRANCH  19  20
ATOM     20  N   UNL     1      19.638  25.391   2.786  0.00  0.00    -0.302 NA
ATOM     21  C   UNL     1      19.708  25.228   1.265  0.00  0.00    +0.066 C 
ATOM     22  C   UNL     1      19.462  26.588   0.534  0.00  0.00    -0.064 C 
ATOM     23  N   UNL     1      20.488  27.615   1.016  0.00  0.00    +0.379 N 
ATOM     24  C   UNL     1      20.296  28.878   0.288  0.00  0.00    -0.096 C 
ATOM     25  H   UNL     1      21.501  27.227   0.759  0.00  0.00    -0.082 HD
ATOM     26  C   UNL     1      20.427  27.782   2.528  0.00  0.00    -0.064 C 
ATOM     27  C   UNL     1      20.644  26.419   3.244  0.00  0.00    +0.066 C 
ENDBRANCH  19  20
ENDBRANCH  18  19
ENDBRANCH  14  15
ENDBRANCH  12  13
TORSDOF 6
ENDMDL
MODEL 4
REMARK VINA RESULT:      -7.4     21.818     23.942
REMARK  Name = C:\Users\Docking\Desktop\test protocol\1iep_ligandH.pdb
REMARK  8 active torsions:
REMARK  status: ('A' for Active; 'I' for Inactive)
REMARK    1  A    between atoms: _5  and  _11
REMARK    2  A    between atoms: _19  and  _21
REMARK    3  A    between atoms: _22  and  _66
REMARK    4  A    between atoms: _27  and  _30
REMARK    5  A    between atoms: _32  and  _33
REMARK    6  A    between atoms: _38  and  _43
REMARK    7  A    between atoms: _43  and  _46
REMARK    8  A    between atoms: _53  and  _55
REMARK                            x       y       z     vdW  Elec       q    Type
REMARK                         _______ _______ _______ _____ _____    ______ ____
ROOT
ATOM     10  C   UNL     1       6.057  42.109  23.710  0.00  0.00    +0.038 A 
ATOM     11  C   UNL     1       7.383  41.793  23.317  0.00  0.00    +0.047 A 
ATOM     12  C   UNL     1       8.402  41.465  24.303  0.00  0.00    +0.035 A 
ATOM     32  C   UNL     1       8.035  41.466  25.680  0.00  0.00    +0.024 A 
ATOM     33  C   UNL     1       6.692  41.785  26.097  0.00  0.00    +0.007 A 
ATOM     34  C   UNL     1       5.683  42.111  25.130  0.00  0.00    -0.029 A 
ATOM     35  C   UNL     1       4.262  42.452  25.634  0.00  0.00    +0.045 C 
ENDROOT
BRANCH  10   9
ATOM      4  C   UNL     1       2.640  40.854  20.582  0.00  0.00    +0.077 A 
ATOM      5  C   UNL     1       2.751  39.466  20.927  0.00  0.00    +0.048 A 
ATOM      6  C   UNL     1       3.705  39.116  21.908  0.00  0.00    +0.116 A 
ATOM      7  N   UNL     1       4.484  40.089  22.495  0.00  0.00    -0.223 NA
ATOM      8  C   UNL     1       4.352  41.419  22.139  0.00  0.00    +0.220 A 
ATOM      9  N   UNL     1       5.119  42.416  22.722  0.00  0.00    -0.283 N 
ATOM     36  H   UNL     1       4.997  43.384  22.426  0.00  0.00    +0.155 HD
ATOM     37  N   UNL     1       3.449  41.779  21.203  0.00  0.00    -0.214 NA
BRANCH   4   3
ATOM      1  C   UNL     1       1.063  42.884  17.634  0.00  0.00    +0.020 A 
ATOM      2  C   UNL     1       2.031  42.409  18.595  0.00  0.00    +0.013 A 
ATOM      3  C   UNL     1       1.676  41.382  19.566  0.00  0.00    +0.019 A 
ATOM     38  C   UNL     1       0.321  40.851  19.536  0.00  0.00    +0.120 A 
ATOM     39  N   UNL     1      -0.591  41.329  18.600  0.00  0.00    -0.263 NA
ATOM     40  C   UNL     1      -0.260  42.318  17.662  0.00  0.00    +0.111 A 
ENDBRANCH   4   3
ENDBRANCH  10   9
BRANCH  12  13
ATOM     13  N   UNL     1       9.766  41.145  23.964  0.00  0.00    -0.281 N 
ATOM     14  C   UNL     1      10.679  41.926  23.273  0.00  0.00    +0.248 C 
ATOM     30  O   UNL     1      10.391  42.939  22.653  0.00  0.00    -0.270 OA
ATOM     31  H   UNL     1      10.100  40.231  24.271  0.00  0.00    +0.155 HD
BRANCH  14  15
ATOM     15  C   UNL     1      12.115  41.515  23.258  0.00  0.00    +0.037 A 
ATOM     16  C   UNL     1      13.180  42.459  23.609  0.00  0.00    +0.013 A 
ATOM     17  C   UNL     1      14.559  42.042  23.570  0.00  0.00    +0.005 A 
ATOM     18  C   UNL     1      14.881  40.672  23.179  0.00  0.00    -0.033 A 
ATOM     28  C   UNL     1      13.806  39.754  22.841  0.00  0.00    +0.005 A 
ATOM     29  C   UNL     1      12.453  40.160  22.877  0.00  0.00    +0.013 A 
BRANCH  18  19
ATOM     19  C   UNL     1      16.326  40.146  23.089  0.00  0.00    +0.119 C 
BRANCH  19  20
ATOM     20  N   UNL     1      17.332  41.021  22.416  0.00  0.00    -0.302 NA
ATOM     21  C   UNL     1      18.005  40.319  21.233  0.00  0.00    +0.066 C 
ATOM     22  C   UNL     1      19.037  41.257  20.527  0.00  0.00    -0.064 C 
ATOM     23  N   UNL     1      20.080  41.722  21.545  0.00  0.00    +0.379 N 
ATOM     24  C   UNL     1      21.085  42.557  20.872  0.00  0.00    -0.096 C 
ATOM     25  H   UNL     1      20.599  40.815  21.935  0.00  0.00    -0.082 HD
ATOM     26  C   UNL     1      19.419  42.419  22.726  0.00  0.00    -0.064 C 
ATOM     27  C   UNL     1      18.373  41.488  23.403  0.00  0.00    +0.066 C 
ENDBRANCH  19  20
ENDBRANCH  18  19
ENDBRANCH  14  15
ENDBRANCH  12  13
TORSDOF 6
ENDMDL
MODEL 5
REMARK VINA RESULT:      -7.4      7.095     12.091
REMARK  Name = C:\Users\Docking\Desktop\test protocol\1iep_ligandH.pdb
REMARK  8 active torsions:
REMARK  status: ('A' for Active; 'I' for Inactive)
REMARK    1  A    between atoms: _5  and  _11
REMARK    2  A    between atoms: _19  and  _21
REMARK    3  A    between atoms: _22  and  _66
REMARK    4  A    between atoms: _27  and  _30
REMARK    5  A    between atoms: _32  and  _33
REMARK    6  A    between atoms: _38  and  _43
REMARK    7  A    between atoms: _43  and  _46
REMARK    8  A    between atoms: _53  and  _55
REMARK                            x       y       z     vdW  Elec       q    Type
REMARK                         _______ _______ _______ _____ _____    ______ ____
ROOT
ATOM     10  C   UNL     1      19.784  25.387   4.156  0.00  0.00    +0.038 A 
ATOM     11  C   UNL     1      18.461  25.184   4.624  0.00  0.00    +0.047 A 
ATOM     12  C   UNL     1      17.884  23.850   4.695  0.00  0.00    +0.035 A 
ATOM     32  C   UNL     1      18.685  22.745   4.282  0.00  0.00    +0.024 A 
ATOM     33  C   UNL     1      20.031  22.934   3.802  0.00  0.00    +0.007 A 
ATOM     34  C   UNL     1      20.605  24.247   3.728  0.00  0.00    -0.029 A 
ATOM     35  C   UNL     1      22.051  24.391   3.199  0.00  0.00    +0.045 C 
ENDROOT
BRANCH  10   9
ATOM      4  C   UNL     1      20.801  29.451   1.813  0.00  0.00    +0.077 A 
ATOM      5  C   UNL     1      20.312  28.927   0.571  0.00  0.00    +0.048 A 
ATOM      6  C   UNL     1      19.814  27.605   0.575  0.00  0.00    +0.116 A 
ATOM      7  N   UNL     1      19.809  26.871   1.742  0.00  0.00    -0.223 NA
ATOM      8  C   UNL     1      20.290  27.406   2.923  0.00  0.00    +0.220 A 
ATOM      9  N   UNL     1      20.288  26.689   4.109  0.00  0.00    -0.283 N 
ATOM     36  H   UNL     1      20.658  27.117   4.958  0.00  0.00    +0.155 HD
ATOM     37  N   UNL     1      20.772  28.666   2.944  0.00  0.00    -0.214 NA
BRANCH   4   3
ATOM      1  C   UNL     1      22.704  32.806   1.162  0.00  0.00    +0.020 A 
ATOM      2  C   UNL     1      22.194  31.469   0.962  0.00  0.00    +0.013 A 
ATOM      3  C   UNL     1      21.355  30.833   1.970  0.00  0.00    +0.019 A 
ATOM     38  C   UNL     1      21.048  31.583   3.178  0.00  0.00    +0.120 A 
ATOM     39  N   UNL     1      21.554  32.869   3.344  0.00  0.00    -0.263 NA
ATOM     40  C   UNL     1      22.364  33.490   2.381  0.00  0.00    +0.111 A 
ENDBRANCH   4   3
ENDBRANCH  10   9
BRANCH  12  13
ATOM     13  N   UNL     1      16.544  23.583   5.154  0.00  0.00    -0.281 N 
ATOM     14  C   UNL     1      16.154  22.986   6.342  0.00  0.00    +0.248 C 
ATOM     30  O   UNL     1      16.910  22.394   7.098  0.00  0.00    -0.270 OA
ATOM     31  H   UNL     1      15.791  23.869   4.528  0.00  0.00    +0.155 HD
BRANCH  14  15
ATOM     15  C   UNL     1      14.714  23.042   6.739  0.00  0.00    +0.037 A 
ATOM     16  C   UNL     1      14.305  23.579   8.040  0.00  0.00    +0.013 A 
ATOM     17  C   UNL     1      12.911  23.605   8.405  0.00  0.00    +0.005 A 
ATOM     18  C   UNL     1      11.915  23.094   7.467  0.00  0.00    -0.033 A 
ATOM     28  C   UNL     1      12.348  22.571   6.181  0.00  0.00    +0.005 A 
ATOM     29  C   UNL     1      13.714  22.543   5.820  0.00  0.00    +0.013 A 
BRANCH  18  19
ATOM     19  C   UNL     1      10.408  23.063   7.781  0.00  0.00    +0.119 C 
BRANCH  19  20
ATOM     20  N   UNL     1       9.536  24.025   7.043  0.00  0.00    -0.302 NA
ATOM     21  C   UNL     1       9.810  24.009   5.537  0.00  0.00    +0.066 C 
ATOM     22  C   UNL     1       8.873  25.004   4.777  0.00  0.00    -0.064 C 
ATOM     23  N   UNL     1       9.060  26.412   5.347  0.00  0.00    +0.379 N 
ATOM     24  C   UNL     1       8.224  27.360   4.596  0.00  0.00    -0.096 C 
ATOM     25  H   UNL     1      10.125  26.702   5.190  0.00  0.00    -0.082 HD
ATOM     26  C   UNL     1       8.792  26.436   6.845  0.00  0.00    -0.064 C 
ATOM     27  C   UNL     1       9.707  25.422   7.587  0.00  0.00    +0.066 C 
ENDBRANCH  19  20
ENDBRANCH  18  19
ENDBRANCH  14  15
ENDBRANCH  12  13
TORSDOF 6
ENDMDL
