MODEL 1
REMARK VINA RESULT:      -8.7      0.000      0.000
REMARK  Name = C:\Users\Docking\Desktop\test protocol\1iep_ligandH.pdb
REMARK  8 active torsions:
REMARK  status: ('A' for Active; 'I' for Inactive)
REMARK    1  A    between atoms: _5  and  _11
REMARK    2  A    between atoms: _19  and  _21
REMARK    3  A    between atoms: _22  and  _66
REMARK    4  A    between atoms: _27  and  _30
REMARK    5  A    between atoms: _32  and  _33
REMARK    6  A    between atoms: _38  and  _43
REMARK    7  A    between atoms: _43  and  _46
REMARK    8  A    between atoms: _53  and  _55
REMARK                            x       y       z     vdW  Elec       q    Type
REMARK                         _______ _______ _______ _____ _____    ______ ____
ROOT
ATOM     10  C   UNL     1      64.751  15.342  18.852  0.00  0.00    +0.038 A 
ATOM     11  C   UNL     1      64.891  16.244  17.767  0.00  0.00    +0.047 A 
ATOM     12  C   UNL     1      64.837  17.683  17.973  0.00  0.00    +0.035 A 
ATOM     32  C   UNL     1      64.643  18.169  19.299  0.00  0.00    +0.024 A 
ATOM     33  C   UNL     1      64.498  17.266  20.413  0.00  0.00    +0.007 A 
ATOM     34  C   UNL     1      64.547  15.845  20.216  0.00  0.00    -0.029 A 
ATOM     35  C   UNL     1      64.380  14.924  21.447  0.00  0.00    +0.045 C 
ENDROOT
BRANCH  10   9
ATOM      4  C   UNL     1      67.077  11.405  17.391  0.00  0.00    +0.077 A 
ATOM      5  C   UNL     1      68.264  12.149  17.084  0.00  0.00    +0.048 A 
ATOM      6  C   UNL     1      68.233  13.543  17.310  0.00  0.00    +0.116 A 
ATOM      7  N   UNL     1      67.094  14.139  17.806  0.00  0.00    -0.223 NA
ATOM      8  C   UNL     1      65.965  13.393  18.090  0.00  0.00    +0.220 A 
ATOM      9  N   UNL     1      64.811  13.970  18.597  0.00  0.00    -0.283 N 
ATOM     36  H   UNL     1      63.997  13.386  18.787  0.00  0.00    +0.155 HD
ATOM     37  N   UNL     1      65.969  12.060  17.882  0.00  0.00    -0.214 NA
BRANCH   4   3
ATOM      1  C   UNL     1      65.633   7.776  17.182  0.00  0.00    +0.020 A 
ATOM      2  C   UNL     1      65.696   9.207  17.369  0.00  0.00    +0.013 A 
ATOM      3  C   UNL     1      66.955   9.924  17.209  0.00  0.00    +0.019 A 
ATOM     38  C   UNL     1      68.141   9.158  16.857  0.00  0.00    +0.120 A 
ATOM     39  N   UNL     1      68.049   7.780  16.684  0.00  0.00    -0.263 NA
ATOM     40  C   UNL     1      66.844   7.079  16.837  0.00  0.00    +0.111 A 
ENDBRANCH   4   3
ENDBRANCH  10   9
BRANCH  12  13
ATOM     13  N   UNL     1      64.965  18.647  16.908  0.00  0.00    -0.281 N 
ATOM     14  C   UNL     1      66.115  19.028  16.237  0.00  0.00    +0.248 C 
ATOM     30  O   UNL     1      67.250  18.750  16.598  0.00  0.00    -0.270 OA
ATOM     31  H   UNL     1      64.102  19.105  16.614  0.00  0.00    +0.155 HD
BRANCH  14  15
ATOM     15  C   UNL     1      65.988  19.847  14.994  0.00  0.00    +0.037 A 
ATOM     16  C   UNL     1      66.999  19.783  13.935  0.00  0.00    +0.013 A 
ATOM     17  C   UNL     1      66.861  20.597  12.753  0.00  0.00    +0.005 A 
ATOM     18  C   UNL     1      65.705  21.480  12.623  0.00  0.00    -0.033 A 
ATOM     28  C   UNL     1      64.715  21.520  13.686  0.00  0.00    +0.005 A 
ATOM     29  C   UNL     1      64.847  20.725  14.846  0.00  0.00    +0.013 A 
BRANCH  18  19
ATOM     19  C   UNL     1      65.488  22.399  11.406  0.00  0.00    +0.119 C 
BRANCH  19  20
ATOM     20  N   UNL     1      64.105  22.478  10.847  0.00  0.00    -0.302 NA
ATOM     21  C   UNL     1      64.087  22.272   9.330  0.00  0.00    +0.066 C 
ATOM     22  C   UNL     1      62.630  22.334   8.765  0.00  0.00    -0.064 C 
ATOM     23  N   UNL     1      61.999  23.677   9.137  0.00  0.00    +0.379 N 
ATOM     24  C   UNL     1      60.651  23.763   8.557  0.00  0.00    -0.096 C 
ATOM     25  H   UNL     1      62.618  24.481   8.674  0.00  0.00    -0.082 HD
ATOM     26  C   UNL     1      62.016  23.891  10.644  0.00  0.00    -0.064 C 
ATOM     27  C   UNL     1      63.465  23.798  11.199  0.00  0.00    +0.066 C 
ENDBRANCH  19  20
ENDBRANCH  18  19
ENDBRANCH  14  15
ENDBRANCH  12  13
TORSDOF 6
ENDMDL
MODEL 2
REMARK VINA RESULT:      -8.6      1.604      2.269
REMARK  Name = C:\Users\Docking\Desktop\test protocol\1iep_ligandH.pdb
REMARK  8 active torsions:
REMARK  status: ('A' for Active; 'I' for Inactive)
REMARK    1  A    between atoms: _5  and  _11
REMARK    2  A    between atoms: _19  and  _21
REMARK    3  A    between atoms: _22  and  _66
REMARK    4  A    between atoms: _27  and  _30
REMARK    5  A    between atoms: _32  and  _33
REMARK    6  A    between atoms: _38  and  _43
REMARK    7  A    between atoms: _43  and  _46
REMARK    8  A    between atoms: _53  and  _55
REMARK                            x       y       z     vdW  Elec       q    Type
REMARK                         _______ _______ _______ _____ _____    ______ ____
ROOT
ATOM     10  C   UNL     1      64.724  15.266  18.892  0.00  0.00    +0.038 A 
ATOM     11  C   UNL     1      64.874  16.173  17.812  0.00  0.00    +0.047 A 
ATOM     12  C   UNL     1      64.833  17.611  18.025  0.00  0.00    +0.035 A 
ATOM     32  C   UNL     1      64.641  18.092  19.354  0.00  0.00    +0.024 A 
ATOM     33  C   UNL     1      64.486  17.184  20.463  0.00  0.00    +0.007 A 
ATOM     34  C   UNL     1      64.523  15.764  20.258  0.00  0.00    -0.029 A 
ATOM     35  C   UNL     1      64.346  14.838  21.484  0.00  0.00    +0.045 C 
ENDROOT
BRANCH  10   9
ATOM      4  C   UNL     1      67.020  11.314  17.425  0.00  0.00    +0.077 A 
ATOM      5  C   UNL     1      68.217  12.048  17.131  0.00  0.00    +0.048 A 
ATOM      6  C   UNL     1      68.199  13.441  17.365  0.00  0.00    +0.116 A 
ATOM      7  N   UNL     1      67.062  14.045  17.856  0.00  0.00    -0.223 NA
ATOM      8  C   UNL     1      65.923  13.309  18.128  0.00  0.00    +0.220 A 
ATOM      9  N   UNL     1      64.772  13.895  18.630  0.00  0.00    -0.283 N 
ATOM     36  H   UNL     1      63.950  13.319  18.810  0.00  0.00    +0.155 HD
ATOM     37  N   UNL     1      65.915  11.977  17.912  0.00  0.00    -0.214 NA
BRANCH   4   3
ATOM      1  C   UNL     1      65.537   7.704  17.167  0.00  0.00    +0.020 A 
ATOM      2  C   UNL     1      65.613   9.134  17.361  0.00  0.00    +0.013 A 
ATOM      3  C   UNL     1      66.884   9.836  17.234  0.00  0.00    +0.019 A 
ATOM     38  C   UNL     1      68.068   9.056  16.905  0.00  0.00    +0.120 A 
ATOM     39  N   UNL     1      67.964   7.680  16.725  0.00  0.00    -0.263 NA
ATOM     40  C   UNL     1      66.747   6.994  16.846  0.00  0.00    +0.111 A 
ENDBRANCH   4   3
ENDBRANCH  10   9
BRANCH  12  13
ATOM     13  N   UNL     1      64.970  18.580  16.966  0.00  0.00    -0.281 N 
ATOM     14  C   UNL     1      66.133  19.001  16.343  0.00  0.00    +0.248 C 
ATOM     30  O   UNL     1      67.261  18.763  16.750  0.00  0.00    -0.270 OA
ATOM     31  H   UNL     1      64.105  19.008  16.636  0.00  0.00    +0.155 HD
BRANCH  14  15
ATOM     15  C   UNL     1      66.029  19.816  15.094  0.00  0.00    +0.037 A 
ATOM     16  C   UNL     1      66.989  19.654  13.999  0.00  0.00    +0.013 A 
ATOM     17  C   UNL     1      66.875  20.465  12.812  0.00  0.00    +0.005 A 
ATOM     18  C   UNL     1      65.796  21.445  12.715  0.00  0.00    -0.033 A 
ATOM     28  C   UNL     1      64.855  21.581  13.815  0.00  0.00    +0.005 A 
ATOM     29  C   UNL     1      64.964  20.789  14.980  0.00  0.00    +0.013 A 
BRANCH  18  19
ATOM     19  C   UNL     1      65.612  22.368  11.496  0.00  0.00    +0.119 C 
BRANCH  19  20
ATOM     20  N   UNL     1      65.744  23.838  11.724  0.00  0.00    -0.302 NA
ATOM     21  C   UNL     1      65.261  24.652  10.521  0.00  0.00    +0.066 C 
ATOM     22  C   UNL     1      65.385  26.188  10.786  0.00  0.00    -0.064 C 
ATOM     23  N   UNL     1      66.838  26.528  11.122  0.00  0.00    +0.379 N 
ATOM     24  C   UNL     1      66.969  27.980  11.315  0.00  0.00    -0.096 C 
ATOM     25  H   UNL     1      67.463  26.245  10.244  0.00  0.00    -0.082 HD
ATOM     26  C   UNL     1      67.327  25.721  12.316  0.00  0.00    -0.064 C 
ATOM     27  C   UNL     1      67.172  24.197  12.054  0.00  0.00    +0.066 C 
ENDBRANCH  19  20
ENDBRANCH  18  19
ENDBRANCH  14  15
ENDBRANCH  12  13
TORSDOF 6
ENDMDL
MODEL 3
REMARK VINA RESULT:      -8.5      9.879     16.242
REMARK  Name = C:\Users\Docking\Desktop\test protocol\1iep_ligandH.pdb
REMARK  8 active torsions:
REMARK  status: ('A' for Active; 'I' for Inactive)
REMARK    1  A    between atoms: _5  and  _11
REMARK    2  A    between atoms: _19  and  _21
REMARK    3  A    between atoms: _22  and  _66
REMARK    4  A    between atoms: _27  and  _30
REMARK    5  A    between atoms: _32  and  _33
REMARK    6  A    between atoms: _38  and  _43
REMARK    7  A    between atoms: _43  and  _46
REMARK    8  A    between atoms: _53  and  _55
REMARK                            x       y       z     vdW  Elec       q    Type
REMARK                         _______ _______ _______ _____ _____    ______ ____
ROOT
ATOM     10  C   UNL     1      59.356  18.270  23.430  0.00  0.00    +0.038 A 
ATOM     11  C   UNL     1      59.294  18.012  24.823  0.00  0.00    +0.047 A 
ATOM     12  C   UNL     1      58.458  18.817  25.701  0.00  0.00    +0.035 A 
ATOM     32  C   UNL     1      57.696  19.875  25.125  0.00  0.00    +0.024 A 
ATOM     33  C   UNL     1      57.748  20.151  23.711  0.00  0.00    +0.007 A 
ATOM     34  C   UNL     1      58.573  19.363  22.840  0.00  0.00    -0.029 A 
ATOM     35  C   UNL     1      58.594  19.709  21.333  0.00  0.00    +0.045 C 
ENDROOT
BRANCH  10   9
ATOM      4  C   UNL     1      63.427  17.446  21.025  0.00  0.00    +0.077 A 
ATOM      5  C   UNL     1      63.956  18.737  21.361  0.00  0.00    +0.048 A 
ATOM      6  C   UNL     1      63.146  19.585  22.148  0.00  0.00    +0.116 A 
ATOM      7  N   UNL     1      61.901  19.164  22.564  0.00  0.00    -0.223 NA
ATOM      8  C   UNL     1      61.421  17.914  22.221  0.00  0.00    +0.220 A 
ATOM      9  N   UNL     1      60.175  17.466  22.634  0.00  0.00    -0.283 N 
ATOM     36  H   UNL     1      59.853  16.540  22.353  0.00  0.00    +0.155 HD
ATOM     37  N   UNL     1      62.174  17.085  21.468  0.00  0.00    -0.214 NA
BRANCH   4   3
ATOM      1  C   UNL     1      64.286  14.300  18.865  0.00  0.00    +0.020 A 
ATOM      2  C   UNL     1      63.529  15.245  19.653  0.00  0.00    +0.013 A 
ATOM      3  C   UNL     1      64.165  16.436  20.203  0.00  0.00    +0.019 A 
ATOM     38  C   UNL     1      65.580  16.643  19.934  0.00  0.00    +0.120 A 
ATOM     39  N   UNL     1      66.284  15.715  19.173  0.00  0.00    -0.263 NA
ATOM     40  C   UNL     1      65.683  14.565  18.640  0.00  0.00    +0.111 A 
ENDBRANCH   4   3
ENDBRANCH  10   9
BRANCH  12  13
ATOM     13  N   UNL     1      58.361  18.607  27.124  0.00  0.00    -0.281 N 
ATOM     14  C   UNL     1      57.403  17.882  27.815  0.00  0.00    +0.248 C 
ATOM     30  O   UNL     1      56.357  17.479  27.328  0.00  0.00    -0.270 OA
ATOM     31  H   UNL     1      59.086  19.046  27.691  0.00  0.00    +0.155 HD
BRANCH  14  15
ATOM     15  C   UNL     1      57.634  17.573  29.258  0.00  0.00    +0.037 A 
ATOM     16  C   UNL     1      57.040  16.391  29.887  0.00  0.00    +0.013 A 
ATOM     17  C   UNL     1      57.265  16.125  31.286  0.00  0.00    +0.005 A 
ATOM     18  C   UNL     1      58.090  17.044  32.066  0.00  0.00    -0.033 A 
ATOM     28  C   UNL     1      58.673  18.206  31.416  0.00  0.00    +0.005 A 
ATOM     29  C   UNL     1      58.453  18.470  30.045  0.00  0.00    +0.013 A 
BRANCH  18  19
ATOM     19  C   UNL     1      58.366  16.850  33.568  0.00  0.00    +0.119 C 
BRANCH  19  20
ATOM     20  N   UNL     1      59.361  15.804  33.952  0.00  0.00    -0.302 NA
ATOM     21  C   UNL     1      58.816  14.861  35.028  0.00  0.00    +0.066 C 
ATOM     22  C   UNL     1      59.861  13.759  35.401  0.00  0.00    -0.064 C 
ATOM     23  N   UNL     1      61.155  14.425  35.870  0.00  0.00    +0.379 N 
ATOM     24  C   UNL     1      62.119  13.393  36.276  0.00  0.00    -0.096 C 
ATOM     25  H   UNL     1      60.914  15.036  36.771  0.00  0.00    -0.082 HD
ATOM     26  C   UNL     1      61.702  15.367  34.807  0.00  0.00    -0.064 C 
ATOM     27  C   UNL     1      60.646  16.440  34.422  0.00  0.00    +0.066 C 
ENDBRANCH  19  20
ENDBRANCH  18  19
ENDBRANCH  14  15
ENDBRANCH  12  13
TORSDOF 6
ENDMDL
MODEL 4
REMARK VINA RESULT:      -8.1     19.849     26.470
REMARK  Name = C:\Users\Docking\Desktop\test protocol\1iep_ligandH.pdb
REMARK  8 active torsions:
REMARK  status: ('A' for Active; 'I' for Inactive)
REMARK    1  A    between atoms: _5  and  _11
REMARK    2  A    between atoms: _19  and  _21
REMARK    3  A    between atoms: _22  and  _66
REMARK    4  A    between atoms: _27  and  _30
REMARK    5  A    between atoms: _32  and  _33
REMARK    6  A    between atoms: _38  and  _43
REMARK    7  A    between atoms: _43  and  _46
REMARK    8  A    between atoms: _53  and  _55
REMARK                            x       y       z     vdW  Elec       q    Type
REMARK                         _______ _______ _______ _____ _____    ______ ____
ROOT
ATOM     10  C   UNL     1      60.003  14.282  35.089  0.00  0.00    +0.038 A 
ATOM     11  C   UNL     1      60.778  14.106  36.264  0.00  0.00    +0.047 A 
ATOM     12  C   UNL     1      62.032  13.370  36.235  0.00  0.00    +0.035 A 
ATOM     32  C   UNL     1      62.470  12.829  34.991  0.00  0.00    +0.024 A 
ATOM     33  C   UNL     1      61.695  12.998  33.787  0.00  0.00    +0.007 A 
ATOM     34  C   UNL     1      60.455  13.720  33.810  0.00  0.00    -0.029 A 
ATOM     35  C   UNL     1      59.662  13.864  32.490  0.00  0.00    +0.045 C 
ENDROOT
BRANCH  10   9
ATOM      4  C   UNL     1      55.219  14.505  35.402  0.00  0.00    +0.077 A 
ATOM      5  C   UNL     1      55.091  13.076  35.366  0.00  0.00    +0.048 A 
ATOM      6  C   UNL     1      56.280  12.321  35.260  0.00  0.00    +0.116 A 
ATOM      7  N   UNL     1      57.501  12.957  35.195  0.00  0.00    -0.223 NA
ATOM      8  C   UNL     1      57.589  14.336  35.230  0.00  0.00    +0.220 A 
ATOM      9  N   UNL     1      58.806  14.997  35.174  0.00  0.00    -0.283 N 
ATOM     36  H   UNL     1      58.829  16.016  35.195  0.00  0.00    +0.155 HD
ATOM     37  N   UNL     1      56.468  15.080  35.330  0.00  0.00    -0.214 NA
BRANCH   4   3
ATOM      1  C   UNL     1      51.613  15.931  35.912  0.00  0.00    +0.020 A 
ATOM      2  C   UNL     1      52.701  14.987  35.812  0.00  0.00    +0.013 A 
ATOM      3  C   UNL     1      54.055  15.440  35.516  0.00  0.00    +0.019 A 
ATOM     38  C   UNL     1      54.275  16.865  35.326  0.00  0.00    +0.120 A 
ATOM     39  N   UNL     1      53.206  17.751  35.427  0.00  0.00    -0.263 NA
ATOM     40  C   UNL     1      51.899  17.327  35.709  0.00  0.00    +0.111 A 
ENDBRANCH   4   3
ENDBRANCH  10   9
BRANCH  12  13
ATOM     13  N   UNL     1      62.857  13.152  37.398  0.00  0.00    -0.281 N 
ATOM     14  C   UNL     1      63.561  14.094  38.131  0.00  0.00    +0.248 C 
ATOM     30  O   UNL     1      63.760  15.244  37.769  0.00  0.00    -0.270 OA
ATOM     31  H   UNL     1      62.931  12.187  37.719  0.00  0.00    +0.155 HD
BRANCH  14  15
ATOM     15  C   UNL     1      64.139  13.696  39.451  0.00  0.00    +0.037 A 
ATOM     16  C   UNL     1      65.268  12.767  39.536  0.00  0.00    +0.013 A 
ATOM     17  C   UNL     1      65.796  12.386  40.823  0.00  0.00    +0.005 A 
ATOM     18  C   UNL     1      65.194  12.937  42.035  0.00  0.00    -0.033 A 
ATOM     28  C   UNL     1      64.078  13.861  41.921  0.00  0.00    +0.005 A 
ATOM     29  C   UNL     1      63.558  14.235  40.662  0.00  0.00    +0.013 A 
BRANCH  18  19
ATOM     19  C   UNL     1      65.679  12.570  43.450  0.00  0.00    +0.119 C 
BRANCH  19  20
ATOM     20  N   UNL     1      64.682  11.955  44.376  0.00  0.00    -0.302 NA
ATOM     21  C   UNL     1      64.608  12.696  45.714  0.00  0.00    +0.066 C 
ATOM     22  C   UNL     1      63.544  12.053  46.663  0.00  0.00    -0.064 C 
ATOM     23  N   UNL     1      63.883  10.577  46.878  0.00  0.00    +0.379 N 
ATOM     24  C   UNL     1      62.917   9.984  47.815  0.00  0.00    -0.096 C 
ATOM     25  H   UNL     1      64.890  10.528  47.354  0.00  0.00    -0.082 HD
ATOM     26  C   UNL     1      63.961   9.834  45.552  0.00  0.00    -0.064 C 
ATOM     27  C   UNL     1      65.000  10.498  44.607  0.00  0.00    +0.066 C 
ENDBRANCH  19  20
ENDBRANCH  18  19
ENDBRANCH  14  15
ENDBRANCH  12  13
TORSDOF 6
ENDMDL
MODEL 5
REMARK VINA RESULT:      -8.1      2.232      3.063
REMARK  Name = C:\Users\Docking\Desktop\test protocol\1iep_ligandH.pdb
REMARK  8 active torsions:
REMARK  status: ('A' for Active; 'I' for Inactive)
REMARK    1  A    between atoms: _5  and  _11
REMARK    2  A    between atoms: _19  and  _21
REMARK    3  A    between atoms: _22  and  _66
REMARK    4  A    between atoms: _27  and  _30
REMARK    5  A    between atoms: _32  and  _33
REMARK    6  A    between atoms: _38  and  _43
REMARK    7  A    between atoms: _43  and  _46
REMARK    8  A    between atoms: _53  and  _55
REMARK                            x       y       z     vdW  Elec       q    Type
REMARK                         _______ _______ _______ _____ _____    ______ ____
ROOT
ATOM     10  C   UNL     1      66.647  15.244  18.599  0.00  0.00    +0.038 A 
ATOM     11  C   UNL     1      66.307  16.313  17.732  0.00  0.00    +0.047 A 
ATOM     12  C   UNL     1      65.313  17.305  18.114  0.00  0.00    +0.035 A 
ATOM     32  C   UNL     1      64.689  17.178  19.389  0.00  0.00    +0.024 A 
ATOM     33  C   UNL     1      65.022  16.097  20.282  0.00  0.00    +0.007 A 
ATOM     34  C   UNL     1      65.999  15.114  19.910  0.00  0.00    -0.029 A 
ATOM     35  C   UNL     1      66.313  13.973  20.905  0.00  0.00    +0.045 C 
ENDROOT
BRANCH  10   9
ATOM      4  C   UNL     1      67.929  10.916  16.966  0.00  0.00    +0.077 A 
ATOM      5  C   UNL     1      66.574  10.447  16.972  0.00  0.00    +0.048 A 
ATOM      6  C   UNL     1      65.577  11.348  17.409  0.00  0.00    +0.116 A 
ATOM      7  N   UNL     1      65.922  12.621  17.808  0.00  0.00    -0.223 NA
ATOM      8  C   UNL     1      67.239  13.041  17.792  0.00  0.00    +0.220 A 
ATOM      9  N   UNL     1      67.608  14.320  18.181  0.00  0.00    -0.283 N 
ATOM     36  H   UNL     1      68.591  14.589  18.162  0.00  0.00    +0.155 HD
ATOM     37  N   UNL     1      68.210  12.199  17.380  0.00  0.00    -0.214 NA
BRANCH   4   3
ATOM      1  C   UNL     1      71.494   9.799  15.804  0.00  0.00    +0.020 A 
ATOM      2  C   UNL     1      70.402  10.648  16.223  0.00  0.00    +0.013 A 
ATOM      3  C   UNL     1      69.094  10.083  16.529  0.00  0.00    +0.019 A 
ATOM     38  C   UNL     1      68.922   8.643  16.401  0.00  0.00    +0.120 A 
ATOM     39  N   UNL     1      69.991   7.851  15.995  0.00  0.00    -0.263 NA
ATOM     40  C   UNL     1      71.254   8.384  15.696  0.00  0.00    +0.111 A 
ENDBRANCH   4   3
ENDBRANCH  10   9
BRANCH  12  13
ATOM     13  N   UNL     1      64.921  18.407  17.272  0.00  0.00    -0.281 N 
ATOM     14  C   UNL     1      65.735  19.361  16.684  0.00  0.00    +0.248 C 
ATOM     30  O   UNL     1      66.910  19.537  16.968  0.00  0.00    -0.270 OA
ATOM     31  H   UNL     1      63.921  18.495  17.087  0.00  0.00    +0.155 HD
BRANCH  14  15
ATOM     15  C   UNL     1      65.156  20.259  15.639  0.00  0.00    +0.037 A 
ATOM     16  C   UNL     1      65.219  19.911  14.217  0.00  0.00    +0.013 A 
ATOM     17  C   UNL     1      64.667  20.803  13.228  0.00  0.00    +0.005 A 
ATOM     18  C   UNL     1      64.046  22.053  13.659  0.00  0.00    -0.033 A 
ATOM     28  C   UNL     1      63.992  22.372  15.076  0.00  0.00    +0.005 A 
ATOM     29  C   UNL     1      64.533  21.500  16.048  0.00  0.00    +0.013 A 
BRANCH  18  19
ATOM     19  C   UNL     1      63.451  23.075  12.672  0.00  0.00    +0.119 C 
BRANCH  19  20
ATOM     20  N   UNL     1      62.817  24.296  13.251  0.00  0.00    -0.302 NA
ATOM     21  C   UNL     1      61.297  24.156  13.365  0.00  0.00    +0.066 C 
ATOM     22  C   UNL     1      60.653  25.434  13.994  0.00  0.00    -0.064 C 
ATOM     23  N   UNL     1      61.022  26.656  13.151  0.00  0.00    +0.379 N 
ATOM     24  C   UNL     1      60.370  27.851  13.706  0.00  0.00    -0.096 C 
ATOM     25  H   UNL     1      60.615  26.494  12.126  0.00  0.00    -0.082 HD
ATOM     26  C   UNL     1      62.532  26.801  13.030  0.00  0.00    -0.064 C 
ATOM     27  C   UNL     1      63.166  25.514  12.431  0.00  0.00    +0.066 C 
ENDBRANCH  19  20
ENDBRANCH  18  19
ENDBRANCH  14  15
ENDBRANCH  12  13
TORSDOF 6
ENDMDL
