MODEL 1
REMARK VINA RESULT:      -7.9      0.000      0.000
REMARK  Name = C:\Users\Docking\Desktop\test protocol\1iep_ligandH.pdb
REMARK  8 active torsions:
REMARK  status: ('A' for Active; 'I' for Inactive)
REMARK    1  A    between atoms: _5  and  _11
REMARK    2  A    between atoms: _19  and  _21
REMARK    3  A    between atoms: _22  and  _66
REMARK    4  A    between atoms: _27  and  _30
REMARK    5  A    between atoms: _32  and  _33
REMARK    6  A    between atoms: _38  and  _43
REMARK    7  A    between atoms: _43  and  _46
REMARK    8  A    between atoms: _53  and  _55
REMARK                            x       y       z     vdW  Elec       q    Type
REMARK                         _______ _______ _______ _____ _____    ______ ____
ROOT
ATOM     10  C   UNL     1      43.726  12.981  69.069  0.00  0.00    +0.038 A 
ATOM     11  C   UNL     1      43.893  14.311  68.603  0.00  0.00    +0.047 A 
ATOM     12  C   UNL     1      43.221  14.777  67.400  0.00  0.00    +0.035 A 
ATOM     32  C   UNL     1      42.383  13.864  66.697  0.00  0.00    +0.024 A 
ATOM     33  C   UNL     1      42.202  12.509  67.156  0.00  0.00    +0.007 A 
ATOM     34  C   UNL     1      42.864  12.042  68.340  0.00  0.00    -0.029 A 
ATOM     35  C   UNL     1      42.639  10.577  68.781  0.00  0.00    +0.045 C 
ENDROOT
BRANCH  10   9
ATOM      4  C   UNL     1      47.450  10.970  71.330  0.00  0.00    +0.077 A 
ATOM      5  C   UNL     1      48.107  10.654  70.094  0.00  0.00    +0.048 A 
ATOM      6  C   UNL     1      47.449  11.021  68.899  0.00  0.00    +0.116 A 
ATOM      7  N   UNL     1      46.226  11.655  68.948  0.00  0.00    -0.223 NA
ATOM      8  C   UNL     1      45.620  11.943  70.157  0.00  0.00    +0.220 A 
ATOM      9  N   UNL     1      44.395  12.587  70.229  0.00  0.00    -0.283 N 
ATOM     36  H   UNL     1      43.977  12.774  71.141  0.00  0.00    +0.155 HD
ATOM     37  N   UNL     1      46.227  11.602  71.312  0.00  0.00    -0.214 NA
BRANCH   4   3
ATOM      1  C   UNL     1      47.810  10.281  75.164  0.00  0.00    +0.020 A 
ATOM      2  C   UNL     1      47.210  10.595  73.888  0.00  0.00    +0.013 A 
ATOM      3  C   UNL     1      48.020  10.650  72.677  0.00  0.00    +0.019 A 
ATOM     38  C   UNL     1      49.445  10.379  72.794  0.00  0.00    +0.120 A 
ATOM     39  N   UNL     1      49.995  10.081  74.037  0.00  0.00    -0.263 NA
ATOM     40  C   UNL     1      49.226  10.027  75.208  0.00  0.00    +0.111 A 
ENDBRANCH   4   3
ENDBRANCH  10   9
BRANCH  12  13
ATOM     13  N   UNL     1      43.360  16.113  66.876  0.00  0.00    -0.281 N 
ATOM     14  C   UNL     1      42.369  17.064  66.695  0.00  0.00    +0.248 C 
ATOM     30  O   UNL     1      41.171  16.834  66.758  0.00  0.00    -0.270 OA
ATOM     31  H   UNL     1      44.303  16.391  66.604  0.00  0.00    +0.155 HD
BRANCH  14  15
ATOM     15  C   UNL     1      42.767  18.471  66.384  0.00  0.00    +0.037 A 
ATOM     16  C   UNL     1      41.927  19.603  66.782  0.00  0.00    +0.013 A 
ATOM     17  C   UNL     1      42.325  20.950  66.454  0.00  0.00    +0.005 A 
ATOM     18  C   UNL     1      43.572  21.170  65.725  0.00  0.00    -0.033 A 
ATOM     28  C   UNL     1      44.389  20.029  65.347  0.00  0.00    +0.005 A 
ATOM     29  C   UNL     1      44.001  18.708  65.666  0.00  0.00    +0.013 A 
BRANCH  18  19
ATOM     19  C   UNL     1      44.065  22.571  65.316  0.00  0.00    +0.119 C 
BRANCH  19  20
ATOM     20  N   UNL     1      45.103  23.209  66.178  0.00  0.00    -0.302 NA
ATOM     21  C   UNL     1      44.763  24.667  66.502  0.00  0.00    +0.066 C 
ATOM     22  C   UNL     1      45.849  25.313  67.424  0.00  0.00    -0.064 C 
ATOM     23  N   UNL     1      47.216  25.214  66.744  0.00  0.00    +0.379 N 
ATOM     24  C   UNL     1      48.229  25.872  67.581  0.00  0.00    -0.096 C 
ATOM     25  H   UNL     1      47.156  25.774  65.782  0.00  0.00    -0.082 HD
ATOM     26  C   UNL     1      47.560  23.768  66.415  0.00  0.00    -0.064 C 
ATOM     27  C   UNL     1      46.460  23.127  65.524  0.00  0.00    +0.066 C 
ENDBRANCH  19  20
ENDBRANCH  18  19
ENDBRANCH  14  15
ENDBRANCH  12  13
TORSDOF 6
ENDMDL
MODEL 2
REMARK VINA RESULT:      -7.8      4.329     12.458
REMARK  Name = C:\Users\Docking\Desktop\test protocol\1iep_ligandH.pdb
REMARK  8 active torsions:
REMARK  status: ('A' for Active; 'I' for Inactive)
REMARK    1  A    between atoms: _5  and  _11
REMARK    2  A    between atoms: _19  and  _21
REMARK    3  A    between atoms: _22  and  _66
REMARK    4  A    between atoms: _27  and  _30
REMARK    5  A    between atoms: _32  and  _33
REMARK    6  A    between atoms: _38  and  _43
REMARK    7  A    between atoms: _43  and  _46
REMARK    8  A    between atoms: _53  and  _55
REMARK                            x       y       z     vdW  Elec       q    Type
REMARK                         _______ _______ _______ _____ _____    ______ ____
ROOT
ATOM     10  C   UNL     1      44.644  18.933  64.515  0.00  0.00    +0.038 A 
ATOM     11  C   UNL     1      44.409  17.874  65.428  0.00  0.00    +0.047 A 
ATOM     12  C   UNL     1      43.518  16.775  65.093  0.00  0.00    +0.035 A 
ATOM     32  C   UNL     1      42.885  16.784  63.815  0.00  0.00    +0.024 A 
ATOM     33  C   UNL     1      43.112  17.853  62.875  0.00  0.00    +0.007 A 
ATOM     34  C   UNL     1      43.988  18.941  63.202  0.00  0.00    -0.029 A 
ATOM     35  C   UNL     1      44.189  20.064  62.157  0.00  0.00    +0.045 C 
ENDROOT
BRANCH  10   9
ATOM      4  C   UNL     1      45.519  23.208  66.515  0.00  0.00    +0.077 A 
ATOM      5  C   UNL     1      44.132  23.417  66.815  0.00  0.00    +0.048 A 
ATOM      6  C   UNL     1      43.225  22.404  66.432  0.00  0.00    +0.116 A 
ATOM      7  N   UNL     1      43.682  21.270  65.796  0.00  0.00    -0.223 NA
ATOM      8  C   UNL     1      45.026  21.100  65.520  0.00  0.00    +0.220 A 
ATOM      9  N   UNL     1      45.509  19.964  64.889  0.00  0.00    -0.283 N 
ATOM     36  H   UNL     1      46.507  19.880  64.697  0.00  0.00    +0.155 HD
ATOM     37  N   UNL     1      45.912  22.054  65.875  0.00  0.00    -0.214 NA
BRANCH   4   3
ATOM      1  C   UNL     1      47.505  26.153  68.152  0.00  0.00    +0.020 A 
ATOM      2  C   UNL     1      46.429  25.235  67.856  0.00  0.00    +0.013 A 
ATOM      3  C   UNL     1      46.599  24.185  66.860  0.00  0.00    +0.019 A 
ATOM     38  C   UNL     1      47.880  24.091  66.176  0.00  0.00    +0.120 A 
ATOM     39  N   UNL     1      48.897  24.990  66.480  0.00  0.00    -0.263 NA
ATOM     40  C   UNL     1      48.745  26.005  67.436  0.00  0.00    +0.111 A 
ENDBRANCH   4   3
ENDBRANCH  10   9
BRANCH  12  13
ATOM     13  N   UNL     1      43.235  15.676  65.983  0.00  0.00    -0.281 N 
ATOM     14  C   UNL     1      42.469  15.691  67.137  0.00  0.00    +0.248 C 
ATOM     30  O   UNL     1      42.083  16.707  67.697  0.00  0.00    -0.270 OA
ATOM     31  H   UNL     1      43.650  14.779  65.732  0.00  0.00    +0.155 HD
BRANCH  14  15
ATOM     15  C   UNL     1      42.087  14.391  67.767  0.00  0.00    +0.037 A 
ATOM     16  C   UNL     1      42.843  13.843  68.896  0.00  0.00    +0.013 A 
ATOM     17  C   UNL     1      42.464  12.578  69.475  0.00  0.00    +0.005 A 
ATOM     18  C   UNL     1      41.321  11.853  68.925  0.00  0.00    -0.033 A 
ATOM     28  C   UNL     1      40.586  12.422  67.808  0.00  0.00    +0.005 A 
ATOM     29  C   UNL     1      40.955  13.661  67.238  0.00  0.00    +0.013 A 
BRANCH  18  19
ATOM     19  C   UNL     1      40.859  10.487  69.466  0.00  0.00    +0.119 C 
BRANCH  19  20
ATOM     20  N   UNL     1      40.496   9.442  68.463  0.00  0.00    -0.302 NA
ATOM     21  C   UNL     1      39.539   8.397  69.043  0.00  0.00    +0.066 C 
ATOM     22  C   UNL     1      39.153   7.323  67.974  0.00  0.00    -0.064 C 
ATOM     23  N   UNL     1      40.423   6.658  67.441  0.00  0.00    +0.379 N 
ATOM     24  C   UNL     1      40.060   5.608  66.478  0.00  0.00    -0.096 C 
ATOM     25  H   UNL     1      40.933   6.166  68.302  0.00  0.00    -0.082 HD
ATOM     26  C   UNL     1      41.382   7.690  66.865  0.00  0.00    -0.064 C 
ATOM     27  C   UNL     1      41.736   8.769  67.927  0.00  0.00    +0.066 C 
ENDBRANCH  19  20
ENDBRANCH  18  19
ENDBRANCH  14  15
ENDBRANCH  12  13
TORSDOF 6
ENDMDL
MODEL 3
REMARK VINA RESULT:      -7.8      9.822     14.210
REMARK  Name = C:\Users\Docking\Desktop\test protocol\1iep_ligandH.pdb
REMARK  8 active torsions:
REMARK  status: ('A' for Active; 'I' for Inactive)
REMARK    1  A    between atoms: _5  and  _11
REMARK    2  A    between atoms: _19  and  _21
REMARK    3  A    between atoms: _22  and  _66
REMARK    4  A    between atoms: _27  and  _30
REMARK    5  A    between atoms: _32  and  _33
REMARK    6  A    between atoms: _38  and  _43
REMARK    7  A    between atoms: _43  and  _46
REMARK    8  A    between atoms: _53  and  _55
REMARK                            x       y       z     vdW  Elec       q    Type
REMARK                         _______ _______ _______ _____ _____    ______ ____
ROOT
ATOM     10  C   UNL     1      41.437  24.304  66.600  0.00  0.00    +0.038 A 
ATOM     11  C   UNL     1      42.608  25.084  66.419  0.00  0.00    +0.047 A 
ATOM     12  C   UNL     1      43.909  24.458  66.239  0.00  0.00    +0.035 A 
ATOM     32  C   UNL     1      43.980  23.035  66.245  0.00  0.00    +0.024 A 
ATOM     33  C   UNL     1      42.801  22.226  66.429  0.00  0.00    +0.007 A 
ATOM     34  C   UNL     1      41.515  22.838  66.610  0.00  0.00    -0.029 A 
ATOM     35  C   UNL     1      40.285  21.922  66.809  0.00  0.00    +0.045 C 
ENDROOT
BRANCH  10   9
ATOM      4  C   UNL     1      37.463  26.362  64.866  0.00  0.00    +0.077 A 
ATOM      5  C   UNL     1      37.870  26.141  63.508  0.00  0.00    +0.048 A 
ATOM      6  C   UNL     1      39.113  25.501  63.299  0.00  0.00    +0.116 A 
ATOM      7  N   UNL     1      39.882  25.115  64.375  0.00  0.00    -0.223 NA
ATOM      8  C   UNL     1      39.460  25.344  65.672  0.00  0.00    +0.220 A 
ATOM      9  N   UNL     1      40.214  24.957  66.769  0.00  0.00    -0.283 N 
ATOM     36  H   UNL     1      39.872  25.151  67.710  0.00  0.00    +0.155 HD
ATOM     37  N   UNL     1      38.279  25.955  65.898  0.00  0.00    -0.214 NA
BRANCH   4   3
ATOM      1  C   UNL     1      34.669  29.036  65.451  0.00  0.00    +0.020 A 
ATOM      2  C   UNL     1      35.931  28.448  65.064  0.00  0.00    +0.013 A 
ATOM      3  C   UNL     1      36.176  27.023  65.249  0.00  0.00    +0.019 A 
ATOM     38  C   UNL     1      35.114  26.215  65.831  0.00  0.00    +0.120 A 
ATOM     39  N   UNL     1      33.910  26.810  66.195  0.00  0.00    -0.263 NA
ATOM     40  C   UNL     1      33.664  28.180  66.024  0.00  0.00    +0.111 A 
ENDBRANCH   4   3
ENDBRANCH  10   9
BRANCH  12  13
ATOM     13  N   UNL     1      45.133  25.199  66.059  0.00  0.00    -0.281 N 
ATOM     14  C   UNL     1      46.328  25.048  66.743  0.00  0.00    +0.248 C 
ATOM     30  O   UNL     1      46.460  24.394  67.766  0.00  0.00    -0.270 OA
ATOM     31  H   UNL     1      45.116  25.922  65.339  0.00  0.00    +0.155 HD
BRANCH  14  15
ATOM     15  C   UNL     1      47.549  25.736  66.224  0.00  0.00    +0.037 A 
ATOM     16  C   UNL     1      48.261  26.731  67.029  0.00  0.00    +0.013 A 
ATOM     17  C   UNL     1      49.426  27.392  66.497  0.00  0.00    +0.005 A 
ATOM     18  C   UNL     1      49.888  27.058  65.152  0.00  0.00    -0.033 A 
ATOM     28  C   UNL     1      49.166  26.063  64.377  0.00  0.00    +0.005 A 
ATOM     29  C   UNL     1      48.023  25.414  64.894  0.00  0.00    +0.013 A 
BRANCH  18  19
ATOM     19  C   UNL     1      51.110  27.728  64.497  0.00  0.00    +0.119 C 
BRANCH  19  20
ATOM     20  N   UNL     1      50.849  28.883  63.586  0.00  0.00    -0.302 NA
ATOM     21  C   UNL     1      51.431  30.189  64.133  0.00  0.00    +0.066 C 
ATOM     22  C   UNL     1      51.170  31.382  63.157  0.00  0.00    -0.064 C 
ATOM     23  N   UNL     1      49.665  31.519  62.916  0.00  0.00    +0.379 N 
ATOM     24  C   UNL     1      49.412  32.676  62.044  0.00  0.00    -0.096 C 
ATOM     25  H   UNL     1      49.182  31.724  63.899  0.00  0.00    -0.082 HD
ATOM     26  C   UNL     1      49.078  30.223  62.374  0.00  0.00    -0.064 C 
ATOM     27  C   UNL     1      49.369  29.039  63.337  0.00  0.00    +0.066 C 
ENDBRANCH  19  20
ENDBRANCH  18  19
ENDBRANCH  14  15
ENDBRANCH  12  13
TORSDOF 6
ENDMDL
MODEL 4
REMARK VINA RESULT:      -7.7      3.782      7.468
REMARK  Name = C:\Users\Docking\Desktop\test protocol\1iep_ligandH.pdb
REMARK  8 active torsions:
REMARK  status: ('A' for Active; 'I' for Inactive)
REMARK    1  A    between atoms: _5  and  _11
REMARK    2  A    between atoms: _19  and  _21
REMARK    3  A    between atoms: _22  and  _66
REMARK    4  A    between atoms: _27  and  _30
REMARK    5  A    between atoms: _32  and  _33
REMARK    6  A    between atoms: _38  and  _43
REMARK    7  A    between atoms: _43  and  _46
REMARK    8  A    between atoms: _53  and  _55
REMARK                            x       y       z     vdW  Elec       q    Type
REMARK                         _______ _______ _______ _____ _____    ______ ____
ROOT
ATOM     10  C   UNL     1      42.113  19.750  66.312  0.00  0.00    +0.038 A 
ATOM     11  C   UNL     1      43.183  20.672  66.438  0.00  0.00    +0.047 A 
ATOM     12  C   UNL     1      43.165  21.947  65.738  0.00  0.00    +0.035 A 
ATOM     32  C   UNL     1      42.039  22.252  64.919  0.00  0.00    +0.024 A 
ATOM     33  C   UNL     1      40.943  21.326  64.778  0.00  0.00    +0.007 A 
ATOM     34  C   UNL     1      40.956  20.066  65.465  0.00  0.00    -0.029 A 
ATOM     35  C   UNL     1      39.757  19.109  65.272  0.00  0.00    +0.045 C 
ENDROOT
BRANCH  10   9
ATOM      4  C   UNL     1      43.420  15.146  66.674  0.00  0.00    +0.077 A 
ATOM      5  C   UNL     1      43.988  15.143  65.357  0.00  0.00    +0.048 A 
ATOM      6  C   UNL     1      43.918  16.344  64.616  0.00  0.00    +0.116 A 
ATOM      7  N   UNL     1      43.321  17.459  65.162  0.00  0.00    -0.223 NA
ATOM      8  C   UNL     1      42.781  17.428  66.435  0.00  0.00    +0.220 A 
ATOM      9  N   UNL     1      42.183  18.541  67.007  0.00  0.00    -0.283 N 
ATOM     36  H   UNL     1      41.789  18.475  67.945  0.00  0.00    +0.155 HD
ATOM     37  N   UNL     1      42.834  16.293  67.162  0.00  0.00    -0.214 NA
BRANCH   4   3
ATOM      1  C   UNL     1      43.458  12.883  69.864  0.00  0.00    +0.020 A 
ATOM      2  C   UNL     1      43.460  14.065  69.034  0.00  0.00    +0.013 A 
ATOM      3  C   UNL     1      43.420  13.955  67.581  0.00  0.00    +0.019 A 
ATOM     38  C   UNL     1      43.377  12.623  66.996  0.00  0.00    +0.120 A 
ATOM     39  N   UNL     1      43.377  11.503  67.821  0.00  0.00    -0.263 NA
ATOM     40  C   UNL     1      43.417  11.597  69.220  0.00  0.00    +0.111 A 
ENDBRANCH   4   3
ENDBRANCH  10   9
BRANCH  12  13
ATOM     13  N   UNL     1      44.227  22.919  65.822  0.00  0.00    -0.281 N 
ATOM     14  C   UNL     1      44.657  23.616  66.939  0.00  0.00    +0.248 C 
ATOM     30  O   UNL     1      44.050  23.666  67.999  0.00  0.00    -0.270 OA
ATOM     31  H   UNL     1      44.721  23.118  64.952  0.00  0.00    +0.155 HD
BRANCH  14  15
ATOM     15  C   UNL     1      45.940  24.379  66.864  0.00  0.00    +0.037 A 
ATOM     16  C   UNL     1      46.217  25.491  67.778  0.00  0.00    +0.013 A 
ATOM     17  C   UNL     1      47.456  26.221  67.673  0.00  0.00    +0.005 A 
ATOM     18  C   UNL     1      48.427  25.841  66.650  0.00  0.00    -0.033 A 
ATOM     28  C   UNL     1      48.129  24.731  65.760  0.00  0.00    +0.005 A 
ATOM     29  C   UNL     1      46.916  24.013  65.860  0.00  0.00    +0.013 A 
BRANCH  18  19
ATOM     19  C   UNL     1      49.765  26.578  66.452  0.00  0.00    +0.119 C 
BRANCH  19  20
ATOM     20  N   UNL     1      49.713  27.934  65.830  0.00  0.00    -0.302 NA
ATOM     21  C   UNL     1      49.483  27.865  64.318  0.00  0.00    +0.066 C 
ATOM     22  C   UNL     1      49.409  29.294  63.687  0.00  0.00    -0.064 C 
ATOM     23  N   UNL     1      50.696  30.056  64.005  0.00  0.00    +0.379 N 
ATOM     24  C   UNL     1      50.654  31.379  63.365  0.00  0.00    -0.096 C 
ATOM     25  H   UNL     1      51.544  29.489  63.556  0.00  0.00    -0.082 HD
ATOM     26  C   UNL     1      50.934  30.128  65.507  0.00  0.00    -0.064 C 
ATOM     27  C   UNL     1      50.977  28.703  66.128  0.00  0.00    +0.066 C 
ENDBRANCH  19  20
ENDBRANCH  18  19
ENDBRANCH  14  15
ENDBRANCH  12  13
TORSDOF 6
ENDMDL
MODEL 5
REMARK VINA RESULT:      -7.5      4.805     13.769
REMARK  Name = C:\Users\Docking\Desktop\test protocol\1iep_ligandH.pdb
REMARK  8 active torsions:
REMARK  status: ('A' for Active; 'I' for Inactive)
REMARK    1  A    between atoms: _5  and  _11
REMARK    2  A    between atoms: _19  and  _21
REMARK    3  A    between atoms: _22  and  _66
REMARK    4  A    between atoms: _27  and  _30
REMARK    5  A    between atoms: _32  and  _33
REMARK    6  A    between atoms: _38  and  _43
REMARK    7  A    between atoms: _43  and  _46
REMARK    8  A    between atoms: _53  and  _55
REMARK                            x       y       z     vdW  Elec       q    Type
REMARK                         _______ _______ _______ _____ _____    ______ ____
ROOT
ATOM     10  C   UNL     1      42.990  20.409  64.585  0.00  0.00    +0.038 A 
ATOM     11  C   UNL     1      42.591  19.275  65.337  0.00  0.00    +0.047 A 
ATOM     12  C   UNL     1      43.563  18.291  65.789  0.00  0.00    +0.035 A 
ATOM     32  C   UNL     1      44.934  18.496  65.460  0.00  0.00    +0.024 A 
ATOM     33  C   UNL     1      45.358  19.644  64.696  0.00  0.00    +0.007 A 
ATOM     34  C   UNL     1      44.403  20.616  64.245  0.00  0.00    -0.029 A 
ATOM     35  C   UNL     1      44.913  21.823  63.424  0.00  0.00    +0.045 C 
ENDROOT
BRANCH  10   9
ATOM      4  C   UNL     1      40.332  24.348  65.261  0.00  0.00    +0.077 A 
ATOM      5  C   UNL     1      40.917  24.594  66.548  0.00  0.00    +0.048 A 
ATOM      6  C   UNL     1      41.892  23.679  67.002  0.00  0.00    +0.116 A 
ATOM      7  N   UNL     1      42.250  22.602  66.220  0.00  0.00    -0.223 NA
ATOM      8  C   UNL     1      41.665  22.394  64.984  0.00  0.00    +0.220 A 
ATOM      9  N   UNL     1      42.015  21.322  64.177  0.00  0.00    -0.283 N 
ATOM     36  H   UNL     1      41.555  21.199  63.276  0.00  0.00    +0.155 HD
ATOM     37  N   UNL     1      40.730  23.252  64.528  0.00  0.00    -0.214 NA
BRANCH   4   3
ATOM      1  C   UNL     1      37.235  26.685  64.763  0.00  0.00    +0.020 A 
ATOM      2  C   UNL     1      38.216  25.844  65.409  0.00  0.00    +0.013 A 
ATOM      3  C   UNL     1      39.290  25.227  64.642  0.00  0.00    +0.019 A 
ATOM     38  C   UNL     1      39.344  25.483  63.210  0.00  0.00    +0.120 A 
ATOM     39  N   UNL     1      38.384  26.296  62.615  0.00  0.00    -0.263 NA
ATOM     40  C   UNL     1      37.345  26.894  63.343  0.00  0.00    +0.111 A 
ENDBRANCH   4   3
ENDBRANCH  10   9
BRANCH  12  13
ATOM     13  N   UNL     1      43.215  17.116  66.548  0.00  0.00    -0.281 N 
ATOM     14  C   UNL     1      42.175  16.961  67.449  0.00  0.00    +0.248 C 
ATOM     30  O   UNL     1      41.510  17.880  67.902  0.00  0.00    -0.270 OA
ATOM     31  H   UNL     1      43.808  16.298  66.403  0.00  0.00    +0.155 HD
BRANCH  14  15
ATOM     15  C   UNL     1      41.833  15.586  67.928  0.00  0.00    +0.037 A 
ATOM     16  C   UNL     1      40.468  15.063  67.824  0.00  0.00    +0.013 A 
ATOM     17  C   UNL     1      40.162  13.741  68.309  0.00  0.00    +0.005 A 
ATOM     18  C   UNL     1      41.224  12.931  68.901  0.00  0.00    -0.033 A 
ATOM     28  C   UNL     1      42.570  13.473  68.986  0.00  0.00    +0.005 A 
ATOM     29  C   UNL     1      42.874  14.769  68.513  0.00  0.00    +0.013 A 
BRANCH  18  19
ATOM     19  C   UNL     1      40.984  11.518  69.464  0.00  0.00    +0.119 C 
BRANCH  19  20
ATOM     20  N   UNL     1      40.722  10.426  68.479  0.00  0.00    -0.302 NA
ATOM     21  C   UNL     1      39.857   9.311  69.075  0.00  0.00    +0.066 C 
ATOM     22  C   UNL     1      39.574   8.187  68.025  0.00  0.00    -0.064 C 
ATOM     23  N   UNL     1      40.902   7.628  67.511  0.00  0.00    +0.379 N 
ATOM     24  C   UNL     1      40.639   6.532  66.566  0.00  0.00    -0.096 C 
ATOM     25  H   UNL     1      41.449   7.199  68.383  0.00  0.00    -0.082 HD
ATOM     26  C   UNL     1      41.769   8.730  66.919  0.00  0.00    -0.064 C 
ATOM     27  C   UNL     1      42.019   9.856  67.962  0.00  0.00    +0.066 C 
ENDBRANCH  19  20
ENDBRANCH  18  19
ENDBRANCH  14  15
ENDBRANCH  12  13
TORSDOF 6
ENDMDL
