MODEL 1
REMARK VINA RESULT:      -8.0      0.000      0.000
REMARK  Name = C:\Users\Docking\Desktop\test protocol\1iep_ligandH.pdb
REMARK  8 active torsions:
REMARK  status: ('A' for Active; 'I' for Inactive)
REMARK    1  A    between atoms: _5  and  _11
REMARK    2  A    between atoms: _19  and  _21
REMARK    3  A    between atoms: _22  and  _66
REMARK    4  A    between atoms: _27  and  _30
REMARK    5  A    between atoms: _32  and  _33
REMARK    6  A    between atoms: _38  and  _43
REMARK    7  A    between atoms: _43  and  _46
REMARK    8  A    between atoms: _53  and  _55
REMARK                            x       y       z     vdW  Elec       q    Type
REMARK                         _______ _______ _______ _____ _____    ______ ____
ROOT
ATOM     10  C   UNL     1      79.304  57.571  -2.286  0.00  0.00    +0.038 A 
ATOM     11  C   UNL     1      78.239  56.635  -2.283  0.00  0.00    +0.047 A 
ATOM     12  C   UNL     1      77.610  56.214  -1.041  0.00  0.00    +0.035 A 
ATOM     32  C   UNL     1      78.089  56.770   0.181  0.00  0.00    +0.024 A 
ATOM     33  C   UNL     1      79.172  57.722   0.197  0.00  0.00    +0.007 A 
ATOM     34  C   UNL     1      79.798  58.139  -1.025  0.00  0.00    -0.029 A 
ATOM     35  C   UNL     1      80.959  59.157  -0.948  0.00  0.00    +0.045 C 
ENDROOT
BRANCH  10   9
ATOM      4  C   UNL     1      82.178  56.742  -6.039  0.00  0.00    +0.077 A 
ATOM      5  C   UNL     1      82.606  55.480  -5.508  0.00  0.00    +0.048 A 
ATOM      6  C   UNL     1      82.069  55.084  -4.263  0.00  0.00    +0.116 A 
ATOM      7  N   UNL     1      81.170  55.897  -3.607  0.00  0.00    -0.223 NA
ATOM      8  C   UNL     1      80.780  57.109  -4.146  0.00  0.00    +0.220 A 
ATOM      9  N   UNL     1      79.872  57.939  -3.508  0.00  0.00    -0.283 N 
ATOM     36  H   UNL     1      79.615  58.829  -3.935  0.00  0.00    +0.155 HD
ATOM     37  N   UNL     1      81.280  57.510  -5.334  0.00  0.00    -0.214 NA
BRANCH   4   3
ATOM      1  C   UNL     1      82.402  57.722  -9.820  0.00  0.00    +0.020 A 
ATOM      2  C   UNL     1      81.897  57.167  -8.585  0.00  0.00    +0.013 A 
ATOM      3  C   UNL     1      82.654  57.296  -7.346  0.00  0.00    +0.019 A 
ATOM     38  C   UNL     1      83.928  57.998  -7.392  0.00  0.00    +0.120 A 
ATOM     39  N   UNL     1      84.390  58.520  -8.596  0.00  0.00    -0.263 NA
ATOM     40  C   UNL     1      83.670  58.401  -9.795  0.00  0.00    +0.111 A 
ENDBRANCH   4   3
ENDBRANCH  10   9
BRANCH  12  13
ATOM     13  N   UNL     1      76.530  55.261  -0.975  0.00  0.00    -0.281 N 
ATOM     14  C   UNL     1      75.845  54.677  -2.028  0.00  0.00    +0.248 C 
ATOM     30  O   UNL     1      75.914  55.050  -3.190  0.00  0.00    -0.270 OA
ATOM     31  H   UNL     1      76.235  54.983  -0.039  0.00  0.00    +0.155 HD
BRANCH  14  15
ATOM     15  C   UNL     1      74.940  53.521  -1.748  0.00  0.00    +0.037 A 
ATOM     16  C   UNL     1      74.319  52.761  -2.835  0.00  0.00    +0.013 A 
ATOM     17  C   UNL     1      73.437  51.660  -2.537  0.00  0.00    +0.005 A 
ATOM     18  C   UNL     1      73.171  51.313  -1.143  0.00  0.00    -0.033 A 
ATOM     28  C   UNL     1      73.804  52.081  -0.084  0.00  0.00    +0.005 A 
ATOM     29  C   UNL     1      74.669  53.160  -0.372  0.00  0.00    +0.013 A 
BRANCH  18  19
ATOM     19  C   UNL     1      72.227  50.168  -0.732  0.00  0.00    +0.119 C 
BRANCH  19  20
ATOM     20  N   UNL     1      71.223  50.459   0.335  0.00  0.00    -0.302 NA
ATOM     21  C   UNL     1      71.742  50.088   1.728  0.00  0.00    +0.066 C 
ATOM     22  C   UNL     1      70.688  50.420   2.834  0.00  0.00    -0.064 C 
ATOM     23  N   UNL     1      69.382  49.685   2.528  0.00  0.00    +0.379 N 
ATOM     24  C   UNL     1      68.409  49.949   3.598  0.00  0.00    -0.096 C 
ATOM     25  H   UNL     1      69.601  48.591   2.532  0.00  0.00    -0.082 HD
ATOM     26  C   UNL     1      68.861  50.046   1.145  0.00  0.00    -0.064 C 
ATOM     27  C   UNL     1      69.927  49.740   0.055  0.00  0.00    +0.066 C 
ENDBRANCH  19  20
ENDBRANCH  18  19
ENDBRANCH  14  15
ENDBRANCH  12  13
TORSDOF 6
ENDMDL
MODEL 2
REMARK VINA RESULT:      -7.6      8.235     14.044
REMARK  Name = C:\Users\Docking\Desktop\test protocol\1iep_ligandH.pdb
REMARK  8 active torsions:
REMARK  status: ('A' for Active; 'I' for Inactive)
REMARK    1  A    between atoms: _5  and  _11
REMARK    2  A    between atoms: _19  and  _21
REMARK    3  A    between atoms: _22  and  _66
REMARK    4  A    between atoms: _27  and  _30
REMARK    5  A    between atoms: _32  and  _33
REMARK    6  A    between atoms: _38  and  _43
REMARK    7  A    between atoms: _43  and  _46
REMARK    8  A    between atoms: _53  and  _55
REMARK                            x       y       z     vdW  Elec       q    Type
REMARK                         _______ _______ _______ _____ _____    ______ ____
ROOT
ATOM     10  C   UNL     1      68.285  48.792   0.185  0.00  0.00    +0.038 A 
ATOM     11  C   UNL     1      68.046  47.467  -0.260  0.00  0.00    +0.047 A 
ATOM     12  C   UNL     1      67.040  46.629   0.374  0.00  0.00    +0.035 A 
ATOM     32  C   UNL     1      66.293  47.175   1.458  0.00  0.00    +0.024 A 
ATOM     33  C   UNL     1      66.523  48.520   1.924  0.00  0.00    +0.007 A 
ATOM     34  C   UNL     1      67.515  49.350   1.304  0.00  0.00    -0.029 A 
ATOM     35  C   UNL     1      67.724  50.782   1.850  0.00  0.00    +0.045 C 
ENDROOT
BRANCH  10   9
ATOM      4  C   UNL     1      72.661  50.751  -0.036  0.00  0.00    +0.077 A 
ATOM      5  C   UNL     1      73.019  50.240   1.255  0.00  0.00    +0.048 A 
ATOM      6  C   UNL     1      72.047  49.484   1.947  0.00  0.00    +0.116 A 
ATOM      7  N   UNL     1      70.811  49.261   1.379  0.00  0.00    -0.223 NA
ATOM      8  C   UNL     1      70.497  49.770   0.133  0.00  0.00    +0.220 A 
ATOM      9  N   UNL     1      69.263  49.552  -0.460  0.00  0.00    -0.283 N 
ATOM     36  H   UNL     1      69.067  49.951  -1.378  0.00  0.00    +0.155 HD
ATOM     37  N   UNL     1      71.408  50.497  -0.548  0.00  0.00    -0.214 NA
BRANCH   4   3
ATOM      1  C   UNL     1      75.065  53.563  -1.308  0.00  0.00    +0.020 A 
ATOM      2  C   UNL     1      74.182  52.815  -0.442  0.00  0.00    +0.013 A 
ATOM      3  C   UNL     1      73.581  51.565  -0.892  0.00  0.00    +0.019 A 
ATOM     38  C   UNL     1      73.898  51.096  -2.232  0.00  0.00    +0.120 A 
ATOM     39  N   UNL     1      74.751  51.838  -3.043  0.00  0.00    -0.263 NA
ATOM     40  C   UNL     1      75.333  53.043  -2.622  0.00  0.00    +0.111 A 
ENDBRANCH   4   3
ENDBRANCH  10   9
BRANCH  12  13
ATOM     13  N   UNL     1      66.760  45.273  -0.029  0.00  0.00    -0.281 N 
ATOM     14  C   UNL     1      65.543  44.733  -0.410  0.00  0.00    +0.248 C 
ATOM     30  O   UNL     1      64.463  45.284  -0.256  0.00  0.00    -0.270 OA
ATOM     31  H   UNL     1      67.556  44.635  -0.034  0.00  0.00    +0.155 HD
BRANCH  14  15
ATOM     15  C   UNL     1      65.521  43.378  -1.040  0.00  0.00    +0.037 A 
ATOM     16  C   UNL     1      66.353  42.287  -0.527  0.00  0.00    +0.013 A 
ATOM     17  C   UNL     1      66.325  40.994  -1.164  0.00  0.00    +0.005 A 
ATOM     18  C   UNL     1      65.459  40.785  -2.322  0.00  0.00    -0.033 A 
ATOM     28  C   UNL     1      64.640  41.883  -2.808  0.00  0.00    +0.005 A 
ATOM     29  C   UNL     1      64.666  43.152  -2.187  0.00  0.00    +0.013 A 
BRANCH  18  19
ATOM     19  C   UNL     1      65.382  39.445  -3.077  0.00  0.00    +0.119 C 
BRANCH  19  20
ATOM     20  N   UNL     1      64.411  39.353  -4.208  0.00  0.00    -0.302 NA
ATOM     21  C   UNL     1      63.179  38.520  -3.842  0.00  0.00    +0.066 C 
ATOM     22  C   UNL     1      62.164  38.453  -5.029  0.00  0.00    -0.064 C 
ATOM     23  N   UNL     1      62.862  37.874  -6.261  0.00  0.00    +0.379 N 
ATOM     24  C   UNL     1      61.895  37.755  -7.362  0.00  0.00    -0.096 C 
ATOM     25  H   UNL     1      63.208  36.846  -6.002  0.00  0.00    -0.082 HD
ATOM     26  C   UNL     1      64.089  38.694  -6.631  0.00  0.00    -0.064 C 
ATOM     27  C   UNL     1      65.078  38.780  -5.434  0.00  0.00    +0.066 C 
ENDBRANCH  19  20
ENDBRANCH  18  19
ENDBRANCH  14  15
ENDBRANCH  12  13
TORSDOF 6
ENDMDL
MODEL 3
REMARK VINA RESULT:      -7.5      6.601     13.645
REMARK  Name = C:\Users\Docking\Desktop\test protocol\1iep_ligandH.pdb
REMARK  8 active torsions:
REMARK  status: ('A' for Active; 'I' for Inactive)
REMARK    1  A    between atoms: _5  and  _11
REMARK    2  A    between atoms: _19  and  _21
REMARK    3  A    between atoms: _22  and  _66
REMARK    4  A    between atoms: _27  and  _30
REMARK    5  A    between atoms: _32  and  _33
REMARK    6  A    between atoms: _38  and  _43
REMARK    7  A    between atoms: _43  and  _46
REMARK    8  A    between atoms: _53  and  _55
REMARK                            x       y       z     vdW  Elec       q    Type
REMARK                         _______ _______ _______ _____ _____    ______ ____
ROOT
ATOM     10  C   UNL     1      74.712  55.291   5.355  0.00  0.00    +0.038 A 
ATOM     11  C   UNL     1      75.587  55.583   4.277  0.00  0.00    +0.047 A 
ATOM     12  C   UNL     1      75.276  56.630   3.317  0.00  0.00    +0.035 A 
ATOM     32  C   UNL     1      74.065  57.364   3.487  0.00  0.00    +0.024 A 
ATOM     33  C   UNL     1      73.164  57.080   4.576  0.00  0.00    +0.007 A 
ATOM     34  C   UNL     1      73.465  56.046   5.524  0.00  0.00    -0.029 A 
ATOM     35  C   UNL     1      72.459  55.780   6.668  0.00  0.00    +0.045 C 
ENDROOT
BRANCH  10   9
ATOM      4  C   UNL     1      76.307  53.763   9.616  0.00  0.00    +0.077 A 
ATOM      5  C   UNL     1      76.486  55.103  10.096  0.00  0.00    +0.048 A 
ATOM      6  C   UNL     1      76.163  56.157   9.213  0.00  0.00    +0.116 A 
ATOM      7  N   UNL     1      75.696  55.880   7.946  0.00  0.00    -0.223 NA
ATOM      8  C   UNL     1      75.537  54.577   7.514  0.00  0.00    +0.220 A 
ATOM      9  N   UNL     1      75.061  54.275   6.247  0.00  0.00    -0.283 N 
ATOM     36  H   UNL     1      74.965  53.300   5.964  0.00  0.00    +0.155 HD
ATOM     37  N   UNL     1      75.840  53.552   8.338  0.00  0.00    -0.214 NA
BRANCH   4   3
ATOM      1  C   UNL     1      76.786  50.045  10.734  0.00  0.00    +0.020 A 
ATOM      2  C   UNL     1      76.490  51.190   9.903  0.00  0.00    +0.013 A 
ATOM      3  C   UNL     1      76.602  52.543  10.432  0.00  0.00    +0.019 A 
ATOM     38  C   UNL     1      77.021  52.705  11.816  0.00  0.00    +0.120 A 
ATOM     39  N   UNL     1      77.299  51.584  12.593  0.00  0.00    -0.263 NA
ATOM     40  C   UNL     1      77.193  50.277  12.095  0.00  0.00    +0.111 A 
ENDBRANCH   4   3
ENDBRANCH  10   9
BRANCH  12  13
ATOM     13  N   UNL     1      76.122  56.966   2.199  0.00  0.00    -0.281 N 
ATOM     14  C   UNL     1      77.241  57.782   2.192  0.00  0.00    +0.248 C 
ATOM     30  O   UNL     1      77.561  58.523   3.110  0.00  0.00    -0.270 OA
ATOM     31  H   UNL     1      75.864  56.551   1.303  0.00  0.00    +0.155 HD
BRANCH  14  15
ATOM     15  C   UNL     1      78.124  57.788   0.986  0.00  0.00    +0.037 A 
ATOM     16  C   UNL     1      77.752  57.062  -0.231  0.00  0.00    +0.013 A 
ATOM     17  C   UNL     1      78.630  57.069  -1.374  0.00  0.00    +0.005 A 
ATOM     18  C   UNL     1      79.888  57.808  -1.306  0.00  0.00    -0.033 A 
ATOM     28  C   UNL     1      80.230  58.524  -0.088  0.00  0.00    +0.005 A 
ATOM     29  C   UNL     1      79.372  58.518   1.035  0.00  0.00    +0.013 A 
BRANCH  18  19
ATOM     19  C   UNL     1      80.896  57.854  -2.470  0.00  0.00    +0.119 C 
BRANCH  19  20
ATOM     20  N   UNL     1      80.563  57.064  -3.693  0.00  0.00    -0.302 NA
ATOM     21  C   UNL     1      80.958  55.592  -3.552  0.00  0.00    +0.066 C 
ATOM     22  C   UNL     1      80.583  54.776  -4.831  0.00  0.00    -0.064 C 
ATOM     23  N   UNL     1      81.261  55.404  -6.050  0.00  0.00    +0.379 N 
ATOM     24  C   UNL     1      80.957  54.605  -7.246  0.00  0.00    -0.096 C 
ATOM     25  H   UNL     1      82.362  55.359  -5.884  0.00  0.00    -0.082 HD
ATOM     26  C   UNL     1      80.875  56.869  -6.197  0.00  0.00    -0.064 C 
ATOM     27  C   UNL     1      81.226  57.664  -4.909  0.00  0.00    +0.066 C 
ENDBRANCH  19  20
ENDBRANCH  18  19
ENDBRANCH  14  15
ENDBRANCH  12  13
TORSDOF 6
ENDMDL
MODEL 4
REMARK VINA RESULT:      -7.5      7.975     13.867
REMARK  Name = C:\Users\Docking\Desktop\test protocol\1iep_ligandH.pdb
REMARK  8 active torsions:
REMARK  status: ('A' for Active; 'I' for Inactive)
REMARK    1  A    between atoms: _5  and  _11
REMARK    2  A    between atoms: _19  and  _21
REMARK    3  A    between atoms: _22  and  _66
REMARK    4  A    between atoms: _27  and  _30
REMARK    5  A    between atoms: _32  and  _33
REMARK    6  A    between atoms: _38  and  _43
REMARK    7  A    between atoms: _43  and  _46
REMARK    8  A    between atoms: _53  and  _55
REMARK                            x       y       z     vdW  Elec       q    Type
REMARK                         _______ _______ _______ _____ _____    ______ ____
ROOT
ATOM     10  C   UNL     1      68.345  48.700   0.248  0.00  0.00    +0.038 A 
ATOM     11  C   UNL     1      68.200  47.334  -0.103  0.00  0.00    +0.047 A 
ATOM     12  C   UNL     1      67.220  46.486   0.559  0.00  0.00    +0.035 A 
ATOM     32  C   UNL     1      66.403  47.064   1.574  0.00  0.00    +0.024 A 
ATOM     33  C   UNL     1      66.538  48.451   1.944  0.00  0.00    +0.007 A 
ATOM     34  C   UNL     1      67.504  49.291   1.296  0.00  0.00    -0.029 A 
ATOM     35  C   UNL     1      67.610  50.769   1.739  0.00  0.00    +0.045 C 
ENDROOT
BRANCH  10   9
ATOM      4  C   UNL     1      72.662  50.779  -0.032  0.00  0.00    +0.077 A 
ATOM      5  C   UNL     1      73.034  50.320   1.276  0.00  0.00    +0.048 A 
ATOM      6  C   UNL     1      72.082  49.557   1.990  0.00  0.00    +0.116 A 
ATOM      7  N   UNL     1      70.855  49.281   1.429  0.00  0.00    -0.223 NA
ATOM      8  C   UNL     1      70.528  49.740   0.167  0.00  0.00    +0.220 A 
ATOM      9  N   UNL     1      69.302  49.467  -0.420  0.00  0.00    -0.283 N 
ATOM     36  H   UNL     1      69.096  49.831  -1.351  0.00  0.00    +0.155 HD
ATOM     37  N   UNL     1      71.418  50.471  -0.535  0.00  0.00    -0.214 NA
BRANCH   4   3
ATOM      1  C   UNL     1      75.023  53.595  -1.372  0.00  0.00    +0.020 A 
ATOM      2  C   UNL     1      74.162  52.849  -0.484  0.00  0.00    +0.013 A 
ATOM      3  C   UNL     1      73.560  51.592  -0.911  0.00  0.00    +0.019 A 
ATOM     38  C   UNL     1      73.852  51.115  -2.255  0.00  0.00    +0.120 A 
ATOM     39  N   UNL     1      74.683  51.856  -3.089  0.00  0.00    -0.263 NA
ATOM     40  C   UNL     1      75.266  53.067  -2.689  0.00  0.00    +0.111 A 
ENDBRANCH   4   3
ENDBRANCH  10   9
BRANCH  12  13
ATOM     13  N   UNL     1      67.033  45.090   0.250  0.00  0.00    -0.281 N 
ATOM     14  C   UNL     1      65.939  44.491  -0.353  0.00  0.00    +0.248 C 
ATOM     30  O   UNL     1      64.860  45.037  -0.525  0.00  0.00    -0.270 OA
ATOM     31  H   UNL     1      67.800  44.469   0.507  0.00  0.00    +0.155 HD
BRANCH  14  15
ATOM     15  C   UNL     1      66.057  43.076  -0.818  0.00  0.00    +0.037 A 
ATOM     16  C   UNL     1      65.152  42.532  -1.834  0.00  0.00    +0.013 A 
ATOM     17  C   UNL     1      65.276  41.158  -2.253  0.00  0.00    +0.005 A 
ATOM     18  C   UNL     1      66.312  40.319  -1.656  0.00  0.00    -0.033 A 
ATOM     28  C   UNL     1      67.200  40.885  -0.654  0.00  0.00    +0.005 A 
ATOM     29  C   UNL     1      67.080  42.231  -0.240  0.00  0.00    +0.013 A 
BRANCH  18  19
ATOM     19  C   UNL     1      66.504  38.836  -2.027  0.00  0.00    +0.119 C 
BRANCH  19  20
ATOM     20  N   UNL     1      66.927  38.531  -3.427  0.00  0.00    -0.302 NA
ATOM     21  C   UNL     1      66.059  37.442  -4.065  0.00  0.00    +0.066 C 
ATOM     22  C   UNL     1      66.501  37.151  -5.536  0.00  0.00    -0.064 C 
ATOM     23  N   UNL     1      67.976  36.747  -5.552  0.00  0.00    +0.379 N 
ATOM     24  C   UNL     1      68.379  36.417  -6.927  0.00  0.00    -0.096 C 
ATOM     25  H   UNL     1      68.079  35.822  -4.937  0.00  0.00    -0.082 HD
ATOM     26  C   UNL     1      68.845  37.823  -4.917  0.00  0.00    -0.064 C 
ATOM     27  C   UNL     1      68.379  38.125  -3.466  0.00  0.00    +0.066 C 
ENDBRANCH  19  20
ENDBRANCH  18  19
ENDBRANCH  14  15
ENDBRANCH  12  13
TORSDOF 6
ENDMDL
MODEL 5
REMARK VINA RESULT:      -7.5      4.401      7.489
REMARK  Name = C:\Users\Docking\Desktop\test protocol\1iep_ligandH.pdb
REMARK  8 active torsions:
REMARK  status: ('A' for Active; 'I' for Inactive)
REMARK    1  A    between atoms: _5  and  _11
REMARK    2  A    between atoms: _19  and  _21
REMARK    3  A    between atoms: _22  and  _66
REMARK    4  A    between atoms: _27  and  _30
REMARK    5  A    between atoms: _32  and  _33
REMARK    6  A    between atoms: _38  and  _43
REMARK    7  A    between atoms: _43  and  _46
REMARK    8  A    between atoms: _53  and  _55
REMARK                            x       y       z     vdW  Elec       q    Type
REMARK                         _______ _______ _______ _____ _____    ______ ____
ROOT
ATOM     10  C   UNL     1      77.261  55.406  -0.373  0.00  0.00    +0.038 A 
ATOM     11  C   UNL     1      76.256  54.544   0.136  0.00  0.00    +0.047 A 
ATOM     12  C   UNL     1      75.259  53.951  -0.741  0.00  0.00    +0.035 A 
ATOM     32  C   UNL     1      75.316  54.256  -2.133  0.00  0.00    +0.024 A 
ATOM     33  C   UNL     1      76.330  55.131  -2.666  0.00  0.00    +0.007 A 
ATOM     34  C   UNL     1      77.315  55.721  -1.805  0.00  0.00    -0.029 A 
ATOM     35  C   UNL     1      78.374  56.657  -2.431  0.00  0.00    +0.045 C 
ENDROOT
BRANCH  10   9
ATOM      4  C   UNL     1      78.579  58.613   2.947  0.00  0.00    +0.077 A 
ATOM      5  C   UNL     1      77.311  59.282   2.889  0.00  0.00    +0.048 A 
ATOM      6  C   UNL     1      76.350  58.774   1.986  0.00  0.00    +0.116 A 
ATOM      7  N   UNL     1      76.645  57.678   1.205  0.00  0.00    -0.223 NA
ATOM      8  C   UNL     1      77.878  57.056   1.285  0.00  0.00    +0.220 A 
ATOM      9  N   UNL     1      78.193  55.948   0.515  0.00  0.00    -0.283 N 
ATOM     36  H   UNL     1      79.117  55.523   0.598  0.00  0.00    +0.155 HD
ATOM     37  N   UNL     1      78.814  57.523   2.138  0.00  0.00    -0.214 NA
BRANCH   4   3
ATOM      1  C   UNL     1      82.048  59.834   4.278  0.00  0.00    +0.020 A 
ATOM      2  C   UNL     1      81.004  59.441   3.360  0.00  0.00    +0.013 A 
ATOM      3  C   UNL     1      79.696  59.028   3.853  0.00  0.00    +0.019 A 
ATOM     38  C   UNL     1      79.476  59.024   5.291  0.00  0.00    +0.120 A 
ATOM     39  N   UNL     1      80.501  59.406   6.151  0.00  0.00    -0.263 NA
ATOM     40  C   UNL     1      81.764  59.804   5.688  0.00  0.00    +0.111 A 
ENDBRANCH   4   3
ENDBRANCH  10   9
BRANCH  12  13
ATOM     13  N   UNL     1      74.210  53.075  -0.281  0.00  0.00    -0.281 N 
ATOM     14  C   UNL     1      73.990  51.753  -0.631  0.00  0.00    +0.248 C 
ATOM     30  O   UNL     1      74.541  51.183  -1.562  0.00  0.00    -0.270 OA
ATOM     31  H   UNL     1      73.550  53.478   0.383  0.00  0.00    +0.155 HD
BRANCH  14  15
ATOM     15  C   UNL     1      73.007  50.951   0.158  0.00  0.00    +0.037 A 
ATOM     16  C   UNL     1      73.301  50.520   1.527  0.00  0.00    +0.013 A 
ATOM     17  C   UNL     1      72.342  49.733   2.260  0.00  0.00    +0.005 A 
ATOM     18  C   UNL     1      71.077  49.372   1.625  0.00  0.00    -0.033 A 
ATOM     28  C   UNL     1      70.808  49.817   0.267  0.00  0.00    +0.005 A 
ATOM     29  C   UNL     1      71.746  50.588  -0.455  0.00  0.00    +0.013 A 
BRANCH  18  19
ATOM     19  C   UNL     1      70.003  48.517   2.324  0.00  0.00    +0.119 C 
BRANCH  19  20
ATOM     20  N   UNL     1      69.362  47.433   1.521  0.00  0.00    -0.302 NA
ATOM     21  C   UNL     1      68.049  47.892   0.882  0.00  0.00    +0.066 C 
ATOM     22  C   UNL     1      67.403  46.753   0.028  0.00  0.00    -0.064 C 
ATOM     23  N   UNL     1      67.176  45.524   0.910  0.00  0.00    +0.379 N 
ATOM     24  C   UNL     1      66.516  44.471   0.123  0.00  0.00    -0.096 C 
ATOM     25  H   UNL     1      66.481  45.820   1.729  0.00  0.00    -0.082 HD
ATOM     26  C   UNL     1      68.477  45.063   1.551  0.00  0.00    -0.064 C 
ATOM     27  C   UNL     1      69.125  46.211   2.374  0.00  0.00    +0.066 C 
ENDBRANCH  19  20
ENDBRANCH  18  19
ENDBRANCH  14  15
ENDBRANCH  12  13
TORSDOF 6
ENDMDL
