MODEL 1
REMARK VINA RESULT:      -6.3      0.000      0.000
REMARK  Name = C:\Users\Docking\Desktop\test protocol\1iep_ligandH.pdb
REMARK  8 active torsions:
REMARK  status: ('A' for Active; 'I' for Inactive)
REMARK    1  A    between atoms: _5  and  _11
REMARK    2  A    between atoms: _19  and  _21
REMARK    3  A    between atoms: _22  and  _66
REMARK    4  A    between atoms: _27  and  _30
REMARK    5  A    between atoms: _32  and  _33
REMARK    6  A    between atoms: _38  and  _43
REMARK    7  A    between atoms: _43  and  _46
REMARK    8  A    between atoms: _53  and  _55
REMARK                            x       y       z     vdW  Elec       q    Type
REMARK                         _______ _______ _______ _____ _____    ______ ____
ROOT
ATOM     10  C   UNL     1      17.403  20.721  -8.654  0.00  0.00    +0.038 A 
ATOM     11  C   UNL     1      16.855  19.716  -9.491  0.00  0.00    +0.047 A 
ATOM     12  C   UNL     1      15.875  20.043 -10.516  0.00  0.00    +0.035 A 
ATOM     32  C   UNL     1      15.477  21.404 -10.661  0.00  0.00    +0.024 A 
ATOM     33  C   UNL     1      16.023  22.438  -9.818  0.00  0.00    +0.007 A 
ATOM     34  C   UNL     1      16.989  22.121  -8.804  0.00  0.00    -0.029 A 
ATOM     35  C   UNL     1      17.536  23.269  -7.924  0.00  0.00    +0.045 C 
ENDROOT
BRANCH  10   9
ATOM      4  C   UNL     1      21.897  19.775  -7.260  0.00  0.00    +0.077 A 
ATOM      5  C   UNL     1      22.418  20.011  -8.576  0.00  0.00    +0.048 A 
ATOM      6  C   UNL     1      21.495  20.367  -9.585  0.00  0.00    +0.116 A 
ATOM      7  N   UNL     1      20.153  20.476  -9.288  0.00  0.00    -0.223 NA
ATOM      8  C   UNL     1      19.684  20.240  -8.009  0.00  0.00    +0.220 A 
ATOM      9  N   UNL     1      18.341  20.352  -7.687  0.00  0.00    -0.283 N 
ATOM     36  H   UNL     1      18.033  20.162  -6.733  0.00  0.00    +0.155 HD
ATOM     37  N   UNL     1      20.545  19.898  -7.028  0.00  0.00    -0.214 NA
BRANCH   4   3
ATOM      1  C   UNL     1      23.591  17.740  -4.381  0.00  0.00    +0.020 A 
ATOM      2  C   UNL     1      22.751  18.055  -5.514  0.00  0.00    +0.013 A 
ATOM      3  C   UNL     1      22.747  19.395  -6.087  0.00  0.00    +0.019 A 
ATOM     38  C   UNL     1      23.611  20.400  -5.487  0.00  0.00    +0.120 A 
ATOM     39  N   UNL     1      24.408  20.068  -4.396  0.00  0.00    -0.263 NA
ATOM     40  C   UNL     1      24.419  18.782  -3.835  0.00  0.00    +0.111 A 
ENDBRANCH   4   3
ENDBRANCH  10   9
BRANCH  12  13
ATOM     13  N   UNL     1      15.277  19.064 -11.390  0.00  0.00    -0.281 N 
ATOM     14  C   UNL     1      14.092  18.370 -11.208  0.00  0.00    +0.248 C 
ATOM     30  O   UNL     1      13.469  18.329 -10.157  0.00  0.00    -0.270 OA
ATOM     31  H   UNL     1      15.790  18.858 -12.247  0.00  0.00    +0.155 HD
BRANCH  14  15
ATOM     15  C   UNL     1      13.524  17.598 -12.355  0.00  0.00    +0.037 A 
ATOM     16  C   UNL     1      12.077  17.436 -12.519  0.00  0.00    +0.013 A 
ATOM     17  C   UNL     1      11.556  16.672 -13.625  0.00  0.00    +0.005 A 
ATOM     18  C   UNL     1      12.484  16.065 -14.577  0.00  0.00    -0.033 A 
ATOM     28  C   UNL     1      13.915  16.247 -14.393  0.00  0.00    +0.005 A 
ATOM     29  C   UNL     1      14.429  16.994 -13.310  0.00  0.00    +0.013 A 
BRANCH  18  19
ATOM     19  C   UNL     1      12.018  15.216 -15.774  0.00  0.00    +0.119 C 
BRANCH  19  20
ATOM     20  N   UNL     1      12.242  13.742 -15.695  0.00  0.00    -0.302 NA
ATOM     21  C   UNL     1      12.010  13.053 -17.043  0.00  0.00    +0.066 C 
ATOM     22  C   UNL     1      12.271  11.514 -16.948  0.00  0.00    -0.064 C 
ATOM     23  N   UNL     1      11.368  10.913 -15.870  0.00  0.00    +0.379 N 
ATOM     24  C   UNL     1      11.569   9.457 -15.818  0.00  0.00    -0.096 C 
ATOM     25  H   UNL     1      10.311  11.098 -16.172  0.00  0.00    -0.082 HD
ATOM     26  C   UNL     1      11.590  11.594 -14.527  0.00  0.00    -0.064 C 
ATOM     27  C   UNL     1      11.357  13.126 -14.640  0.00  0.00    +0.066 C 
ENDBRANCH  19  20
ENDBRANCH  18  19
ENDBRANCH  14  15
ENDBRANCH  12  13
TORSDOF 6
ENDMDL
MODEL 2
REMARK VINA RESULT:      -6.2     29.905     34.050
REMARK  Name = C:\Users\Docking\Desktop\test protocol\1iep_ligandH.pdb
REMARK  8 active torsions:
REMARK  status: ('A' for Active; 'I' for Inactive)
REMARK    1  A    between atoms: _5  and  _11
REMARK    2  A    between atoms: _19  and  _21
REMARK    3  A    between atoms: _22  and  _66
REMARK    4  A    between atoms: _27  and  _30
REMARK    5  A    between atoms: _32  and  _33
REMARK    6  A    between atoms: _38  and  _43
REMARK    7  A    between atoms: _43  and  _46
REMARK    8  A    between atoms: _53  and  _55
REMARK                            x       y       z     vdW  Elec       q    Type
REMARK                         _______ _______ _______ _____ _____    ______ ____
ROOT
ATOM     10  C   UNL     1      24.147  13.207  22.158  0.00  0.00    +0.038 A 
ATOM     11  C   UNL     1      22.871  13.761  21.880  0.00  0.00    +0.047 A 
ATOM     12  C   UNL     1      22.501  14.157  20.531  0.00  0.00    +0.035 A 
ATOM     32  C   UNL     1      23.454  13.972  19.487  0.00  0.00    +0.024 A 
ATOM     33  C   UNL     1      24.755  13.412  19.752  0.00  0.00    +0.007 A 
ATOM     34  C   UNL     1      25.127  13.022  21.082  0.00  0.00    -0.029 A 
ATOM     35  C   UNL     1      26.539  12.433  21.308  0.00  0.00    +0.045 C 
ENDROOT
BRANCH  10   9
ATOM      4  C   UNL     1      25.825  14.200  26.544  0.00  0.00    +0.077 A 
ATOM      5  C   UNL     1      26.151  15.549  26.178  0.00  0.00    +0.048 A 
ATOM      6  C   UNL     1      25.878  15.945  24.850  0.00  0.00    +0.116 A 
ATOM      7  N   UNL     1      25.319  15.051  23.962  0.00  0.00    -0.223 NA
ATOM      8  C   UNL     1      25.019  13.757  24.347  0.00  0.00    +0.220 A 
ATOM      9  N   UNL     1      24.450  12.844  23.472  0.00  0.00    -0.283 N 
ATOM     36  H   UNL     1      24.250  11.897  23.793  0.00  0.00    +0.155 HD
ATOM     37  N   UNL     1      25.272  13.354  25.609  0.00  0.00    -0.214 NA
BRANCH   4   3
ATOM      1  C   UNL     1      27.532  13.012  29.857  0.00  0.00    +0.020 A 
ATOM      2  C   UNL     1      27.368  13.569  28.534  0.00  0.00    +0.013 A 
ATOM      3  C   UNL     1      26.052  13.634  27.911  0.00  0.00    +0.019 A 
ATOM     38  C   UNL     1      24.913  13.123  28.660  0.00  0.00    +0.120 A 
ATOM     39  N   UNL     1      25.102  12.592  29.932  0.00  0.00    -0.263 NA
ATOM     40  C   UNL     1      26.364  12.522  30.541  0.00  0.00    +0.111 A 
ENDBRANCH   4   3
ENDBRANCH  10   9
BRANCH  12  13
ATOM     13  N   UNL     1      21.223  14.732  20.189  0.00  0.00    -0.281 N 
ATOM     14  C   UNL     1      20.127  14.098  19.626  0.00  0.00    +0.248 C 
ATOM     30  O   UNL     1      20.153  12.982  19.131  0.00  0.00    -0.270 OA
ATOM     31  H   UNL     1      21.113  15.727  20.387  0.00  0.00    +0.155 HD
BRANCH  14  15
ATOM     15  C   UNL     1      18.816  14.815  19.596  0.00  0.00    +0.037 A 
ATOM     16  C   UNL     1      18.210  15.342  20.822  0.00  0.00    +0.013 A 
ATOM     17  C   UNL     1      16.935  16.014  20.767  0.00  0.00    +0.005 A 
ATOM     18  C   UNL     1      16.259  16.164  19.481  0.00  0.00    -0.033 A 
ATOM     28  C   UNL     1      16.886  15.636  18.280  0.00  0.00    +0.005 A 
ATOM     29  C   UNL     1      18.134  14.976  18.330  0.00  0.00    +0.013 A 
BRANCH  18  19
ATOM     19  C   UNL     1      14.888  16.848  19.331  0.00  0.00    +0.119 C 
BRANCH  19  20
ATOM     20  N   UNL     1      14.822  18.315  19.604  0.00  0.00    -0.302 NA
ATOM     21  C   UNL     1      13.447  18.742  20.124  0.00  0.00    +0.066 C 
ATOM     22  C   UNL     1      13.403  20.275  20.426  0.00  0.00    -0.064 C 
ATOM     23  N   UNL     1      13.767  21.052  19.159  0.00  0.00    +0.379 N 
ATOM     24  C   UNL     1      13.670  22.495  19.423  0.00  0.00    -0.096 C 
ATOM     25  H   UNL     1      13.012  20.799  18.379  0.00  0.00    -0.082 HD
ATOM     26  C   UNL     1      15.132  20.632  18.633  0.00  0.00    -0.064 C 
ATOM     27  C   UNL     1      15.175  19.101  18.365  0.00  0.00    +0.066 C 
ENDBRANCH  19  20
ENDBRANCH  18  19
ENDBRANCH  14  15
ENDBRANCH  12  13
TORSDOF 6
ENDMDL
MODEL 3
REMARK VINA RESULT:      -6.1     29.832     32.191
REMARK  Name = C:\Users\Docking\Desktop\test protocol\1iep_ligandH.pdb
REMARK  8 active torsions:
REMARK  status: ('A' for Active; 'I' for Inactive)
REMARK    1  A    between atoms: _5  and  _11
REMARK    2  A    between atoms: _19  and  _21
REMARK    3  A    between atoms: _22  and  _66
REMARK    4  A    between atoms: _27  and  _30
REMARK    5  A    between atoms: _32  and  _33
REMARK    6  A    between atoms: _38  and  _43
REMARK    7  A    between atoms: _43  and  _46
REMARK    8  A    between atoms: _53  and  _55
REMARK                            x       y       z     vdW  Elec       q    Type
REMARK                         _______ _______ _______ _____ _____    ______ ____
ROOT
ATOM     10  C   UNL     1      18.504  14.244  19.229  0.00  0.00    +0.038 A 
ATOM     11  C   UNL     1      18.149  15.616  19.166  0.00  0.00    +0.047 A 
ATOM     12  C   UNL     1      16.784  16.052  19.421  0.00  0.00    +0.035 A 
ATOM     32  C   UNL     1      15.808  15.064  19.739  0.00  0.00    +0.024 A 
ATOM     33  C   UNL     1      16.151  13.666  19.806  0.00  0.00    +0.007 A 
ATOM     34  C   UNL     1      17.495  13.229  19.554  0.00  0.00    -0.029 A 
ATOM     35  C   UNL     1      17.805  11.716  19.633  0.00  0.00    +0.045 C 
ENDROOT
BRANCH  10   9
ATOM      4  C   UNL     1      23.063  13.640  20.603  0.00  0.00    +0.077 A 
ATOM      5  C   UNL     1      22.788  14.112  21.929  0.00  0.00    +0.048 A 
ATOM      6  C   UNL     1      21.462  14.507  22.215  0.00  0.00    +0.116 A 
ATOM      7  N   UNL     1      20.492  14.432  21.240  0.00  0.00    -0.223 NA
ATOM      8  C   UNL     1      20.791  13.973  19.970  0.00  0.00    +0.220 A 
ATOM      9  N   UNL     1      19.829  13.882  18.976  0.00  0.00    -0.283 N 
ATOM     36  H   UNL     1      20.092  13.546  18.050  0.00  0.00    +0.155 HD
ATOM     37  N   UNL     1      22.050  13.591  19.671  0.00  0.00    -0.214 NA
BRANCH   4   3
ATOM      1  C   UNL     1      26.235  12.964  18.415  0.00  0.00    +0.020 A 
ATOM      2  C   UNL     1      24.922  13.425  18.803  0.00  0.00    +0.013 A 
ATOM      3  C   UNL     1      24.415  13.183  20.148  0.00  0.00    +0.019 A 
ATOM     38  C   UNL     1      25.268  12.465  21.083  0.00  0.00    +0.120 A 
ATOM     39  N   UNL     1      26.527  12.031  20.681  0.00  0.00    -0.263 NA
ATOM     40  C   UNL     1      27.025  12.257  19.389  0.00  0.00    +0.111 A 
ENDBRANCH   4   3
ENDBRANCH  10   9
BRANCH  12  13
ATOM     13  N   UNL     1      16.363  17.430  19.363  0.00  0.00    -0.281 N 
ATOM     14  C   UNL     1      15.317  17.971  18.633  0.00  0.00    +0.248 C 
ATOM     30  O   UNL     1      14.716  17.382  17.747  0.00  0.00    -0.270 OA
ATOM     31  H   UNL     1      16.900  18.086  19.930  0.00  0.00    +0.155 HD
BRANCH  14  15
ATOM     15  C   UNL     1      14.887  19.373  18.918  0.00  0.00    +0.037 A 
ATOM     16  C   UNL     1      13.810  19.660  19.869  0.00  0.00    +0.013 A 
ATOM     17  C   UNL     1      13.403  21.021  20.113  0.00  0.00    +0.005 A 
ATOM     18  C   UNL     1      14.076  22.107  19.404  0.00  0.00    -0.033 A 
ATOM     28  C   UNL     1      15.144  21.795  18.470  0.00  0.00    +0.005 A 
ATOM     29  C   UNL     1      15.545  20.462  18.227  0.00  0.00    +0.013 A 
BRANCH  18  19
ATOM     19  C   UNL     1      13.693  23.588  19.587  0.00  0.00    +0.119 C 
BRANCH  19  20
ATOM     20  N   UNL     1      14.128  24.256  20.850  0.00  0.00    -0.302 NA
ATOM     21  C   UNL     1      13.064  24.157  21.947  0.00  0.00    +0.066 C 
ATOM     22  C   UNL     1      13.545  24.842  23.268  0.00  0.00    -0.064 C 
ATOM     23  N   UNL     1      13.896  26.303  22.984  0.00  0.00    +0.379 N 
ATOM     24  C   UNL     1      14.292  26.965  24.235  0.00  0.00    -0.096 C 
ATOM     25  H   UNL     1      12.972  26.806  22.613  0.00  0.00    -0.082 HD
ATOM     26  C   UNL     1      14.950  26.411  21.891  0.00  0.00    -0.064 C 
ATOM     27  C   UNL     1      14.475  25.702  20.592  0.00  0.00    +0.066 C 
ENDBRANCH  19  20
ENDBRANCH  18  19
ENDBRANCH  14  15
ENDBRANCH  12  13
TORSDOF 6
ENDMDL
MODEL 4
REMARK VINA RESULT:      -6.1     28.920     33.038
REMARK  Name = C:\Users\Docking\Desktop\test protocol\1iep_ligandH.pdb
REMARK  8 active torsions:
REMARK  status: ('A' for Active; 'I' for Inactive)
REMARK    1  A    between atoms: _5  and  _11
REMARK    2  A    between atoms: _19  and  _21
REMARK    3  A    between atoms: _22  and  _66
REMARK    4  A    between atoms: _27  and  _30
REMARK    5  A    between atoms: _32  and  _33
REMARK    6  A    between atoms: _38  and  _43
REMARK    7  A    between atoms: _43  and  _46
REMARK    8  A    between atoms: _53  and  _55
REMARK                            x       y       z     vdW  Elec       q    Type
REMARK                         _______ _______ _______ _____ _____    ______ ____
ROOT
ATOM     10  C   UNL     1      16.854  15.791  18.211  0.00  0.00    +0.038 A 
ATOM     11  C   UNL     1      16.334  17.021  18.687  0.00  0.00    +0.047 A 
ATOM     12  C   UNL     1      14.969  17.428  18.388  0.00  0.00    +0.035 A 
ATOM     32  C   UNL     1      14.161  16.555  17.603  0.00  0.00    +0.024 A 
ATOM     33  C   UNL     1      14.675  15.301  17.109  0.00  0.00    +0.007 A 
ATOM     34  C   UNL     1      16.020  14.896  17.399  0.00  0.00    -0.029 A 
ATOM     35  C   UNL     1      16.520  13.544  16.839  0.00  0.00    +0.045 C 
ENDROOT
BRANCH  10   9
ATOM      4  C   UNL     1      20.231  14.388  21.320  0.00  0.00    +0.077 A 
ATOM      5  C   UNL     1      19.298  14.355  22.409  0.00  0.00    +0.048 A 
ATOM      6  C   UNL     1      17.960  14.714  22.129  0.00  0.00    +0.116 A 
ATOM      7  N   UNL     1      17.594  15.076  20.851  0.00  0.00    -0.223 NA
ATOM      8  C   UNL     1      18.519  15.098  19.823  0.00  0.00    +0.220 A 
ATOM      9  N   UNL     1      18.171  15.451  18.529  0.00  0.00    -0.283 N 
ATOM     36  H   UNL     1      18.884  15.462  17.800  0.00  0.00    +0.155 HD
ATOM     37  N   UNL     1      19.803  14.761  20.065  0.00  0.00    -0.214 NA
BRANCH   4   3
ATOM      1  C   UNL     1      23.893  14.097  22.665  0.00  0.00    +0.020 A 
ATOM      2  C   UNL     1      22.499  14.468  22.580  0.00  0.00    +0.013 A 
ATOM      3  C   UNL     1      21.679  14.033  21.456  0.00  0.00    +0.019 A 
ATOM     38  C   UNL     1      22.305  13.216  20.427  0.00  0.00    +0.120 A 
ATOM     39  N   UNL     1      23.650  12.876  20.535  0.00  0.00    -0.263 NA
ATOM     40  C   UNL     1      24.449  13.290  21.611  0.00  0.00    +0.111 A 
ENDBRANCH   4   3
ENDBRANCH  10   9
BRANCH  12  13
ATOM     13  N   UNL     1      14.389  18.669  18.837  0.00  0.00    -0.281 N 
ATOM     14  C   UNL     1      13.655  18.898  19.990  0.00  0.00    +0.248 C 
ATOM     30  O   UNL     1      13.202  18.018  20.707  0.00  0.00    -0.270 OA
ATOM     31  H   UNL     1      14.537  19.477  18.233  0.00  0.00    +0.155 HD
BRANCH  14  15
ATOM     15  C   UNL     1      13.370  20.307  20.397  0.00  0.00    +0.037 A 
ATOM     16  C   UNL     1      13.998  21.438  19.709  0.00  0.00    +0.013 A 
ATOM     17  C   UNL     1      13.720  22.788  20.132  0.00  0.00    +0.005 A 
ATOM     18  C   UNL     1      12.807  23.013  21.250  0.00  0.00    -0.033 A 
ATOM     28  C   UNL     1      12.194  21.873  21.912  0.00  0.00    +0.005 A 
ATOM     29  C   UNL     1      12.465  20.549  21.500  0.00  0.00    +0.013 A 
BRANCH  18  19
ATOM     19  C   UNL     1      12.468  24.418  21.783  0.00  0.00    +0.119 C 
BRANCH  19  20
ATOM     20  N   UNL     1      12.921  24.752  23.167  0.00  0.00    -0.302 NA
ATOM     21  C   UNL     1      11.990  25.757  23.849  0.00  0.00    +0.066 C 
ATOM     22  C   UNL     1      12.466  26.078  25.304  0.00  0.00    -0.064 C 
ATOM     23  N   UNL     1      13.900  26.609  25.262  0.00  0.00    +0.379 N 
ATOM     24  C   UNL     1      14.330  26.966  26.622  0.00  0.00    -0.096 C 
ATOM     25  H   UNL     1      13.897  27.542  24.652  0.00  0.00    -0.082 HD
ATOM     26  C   UNL     1      14.832  25.617  24.583  0.00  0.00    -0.064 C 
ATOM     27  C   UNL     1      14.334  25.282  23.149  0.00  0.00    +0.066 C 
ENDBRANCH  19  20
ENDBRANCH  18  19
ENDBRANCH  14  15
ENDBRANCH  12  13
TORSDOF 6
ENDMDL
MODEL 5
REMARK VINA RESULT:      -6.1     28.699     34.707
REMARK  Name = C:\Users\Docking\Desktop\test protocol\1iep_ligandH.pdb
REMARK  8 active torsions:
REMARK  status: ('A' for Active; 'I' for Inactive)
REMARK    1  A    between atoms: _5  and  _11
REMARK    2  A    between atoms: _19  and  _21
REMARK    3  A    between atoms: _22  and  _66
REMARK    4  A    between atoms: _27  and  _30
REMARK    5  A    between atoms: _32  and  _33
REMARK    6  A    between atoms: _38  and  _43
REMARK    7  A    between atoms: _43  and  _46
REMARK    8  A    between atoms: _53  and  _55
REMARK                            x       y       z     vdW  Elec       q    Type
REMARK                         _______ _______ _______ _____ _____    ______ ____
ROOT
ATOM     10  C   UNL     1      18.460  14.482  18.470  0.00  0.00    +0.038 A 
ATOM     11  C   UNL     1      19.463  14.342  19.463  0.00  0.00    +0.047 A 
ATOM     12  C   UNL     1      20.176  13.087  19.640  0.00  0.00    +0.035 A 
ATOM     32  C   UNL     1      19.843  11.995  18.787  0.00  0.00    +0.024 A 
ATOM     33  C   UNL     1      18.825  12.119  17.774  0.00  0.00    +0.007 A 
ATOM     34  C   UNL     1      18.117  13.354  17.596  0.00  0.00    -0.029 A 
ATOM     35  C   UNL     1      17.031  13.429  16.497  0.00  0.00    +0.045 C 
ENDROOT
BRANCH  10   9
ATOM      4  C   UNL     1      14.971  17.563  19.644  0.00  0.00    +0.077 A 
ATOM      5  C   UNL     1      14.383  16.637  20.568  0.00  0.00    +0.048 A 
ATOM      6  C   UNL     1      15.005  15.376  20.707  0.00  0.00    +0.116 A 
ATOM      7  N   UNL     1      16.131  15.074  19.972  0.00  0.00    -0.223 NA
ATOM      8  C   UNL     1      16.671  15.990  19.087  0.00  0.00    +0.220 A 
ATOM      9  N   UNL     1      17.807  15.711  18.343  0.00  0.00    -0.283 N 
ATOM     36  H   UNL     1      18.170  16.410  17.696  0.00  0.00    +0.155 HD
ATOM     37  N   UNL     1      16.095  17.201  18.936  0.00  0.00    -0.214 NA
BRANCH   4   3
ATOM      1  C   UNL     1      14.576  21.243  18.378  0.00  0.00    +0.020 A 
ATOM      2  C   UNL     1      15.141  19.931  18.595  0.00  0.00    +0.013 A 
ATOM      3  C   UNL     1      14.432  18.936  19.389  0.00  0.00    +0.019 A 
ATOM     38  C   UNL     1      13.142  19.303  19.954  0.00  0.00    +0.120 A 
ATOM     39  N   UNL     1      12.623  20.574  19.729  0.00  0.00    -0.263 NA
ATOM     40  C   UNL     1      13.297  21.541  18.968  0.00  0.00    +0.111 A 
ENDBRANCH   4   3
ENDBRANCH  10   9
BRANCH  12  13
ATOM     13  N   UNL     1      21.198  12.883  20.636  0.00  0.00    -0.281 N 
ATOM     14  C   UNL     1      22.455  13.461  20.697  0.00  0.00    +0.248 C 
ATOM     30  O   UNL     1      22.975  14.082  19.782  0.00  0.00    -0.270 OA
ATOM     31  H   UNL     1      20.967  12.234  21.388  0.00  0.00    +0.155 HD
BRANCH  14  15
ATOM     15  C   UNL     1      23.257  13.316  21.950  0.00  0.00    +0.037 A 
ATOM     16  C   UNL     1      23.088  12.157  22.831  0.00  0.00    +0.013 A 
ATOM     17  C   UNL     1      23.862  12.051  24.042  0.00  0.00    +0.005 A 
ATOM     18  C   UNL     1      24.815  13.106  24.379  0.00  0.00    -0.033 A 
ATOM     28  C   UNL     1      24.966  14.242  23.484  0.00  0.00    +0.005 A 
ATOM     29  C   UNL     1      24.209  14.350  22.297  0.00  0.00    +0.013 A 
BRANCH  18  19
ATOM     19  C   UNL     1      25.667  13.085  25.661  0.00  0.00    +0.119 C 
BRANCH  19  20
ATOM     20  N   UNL     1      26.285  14.374  26.093  0.00  0.00    -0.302 NA
ATOM     21  C   UNL     1      27.813  14.338  26.003  0.00  0.00    +0.066 C 
ATOM     22  C   UNL     1      28.442  15.702  26.437  0.00  0.00    -0.064 C 
ATOM     23  N   UNL     1      27.990  16.039  27.859  0.00  0.00    +0.379 N 
ATOM     24  C   UNL     1      28.626  17.293  28.291  0.00  0.00    -0.096 C 
ATOM     25  H   UNL     1      28.353  15.227  28.530  0.00  0.00    -0.082 HD
ATOM     26  C   UNL     1      26.472  16.075  27.957  0.00  0.00    -0.064 C 
ATOM     27  C   UNL     1      25.856  14.725  27.496  0.00  0.00    +0.066 C 
ENDBRANCH  19  20
ENDBRANCH  18  19
ENDBRANCH  14  15
ENDBRANCH  12  13
TORSDOF 6
ENDMDL
