MODEL 1
REMARK VINA RESULT:      -7.9      0.000      0.000
REMARK  Name = C:\Users\Docking\Desktop\test protocol\1iep_ligandH.pdb
REMARK  8 active torsions:
REMARK  status: ('A' for Active; 'I' for Inactive)
REMARK    1  A    between atoms: _5  and  _11
REMARK    2  A    between atoms: _19  and  _21
REMARK    3  A    between atoms: _22  and  _66
REMARK    4  A    between atoms: _27  and  _30
REMARK    5  A    between atoms: _32  and  _33
REMARK    6  A    between atoms: _38  and  _43
REMARK    7  A    between atoms: _43  and  _46
REMARK    8  A    between atoms: _53  and  _55
REMARK                            x       y       z     vdW  Elec       q    Type
REMARK                         _______ _______ _______ _____ _____    ______ ____
ROOT
ATOM     10  C   UNL     1      19.665  25.227   4.077  0.00  0.00    +0.038 A 
ATOM     11  C   UNL     1      18.339  25.119   4.568  0.00  0.00    +0.047 A 
ATOM     12  C   UNL     1      17.657  23.835   4.618  0.00  0.00    +0.035 A 
ATOM     32  C   UNL     1      18.358  22.680   4.162  0.00  0.00    +0.024 A 
ATOM     33  C   UNL     1      19.706  22.772   3.659  0.00  0.00    +0.007 A 
ATOM     34  C   UNL     1      20.382  24.037   3.605  0.00  0.00    -0.029 A 
ATOM     35  C   UNL     1      21.825  24.077   3.050  0.00  0.00    +0.045 C 
ENDROOT
BRANCH  10   9
ATOM      4  C   UNL     1      20.942  29.266   1.819  0.00  0.00    +0.077 A 
ATOM      5  C   UNL     1      20.377  28.820   0.578  0.00  0.00    +0.048 A 
ATOM      6  C   UNL     1      19.773  27.543   0.561  0.00  0.00    +0.116 A 
ATOM      7  N   UNL     1      19.742  26.777   1.706  0.00  0.00    -0.223 NA
ATOM      8  C   UNL     1      20.298  27.236   2.886  0.00  0.00    +0.220 A 
ATOM      9  N   UNL     1      20.272  26.485   4.052  0.00  0.00    -0.283 N 
ATOM     36  H   UNL     1      20.699  26.856   4.900  0.00  0.00    +0.155 HD
ATOM     37  N   UNL     1      20.882  28.451   2.928  0.00  0.00    -0.214 NA
BRANCH   4   3
ATOM      1  C   UNL     1      23.182  32.422   1.254  0.00  0.00    +0.020 A 
ATOM      2  C   UNL     1      22.563  31.135   1.035  0.00  0.00    +0.013 A 
ATOM      3  C   UNL     1      21.612  30.593   1.997  0.00  0.00    +0.019 A 
ATOM     38  C   UNL     1      21.305  31.385   3.179  0.00  0.00    +0.120 A 
ATOM     39  N   UNL     1      21.917  32.620   3.364  0.00  0.00    -0.263 NA
ATOM     40  C   UNL     1      22.836  33.152   2.446  0.00  0.00    +0.111 A 
ENDBRANCH   4   3
ENDBRANCH  10   9
BRANCH  12  13
ATOM     13  N   UNL     1      16.309  23.665   5.099  0.00  0.00    -0.281 N 
ATOM     14  C   UNL     1      15.196  23.253   4.384  0.00  0.00    +0.248 C 
ATOM     30  O   UNL     1      15.147  23.172   3.166  0.00  0.00    -0.270 OA
ATOM     31  H   UNL     1      16.156  23.874   6.085  0.00  0.00    +0.155 HD
BRANCH  14  15
ATOM     15  C   UNL     1      13.952  22.892   5.130  0.00  0.00    +0.037 A 
ATOM     16  C   UNL     1      12.707  22.577   4.425  0.00  0.00    +0.013 A 
ATOM     17  C   UNL     1      11.517  22.248   5.169  0.00  0.00    +0.005 A 
ATOM     18  C   UNL     1      11.567  22.233   6.629  0.00  0.00    -0.033 A 
ATOM     28  C   UNL     1      12.817  22.545   7.303  0.00  0.00    +0.005 A 
ATOM     29  C   UNL     1      13.985  22.868   6.577  0.00  0.00    +0.013 A 
BRANCH  18  19
ATOM     19  C   UNL     1      10.341  21.914   7.505  0.00  0.00    +0.119 C 
BRANCH  19  20
ATOM     20  N   UNL     1      10.594  21.553   8.931  0.00  0.00    -0.302 NA
ATOM     21  C   UNL     1      10.812  20.048   9.112  0.00  0.00    +0.066 C 
ATOM     22  C   UNL     1      11.099  19.690  10.607  0.00  0.00    -0.064 C 
ATOM     23  N   UNL     1       9.939  20.177  11.477  0.00  0.00    +0.379 N 
ATOM     24  C   UNL     1      10.177  19.791  12.875  0.00  0.00    -0.096 C 
ATOM     25  H   UNL     1       9.016  19.654  11.134  0.00  0.00    -0.082 HD
ATOM     26  C   UNL     1       9.713  21.672  11.301  0.00  0.00    -0.064 C 
ATOM     27  C   UNL     1       9.459  22.021   9.808  0.00  0.00    +0.066 C 
ENDBRANCH  19  20
ENDBRANCH  18  19
ENDBRANCH  14  15
ENDBRANCH  12  13
TORSDOF 6
ENDMDL
MODEL 2
REMARK VINA RESULT:      -7.9      2.023      2.726
REMARK  Name = C:\Users\Docking\Desktop\test protocol\1iep_ligandH.pdb
REMARK  8 active torsions:
REMARK  status: ('A' for Active; 'I' for Inactive)
REMARK    1  A    between atoms: _5  and  _11
REMARK    2  A    between atoms: _19  and  _21
REMARK    3  A    between atoms: _22  and  _66
REMARK    4  A    between atoms: _27  and  _30
REMARK    5  A    between atoms: _32  and  _33
REMARK    6  A    between atoms: _38  and  _43
REMARK    7  A    between atoms: _43  and  _46
REMARK    8  A    between atoms: _53  and  _55
REMARK                            x       y       z     vdW  Elec       q    Type
REMARK                         _______ _______ _______ _____ _____    ______ ____
ROOT
ATOM     10  C   UNL     1      19.873  25.010   3.773  0.00  0.00    +0.038 A 
ATOM     11  C   UNL     1      18.561  24.794   4.266  0.00  0.00    +0.047 A 
ATOM     12  C   UNL     1      17.947  23.476   4.220  0.00  0.00    +0.035 A 
ATOM     32  C   UNL     1      18.699  22.399   3.667  0.00  0.00    +0.024 A 
ATOM     33  C   UNL     1      20.034  22.601   3.160  0.00  0.00    +0.007 A 
ATOM     34  C   UNL     1      20.643  23.900   3.200  0.00  0.00    -0.029 A 
ATOM     35  C   UNL     1      22.074  24.059   2.636  0.00  0.00    +0.045 C 
ENDROOT
BRANCH  10   9
ATOM      4  C   UNL     1      20.982  29.246   1.808  0.00  0.00    +0.077 A 
ATOM      5  C   UNL     1      20.464  28.855   0.528  0.00  0.00    +0.048 A 
ATOM      6  C   UNL     1      19.928  27.553   0.416  0.00  0.00    +0.116 A 
ATOM      7  N   UNL     1      19.915  26.713   1.508  0.00  0.00    -0.223 NA
ATOM      8  C   UNL     1      20.423  27.121   2.728  0.00  0.00    +0.220 A 
ATOM      9  N   UNL     1      20.413  26.296   3.842  0.00  0.00    -0.283 N 
ATOM     36  H   UNL     1      20.804  26.632   4.722  0.00  0.00    +0.155 HD
ATOM     37  N   UNL     1      20.942  28.360   2.861  0.00  0.00    -0.214 NA
BRANCH   4   3
ATOM      1  C   UNL     1      23.118  32.511   1.535  0.00  0.00    +0.020 A 
ATOM      2  C   UNL     1      22.575  31.210   1.221  0.00  0.00    +0.013 A 
ATOM      3  C   UNL     1      21.578  30.591   2.086  0.00  0.00    +0.019 A 
ATOM     38  C   UNL     1      21.148  31.322   3.269  0.00  0.00    +0.120 A 
ATOM     39  N   UNL     1      21.690  32.573   3.546  0.00  0.00    -0.263 NA
ATOM     40  C   UNL     1      22.652  33.178   2.722  0.00  0.00    +0.111 A 
ENDBRANCH   4   3
ENDBRANCH  10   9
BRANCH  12  13
ATOM     13  N   UNL     1      16.615  23.198   4.699  0.00  0.00    -0.281 N 
ATOM     14  C   UNL     1      16.246  22.449   5.803  0.00  0.00    +0.248 C 
ATOM     30  O   UNL     1      17.003  21.721   6.429  0.00  0.00    -0.270 OA
ATOM     31  H   UNL     1      15.852  23.604   4.157  0.00  0.00    +0.155 HD
BRANCH  14  15
ATOM     15  C   UNL     1      14.828  22.503   6.272  0.00  0.00    +0.037 A 
ATOM     16  C   UNL     1      13.753  22.959   5.389  0.00  0.00    +0.013 A 
ATOM     17  C   UNL     1      12.396  23.018   5.872  0.00  0.00    +0.005 A 
ATOM     18  C   UNL     1      12.107  22.618   7.247  0.00  0.00    -0.033 A 
ATOM     28  C   UNL     1      13.192  22.164   8.100  0.00  0.00    +0.005 A 
ATOM     29  C   UNL     1      14.524  22.106   7.631  0.00  0.00    +0.013 A 
BRANCH  18  19
ATOM     19  C   UNL     1      10.692  22.669   7.853  0.00  0.00    +0.119 C 
BRANCH  19  20
ATOM     20  N   UNL     1       9.993  23.989   7.848  0.00  0.00    -0.302 NA
ATOM     21  C   UNL     1      10.913  25.128   8.296  0.00  0.00    +0.066 C 
ATOM     22  C   UNL     1      10.173  26.504   8.263  0.00  0.00    -0.064 C 
ATOM     23  N   UNL     1       8.929  26.432   9.151  0.00  0.00    +0.379 N 
ATOM     24  C   UNL     1       8.262  27.742   9.169  0.00  0.00    -0.096 C 
ATOM     25  H   UNL     1       9.267  26.210  10.190  0.00  0.00    -0.082 HD
ATOM     26  C   UNL     1       8.010  25.300   8.714  0.00  0.00    -0.064 C 
ATOM     27  C   UNL     1       8.764  23.941   8.722  0.00  0.00    +0.066 C 
ENDBRANCH  19  20
ENDBRANCH  18  19
ENDBRANCH  14  15
ENDBRANCH  12  13
TORSDOF 6
ENDMDL
MODEL 3
REMARK VINA RESULT:      -7.9      9.248     14.497
REMARK  Name = C:\Users\Docking\Desktop\test protocol\1iep_ligandH.pdb
REMARK  8 active torsions:
REMARK  status: ('A' for Active; 'I' for Inactive)
REMARK    1  A    between atoms: _5  and  _11
REMARK    2  A    between atoms: _19  and  _21
REMARK    3  A    between atoms: _22  and  _66
REMARK    4  A    between atoms: _27  and  _30
REMARK    5  A    between atoms: _32  and  _33
REMARK    6  A    between atoms: _38  and  _43
REMARK    7  A    between atoms: _43  and  _46
REMARK    8  A    between atoms: _53  and  _55
REMARK                            x       y       z     vdW  Elec       q    Type
REMARK                         _______ _______ _______ _____ _____    ______ ____
ROOT
ATOM     10  C   UNL     1       9.068  25.075   8.253  0.00  0.00    +0.038 A 
ATOM     11  C   UNL     1       7.727  25.535   8.208  0.00  0.00    +0.047 A 
ATOM     12  C   UNL     1       7.421  26.951   8.084  0.00  0.00    +0.035 A 
ATOM     32  C   UNL     1       8.506  27.873   8.006  0.00  0.00    +0.024 A 
ATOM     33  C   UNL     1       9.875  27.423   8.052  0.00  0.00    +0.007 A 
ATOM     34  C   UNL     1      10.183  26.027   8.176  0.00  0.00    -0.029 A 
ATOM     35  C   UNL     1      11.669  25.602   8.226  0.00  0.00    +0.045 C 
ENDROOT
BRANCH  10   9
ATOM      4  C   UNL     1      10.263  21.192  10.809  0.00  0.00    +0.077 A 
ATOM      5  C   UNL     1      10.459  21.965  12.002  0.00  0.00    +0.048 A 
ATOM      6  C   UNL     1      10.249  23.360  11.913  0.00  0.00    +0.116 A 
ATOM      7  N   UNL     1       9.871  23.928  10.716  0.00  0.00    -0.223 NA
ATOM      8  C   UNL     1       9.692  23.154   9.584  0.00  0.00    +0.220 A 
ATOM      9  N   UNL     1       9.304  23.703   8.372  0.00  0.00    -0.283 N 
ATOM     36  H   UNL     1       9.190  23.100   7.558  0.00  0.00    +0.155 HD
ATOM     37  N   UNL     1       9.888  21.820   9.643  0.00  0.00    -0.214 NA
BRANCH   4   3
ATOM      1  C   UNL     1      11.871  17.632  10.615  0.00  0.00    +0.020 A 
ATOM      2  C   UNL     1      11.752  19.070  10.676  0.00  0.00    +0.013 A 
ATOM      3  C   UNL     1      10.443  19.708  10.744  0.00  0.00    +0.019 A 
ATOM     38  C   UNL     1       9.264  18.854  10.748  0.00  0.00    +0.120 A 
ATOM     39  N   UNL     1       9.410  17.471  10.687  0.00  0.00    -0.263 NA
ATOM     40  C   UNL     1      10.664  16.847  10.620  0.00  0.00    +0.111 A 
ENDBRANCH   4   3
ENDBRANCH  10   9
BRANCH  12  13
ATOM     13  N   UNL     1       6.079  27.478   8.042  0.00  0.00    -0.281 N 
ATOM     14  C   UNL     1       5.099  27.236   7.093  0.00  0.00    +0.248 C 
ATOM     30  O   UNL     1       5.299  26.696   6.015  0.00  0.00    -0.270 OA
ATOM     31  H   UNL     1       5.820  28.104   8.804  0.00  0.00    +0.155 HD
BRANCH  14  15
ATOM     15  C   UNL     1       3.697  27.671   7.375  0.00  0.00    +0.037 A 
ATOM     16  C   UNL     1       3.328  29.088   7.384  0.00  0.00    +0.013 A 
ATOM     17  C   UNL     1       1.972  29.481   7.676  0.00  0.00    +0.005 A 
ATOM     18  C   UNL     1       0.975  28.452   7.962  0.00  0.00    -0.033 A 
ATOM     28  C   UNL     1       1.367  27.053   7.942  0.00  0.00    +0.005 A 
ATOM     29  C   UNL     1       2.695  26.665   7.656  0.00  0.00    +0.013 A 
BRANCH  18  19
ATOM     19  C   UNL     1      -0.490  28.781   8.305  0.00  0.00    +0.119 C 
BRANCH  19  20
ATOM     20  N   UNL     1      -0.830  28.965   9.748  0.00  0.00    -0.302 NA
ATOM     21  C   UNL     1      -1.798  27.891  10.251  0.00  0.00    +0.066 C 
ATOM     22  C   UNL     1      -2.125  28.085  11.768  0.00  0.00    -0.064 C 
ATOM     23  N   UNL     1      -2.706  29.483  11.986  0.00  0.00    +0.379 N 
ATOM     24  C   UNL     1      -3.068  29.648  13.402  0.00  0.00    -0.096 C 
ATOM     25  H   UNL     1      -3.642  29.558  11.386  0.00  0.00    -0.082 HD
ATOM     26  C   UNL     1      -1.751  30.557  11.486  0.00  0.00    -0.064 C 
ATOM     27  C   UNL     1      -1.409  30.338   9.986  0.00  0.00    +0.066 C 
ENDBRANCH  19  20
ENDBRANCH  18  19
ENDBRANCH  14  15
ENDBRANCH  12  13
TORSDOF 6
ENDMDL
MODEL 4
REMARK VINA RESULT:      -7.8      9.200     13.507
REMARK  Name = C:\Users\Docking\Desktop\test protocol\1iep_ligandH.pdb
REMARK  8 active torsions:
REMARK  status: ('A' for Active; 'I' for Inactive)
REMARK    1  A    between atoms: _5  and  _11
REMARK    2  A    between atoms: _19  and  _21
REMARK    3  A    between atoms: _22  and  _66
REMARK    4  A    between atoms: _27  and  _30
REMARK    5  A    between atoms: _32  and  _33
REMARK    6  A    between atoms: _38  and  _43
REMARK    7  A    between atoms: _43  and  _46
REMARK    8  A    between atoms: _53  and  _55
REMARK                            x       y       z     vdW  Elec       q    Type
REMARK                         _______ _______ _______ _____ _____    ______ ____
ROOT
ATOM     10  C   UNL     1       9.321  25.369   8.365  0.00  0.00    +0.038 A 
ATOM     11  C   UNL     1       7.958  25.251   7.990  0.00  0.00    +0.047 A 
ATOM     12  C   UNL     1       7.071  26.403   8.004  0.00  0.00    +0.035 A 
ATOM     32  C   UNL     1       7.606  27.663   8.402  0.00  0.00    +0.024 A 
ATOM     33  C   UNL     1       8.989  27.801   8.787  0.00  0.00    +0.007 A 
ATOM     34  C   UNL     1       9.868  26.667   8.778  0.00  0.00    -0.029 A 
ATOM     35  C   UNL     1      11.340  26.872   9.206  0.00  0.00    +0.045 C 
ENDROOT
BRANCH  10   9
ATOM      4  C   UNL     1      11.443  21.626  10.491  0.00  0.00    +0.077 A 
ATOM      5  C   UNL     1      10.923  21.986  11.778  0.00  0.00    +0.048 A 
ATOM      6  C   UNL     1      10.119  23.146  11.852  0.00  0.00    +0.116 A 
ATOM      7  N   UNL     1       9.861  23.883  10.716  0.00  0.00    -0.223 NA
ATOM      8  C   UNL     1      10.380  23.508   9.490  0.00  0.00    +0.220 A 
ATOM      9  N   UNL     1      10.127  24.229   8.333  0.00  0.00    -0.283 N 
ATOM     36  H   UNL     1      10.534  23.924   7.449  0.00  0.00    +0.155 HD
ATOM     37  N   UNL     1      11.152  22.405   9.394  0.00  0.00    -0.214 NA
BRANCH   4   3
ATOM      1  C   UNL     1      14.464  19.329   9.542  0.00  0.00    +0.020 A 
ATOM      2  C   UNL     1      13.673  20.519   9.756  0.00  0.00    +0.013 A 
ATOM      3  C   UNL     1      12.305  20.425  10.251  0.00  0.00    +0.019 A 
ATOM     38  C   UNL     1      11.764  19.102  10.522  0.00  0.00    +0.120 A 
ATOM     39  N   UNL     1      12.548  17.974  10.305  0.00  0.00    -0.263 NA
ATOM     40  C   UNL     1      13.865  18.051   9.827  0.00  0.00    +0.111 A 
ENDBRANCH   4   3
ENDBRANCH  10   9
BRANCH  12  13
ATOM     13  N   UNL     1       5.676  26.343   7.642  0.00  0.00    -0.281 N 
ATOM     14  C   UNL     1       5.127  26.329   6.370  0.00  0.00    +0.248 C 
ATOM     30  O   UNL     1       5.744  26.584   5.347  0.00  0.00    -0.270 OA
ATOM     31  H   UNL     1       5.014  26.305   8.417  0.00  0.00    +0.155 HD
BRANCH  14  15
ATOM     15  C   UNL     1       3.677  25.999   6.214  0.00  0.00    +0.037 A 
ATOM     16  C   UNL     1       3.139  25.528   4.935  0.00  0.00    +0.013 A 
ATOM     17  C   UNL     1       1.734  25.233   4.807  0.00  0.00    +0.005 A 
ATOM     18  C   UNL     1       0.857  25.406   5.963  0.00  0.00    -0.033 A 
ATOM     28  C   UNL     1       1.419  25.869   7.221  0.00  0.00    +0.005 A 
ATOM     29  C   UNL     1       2.795  26.161   7.350  0.00  0.00    +0.013 A 
BRANCH  18  19
ATOM     19  C   UNL     1      -0.658  25.135   5.911  0.00  0.00    +0.119 C 
BRANCH  19  20
ATOM     20  N   UNL     1      -1.323  24.725   7.184  0.00  0.00    -0.302 NA
ATOM     21  C   UNL     1      -2.198  23.482   7.001  0.00  0.00    +0.066 C 
ATOM     22  C   UNL     1      -2.868  23.054   8.347  0.00  0.00    -0.064 C 
ATOM     23  N   UNL     1      -3.692  24.219   8.896  0.00  0.00    +0.379 N 
ATOM     24  C   UNL     1      -4.370  23.801  10.132  0.00  0.00    -0.096 C 
ATOM     25  H   UNL     1      -4.479  24.461   8.143  0.00  0.00    -0.082 HD
ATOM     26  C   UNL     1      -2.831  25.461   9.078  0.00  0.00    -0.064 C 
ATOM     27  C   UNL     1      -2.146  25.860   7.741  0.00  0.00    +0.066 C 
ENDBRANCH  19  20
ENDBRANCH  18  19
ENDBRANCH  14  15
ENDBRANCH  12  13
TORSDOF 6
ENDMDL
MODEL 5
REMARK VINA RESULT:      -7.8      3.818     12.352
REMARK  Name = C:\Users\Docking\Desktop\test protocol\1iep_ligandH.pdb
REMARK  8 active torsions:
REMARK  status: ('A' for Active; 'I' for Inactive)
REMARK    1  A    between atoms: _5  and  _11
REMARK    2  A    between atoms: _19  and  _21
REMARK    3  A    between atoms: _22  and  _66
REMARK    4  A    between atoms: _27  and  _30
REMARK    5  A    between atoms: _32  and  _33
REMARK    6  A    between atoms: _38  and  _43
REMARK    7  A    between atoms: _43  and  _46
REMARK    8  A    between atoms: _53  and  _55
REMARK                            x       y       z     vdW  Elec       q    Type
REMARK                         _______ _______ _______ _____ _____    ______ ____
ROOT
ATOM     10  C   UNL     1      12.128  22.662   7.771  0.00  0.00    +0.038 A 
ATOM     11  C   UNL     1      13.375  22.979   7.175  0.00  0.00    +0.047 A 
ATOM     12  C   UNL     1      14.611  22.377   7.650  0.00  0.00    +0.035 A 
ATOM     32  C   UNL     1      14.539  21.454   8.733  0.00  0.00    +0.024 A 
ATOM     33  C   UNL     1      13.280  21.121   9.352  0.00  0.00    +0.007 A 
ATOM     34  C   UNL     1      12.058  21.713   8.888  0.00  0.00    -0.029 A 
ATOM     35  C   UNL     1      10.737  21.324   9.593  0.00  0.00    +0.045 C 
ENDROOT
BRANCH  10   9
ATOM      4  C   UNL     1       8.996  26.295   7.597  0.00  0.00    +0.077 A 
ATOM      5  C   UNL     1       9.707  27.034   8.600  0.00  0.00    +0.048 A 
ATOM      6  C   UNL     1      10.870  26.440   9.141  0.00  0.00    +0.116 A 
ATOM      7  N   UNL     1      11.282  25.200   8.703  0.00  0.00    -0.223 NA
ATOM      8  C   UNL     1      10.572  24.514   7.735  0.00  0.00    +0.220 A 
ATOM      9  N   UNL     1      10.972  23.269   7.274  0.00  0.00    -0.283 N 
ATOM     36  H   UNL     1      10.417  22.792   6.564  0.00  0.00    +0.155 HD
ATOM     37  N   UNL     1       9.457  25.058   7.204  0.00  0.00    -0.214 NA
BRANCH   4   3
ATOM      1  C   UNL     1       5.340  27.531   6.959  0.00  0.00    +0.020 A 
ATOM      2  C   UNL     1       6.514  27.053   7.653  0.00  0.00    +0.013 A 
ATOM      3  C   UNL     1       7.751  26.790   6.928  0.00  0.00    +0.019 A 
ATOM     38  C   UNL     1       7.767  27.023   5.492  0.00  0.00    +0.120 A 
ATOM     39  N   UNL     1       6.621  27.482   4.851  0.00  0.00    -0.263 NA
ATOM     40  C   UNL     1       5.424  27.737   5.537  0.00  0.00    +0.111 A 
ENDBRANCH   4   3
ENDBRANCH  10   9
BRANCH  12  13
ATOM     13  N   UNL     1      15.907  22.667   7.090  0.00  0.00    -0.281 N 
ATOM     14  C   UNL     1      16.458  22.174   5.918  0.00  0.00    +0.248 C 
ATOM     30  O   UNL     1      16.001  21.237   5.280  0.00  0.00    -0.270 OA
ATOM     31  H   UNL     1      16.490  23.314   7.621  0.00  0.00    +0.155 HD
BRANCH  14  15
ATOM     15  C   UNL     1      17.706  22.802   5.386  0.00  0.00    +0.037 A 
ATOM     16  C   UNL     1      17.689  24.142   4.795  0.00  0.00    +0.013 A 
ATOM     17  C   UNL     1      18.903  24.718   4.274  0.00  0.00    +0.005 A 
ATOM     18  C   UNL     1      20.146  23.953   4.344  0.00  0.00    -0.033 A 
ATOM     28  C   UNL     1      20.135  22.628   4.941  0.00  0.00    +0.005 A 
ATOM     29  C   UNL     1      18.947  22.060   5.452  0.00  0.00    +0.013 A 
BRANCH  18  19
ATOM     19  C   UNL     1      21.485  24.481   3.794  0.00  0.00    +0.119 C 
BRANCH  19  20
ATOM     20  N   UNL     1      21.847  24.100   2.396  0.00  0.00    -0.302 NA
ATOM     21  C   UNL     1      23.000  23.094   2.354  0.00  0.00    +0.066 C 
ATOM     22  C   UNL     1      23.351  22.690   0.885  0.00  0.00    -0.064 C 
ATOM     23  N   UNL     1      23.698  23.946   0.083  0.00  0.00    +0.379 N 
ATOM     24  C   UNL     1      24.085  23.564  -1.283  0.00  0.00    -0.096 C 
ATOM     25  H   UNL     1      24.584  24.420   0.566  0.00  0.00    -0.082 HD
ATOM     26  C   UNL     1      22.558  24.953   0.122  0.00  0.00    -0.064 C 
ATOM     27  C   UNL     1      22.198  25.325   1.587  0.00  0.00    +0.066 C 
ENDBRANCH  19  20
ENDBRANCH  18  19
ENDBRANCH  14  15
ENDBRANCH  12  13
TORSDOF 6
ENDMDL
