MODEL 1
REMARK VINA RESULT:      -8.5      0.000      0.000
REMARK  Name = C:\Users\Docking\Desktop\test protocol\1iep_ligandH.pdb
REMARK  8 active torsions:
REMARK  status: ('A' for Active; 'I' for Inactive)
REMARK    1  A    between atoms: _5  and  _11
REMARK    2  A    between atoms: _19  and  _21
REMARK    3  A    between atoms: _22  and  _66
REMARK    4  A    between atoms: _27  and  _30
REMARK    5  A    between atoms: _32  and  _33
REMARK    6  A    between atoms: _38  and  _43
REMARK    7  A    between atoms: _43  and  _46
REMARK    8  A    between atoms: _53  and  _55
REMARK                            x       y       z     vdW  Elec       q    Type
REMARK                         _______ _______ _______ _____ _____    ______ ____
ROOT
ATOM     10  C   UNL     1     -11.638  23.070  25.069  0.00  0.00    +0.038 A 
ATOM     11  C   UNL     1     -11.764  24.335  25.698  0.00  0.00    +0.047 A 
ATOM     12  C   UNL     1     -12.543  25.403  25.091  0.00  0.00    +0.035 A 
ATOM     32  C   UNL     1     -13.183  25.147  23.843  0.00  0.00    +0.024 A 
ATOM     33  C   UNL     1     -13.064  23.867  23.189  0.00  0.00    +0.007 A 
ATOM     34  C   UNL     1     -12.295  22.811  23.782  0.00  0.00    -0.029 A 
ATOM     35  C   UNL     1     -12.197  21.462  23.033  0.00  0.00    +0.045 C 
ENDROOT
BRANCH  10   9
ATOM      4  C   UNL     1      -7.602  20.523  25.586  0.00  0.00    +0.077 A 
ATOM      5  C   UNL     1      -6.964  21.203  24.496  0.00  0.00    +0.048 A 
ATOM      6  C   UNL     1      -7.711  22.196  23.824  0.00  0.00    +0.116 A 
ATOM      7  N   UNL     1      -8.999  22.481  24.221  0.00  0.00    -0.223 NA
ATOM      8  C   UNL     1      -9.586  21.805  25.275  0.00  0.00    +0.220 A 
ATOM      9  N   UNL     1     -10.878  22.081  25.697  0.00  0.00    -0.283 N 
ATOM     36  H   UNL     1     -11.277  21.555  26.474  0.00  0.00    +0.155 HD
ATOM     37  N   UNL     1      -8.894  20.851  25.933  0.00  0.00    -0.214 NA
BRANCH   4   3
ATOM      1  C   UNL     1      -5.062  18.569  27.829  0.00  0.00    +0.020 A 
ATOM      2  C   UNL     1      -5.656  19.637  27.058  0.00  0.00    +0.013 A 
ATOM      3  C   UNL     1      -6.942  19.452  26.397  0.00  0.00    +0.019 A 
ATOM     38  C   UNL     1      -7.606  18.165  26.538  0.00  0.00    +0.120 A 
ATOM     39  N   UNL     1      -7.009  17.155  27.286  0.00  0.00    -0.263 NA
ATOM     40  C   UNL     1      -5.771  17.321  27.925  0.00  0.00    +0.111 A 
ENDBRANCH   4   3
ENDBRANCH  10   9
BRANCH  12  13
ATOM     13  N   UNL     1     -12.700  26.710  25.679  0.00  0.00    -0.281 N 
ATOM     14  C   UNL     1     -13.793  27.207  26.371  0.00  0.00    +0.248 C 
ATOM     30  O   UNL     1     -14.891  26.672  26.405  0.00  0.00    -0.270 OA
ATOM     31  H   UNL     1     -11.910  27.347  25.572  0.00  0.00    +0.155 HD
BRANCH  14  15
ATOM     15  C   UNL     1     -13.649  28.491  27.122  0.00  0.00    +0.037 A 
ATOM     16  C   UNL     1     -13.522  28.508  28.581  0.00  0.00    +0.013 A 
ATOM     17  C   UNL     1     -13.401  29.761  29.282  0.00  0.00    +0.005 A 
ATOM     18  C   UNL     1     -13.406  31.010  28.524  0.00  0.00    -0.033 A 
ATOM     28  C   UNL     1     -13.528  30.964  27.076  0.00  0.00    +0.005 A 
ATOM     29  C   UNL     1     -13.647  29.737  26.385  0.00  0.00    +0.013 A 
BRANCH  18  19
ATOM     19  C   UNL     1     -13.303  32.394  29.190  0.00  0.00    +0.119 C 
BRANCH  19  20
ATOM     20  N   UNL     1     -14.581  33.114  29.472  0.00  0.00    -0.302 NA
ATOM     21  C   UNL     1     -15.084  33.891  28.252  0.00  0.00    +0.066 C 
ATOM     22  C   UNL     1     -16.433  34.619  28.557  0.00  0.00    -0.064 C 
ATOM     23  N   UNL     1     -16.246  35.553  29.754  0.00  0.00    +0.379 N 
ATOM     24  C   UNL     1     -17.497  36.282  30.008  0.00  0.00    -0.096 C 
ATOM     25  H   UNL     1     -15.467  36.302  29.480  0.00  0.00    -0.082 HD
ATOM     26  C   UNL     1     -15.743  34.789  30.971  0.00  0.00    -0.064 C 
ATOM     27  C   UNL     1     -14.418  34.045  30.648  0.00  0.00    +0.066 C 
ENDBRANCH  19  20
ENDBRANCH  18  19
ENDBRANCH  14  15
ENDBRANCH  12  13
TORSDOF 6
ENDMDL
MODEL 2
REMARK VINA RESULT:      -8.4      2.390      3.880
REMARK  Name = C:\Users\Docking\Desktop\test protocol\1iep_ligandH.pdb
REMARK  8 active torsions:
REMARK  status: ('A' for Active; 'I' for Inactive)
REMARK    1  A    between atoms: _5  and  _11
REMARK    2  A    between atoms: _19  and  _21
REMARK    3  A    between atoms: _22  and  _66
REMARK    4  A    between atoms: _27  and  _30
REMARK    5  A    between atoms: _32  and  _33
REMARK    6  A    between atoms: _38  and  _43
REMARK    7  A    between atoms: _43  and  _46
REMARK    8  A    between atoms: _53  and  _55
REMARK                            x       y       z     vdW  Elec       q    Type
REMARK                         _______ _______ _______ _____ _____    ______ ____
ROOT
ATOM     10  C   UNL     1     -12.939  25.169  25.658  0.00  0.00    +0.038 A 
ATOM     11  C   UNL     1     -12.790  26.445  26.259  0.00  0.00    +0.047 A 
ATOM     12  C   UNL     1     -13.872  27.417  26.239  0.00  0.00    +0.035 A 
ATOM     32  C   UNL     1     -15.094  27.055  25.601  0.00  0.00    +0.024 A 
ATOM     33  C   UNL     1     -15.262  25.763  24.984  0.00  0.00    +0.007 A 
ATOM     34  C   UNL     1     -14.197  24.801  24.998  0.00  0.00    -0.029 A 
ATOM     35  C   UNL     1     -14.431  23.433  24.315  0.00  0.00    +0.045 C 
ENDROOT
BRANCH  10   9
ATOM      4  C   UNL     1      -8.855  23.358  23.905  0.00  0.00    +0.077 A 
ATOM      5  C   UNL     1      -8.871  24.252  22.783  0.00  0.00    +0.048 A 
ATOM      6  C   UNL     1      -9.951  25.157  22.690  0.00  0.00    +0.116 A 
ATOM      7  N   UNL     1     -10.937  25.160  23.653  0.00  0.00    -0.223 NA
ATOM      8  C   UNL     1     -10.892  24.284  24.722  0.00  0.00    +0.220 A 
ATOM      9  N   UNL     1     -11.868  24.275  25.707  0.00  0.00    -0.283 N 
ATOM     36  H   UNL     1     -11.802  23.608  26.475  0.00  0.00    +0.155 HD
ATOM     37  N   UNL     1      -9.871  23.409  24.833  0.00  0.00    -0.214 NA
BRANCH   4   3
ATOM      1  C   UNL     1      -5.390  21.545  24.000  0.00  0.00    +0.020 A 
ATOM      2  C   UNL     1      -6.391  22.555  23.745  0.00  0.00    +0.013 A 
ATOM      3  C   UNL     1      -7.778  22.346  24.144  0.00  0.00    +0.019 A 
ATOM     38  C   UNL     1      -8.120  21.095  24.804  0.00  0.00    +0.120 A 
ATOM     39  N   UNL     1      -7.134  20.141  25.035  0.00  0.00    -0.263 NA
ATOM     40  C   UNL     1      -5.797  20.330  24.654  0.00  0.00    +0.111 A 
ENDBRANCH   4   3
ENDBRANCH  10   9
BRANCH  12  13
ATOM     13  N   UNL     1     -13.776  28.731  26.826  0.00  0.00    -0.281 N 
ATOM     14  C   UNL     1     -14.557  29.843  26.556  0.00  0.00    +0.248 C 
ATOM     30  O   UNL     1     -15.324  29.936  25.609  0.00  0.00    -0.270 OA
ATOM     31  H   UNL     1     -13.044  28.856  27.525  0.00  0.00    +0.155 HD
BRANCH  14  15
ATOM     15  C   UNL     1     -14.462  31.029  27.462  0.00  0.00    +0.037 A 
ATOM     16  C   UNL     1     -15.271  32.228  27.230  0.00  0.00    +0.013 A 
ATOM     17  C   UNL     1     -15.148  33.364  28.109  0.00  0.00    +0.005 A 
ATOM     18  C   UNL     1     -14.211  33.305  29.229  0.00  0.00    -0.033 A 
ATOM     28  C   UNL     1     -13.424  32.101  29.438  0.00  0.00    +0.005 A 
ATOM     29  C   UNL     1     -13.542  30.986  28.578  0.00  0.00    +0.013 A 
BRANCH  18  19
ATOM     19  C   UNL     1     -13.998  34.478  30.204  0.00  0.00    +0.119 C 
BRANCH  19  20
ATOM     20  N   UNL     1     -13.065  34.255  31.348  0.00  0.00    -0.302 NA
ATOM     21  C   UNL     1     -13.597  34.862  32.650  0.00  0.00    +0.066 C 
ATOM     22  C   UNL     1     -12.618  34.600  33.841  0.00  0.00    -0.064 C 
ATOM     23  N   UNL     1     -11.240  35.171  33.501  0.00  0.00    +0.379 N 
ATOM     24  C   UNL     1     -10.334  34.978  34.642  0.00  0.00    -0.096 C 
ATOM     25  H   UNL     1     -11.358  36.268  33.344  0.00  0.00    -0.082 HD
ATOM     26  C   UNL     1     -10.706  34.575  32.206  0.00  0.00    -0.064 C 
ATOM     27  C   UNL     1     -11.699  34.815  31.035  0.00  0.00    +0.066 C 
ENDBRANCH  19  20
ENDBRANCH  18  19
ENDBRANCH  14  15
ENDBRANCH  12  13
TORSDOF 6
ENDMDL
MODEL 3
REMARK VINA RESULT:      -8.3      3.816     13.026
REMARK  Name = C:\Users\Docking\Desktop\test protocol\1iep_ligandH.pdb
REMARK  8 active torsions:
REMARK  status: ('A' for Active; 'I' for Inactive)
REMARK    1  A    between atoms: _5  and  _11
REMARK    2  A    between atoms: _19  and  _21
REMARK    3  A    between atoms: _22  and  _66
REMARK    4  A    between atoms: _27  and  _30
REMARK    5  A    between atoms: _32  and  _33
REMARK    6  A    between atoms: _38  and  _43
REMARK    7  A    between atoms: _43  and  _46
REMARK    8  A    between atoms: _53  and  _55
REMARK                            x       y       z     vdW  Elec       q    Type
REMARK                         _______ _______ _______ _____ _____    ______ ____
ROOT
ATOM     10  C   UNL     1     -10.169  24.023  24.878  0.00  0.00    +0.038 A 
ATOM     11  C   UNL     1      -9.971  22.840  25.635  0.00  0.00    +0.047 A 
ATOM     12  C   UNL     1      -9.480  21.621  25.013  0.00  0.00    +0.035 A 
ATOM     32  C   UNL     1      -9.197  21.642  23.616  0.00  0.00    +0.024 A 
ATOM     33  C   UNL     1      -9.393  22.835  22.830  0.00  0.00    +0.007 A 
ATOM     34  C   UNL     1      -9.880  24.040  23.438  0.00  0.00    -0.029 A 
ATOM     35  C   UNL     1     -10.078  25.288  22.546  0.00  0.00    +0.045 C 
ENDROOT
BRANCH  10   9
ATOM      4  C   UNL     1     -13.703  27.017  26.135  0.00  0.00    +0.077 A 
ATOM      5  C   UNL     1     -14.684  26.256  25.416  0.00  0.00    +0.048 A 
ATOM      6  C   UNL     1     -14.236  25.105  24.729  0.00  0.00    +0.116 A 
ATOM      7  N   UNL     1     -12.905  24.750  24.767  0.00  0.00    -0.223 NA
ATOM      8  C   UNL     1     -11.985  25.507  25.469  0.00  0.00    +0.220 A 
ATOM      9  N   UNL     1     -10.643  25.165  25.527  0.00  0.00    -0.283 N 
ATOM     36  H   UNL     1      -9.995  25.753  26.049  0.00  0.00    +0.155 HD
ATOM     37  N   UNL     1     -12.387  26.612  26.131  0.00  0.00    -0.214 NA
BRANCH   4   3
ATOM      1  C   UNL     1     -13.836  29.723  28.956  0.00  0.00    +0.020 A 
ATOM      2  C   UNL     1     -13.498  28.509  28.249  0.00  0.00    +0.013 A 
ATOM      3  C   UNL     1     -14.021  28.256  26.912  0.00  0.00    +0.019 A 
ATOM     38  C   UNL     1     -14.889  29.260  26.314  0.00  0.00    +0.120 A 
ATOM     39  N   UNL     1     -15.198  30.418  27.020  0.00  0.00    -0.263 NA
ATOM     40  C   UNL     1     -14.702  30.672  28.308  0.00  0.00    +0.111 A 
ENDBRANCH   4   3
ENDBRANCH  10   9
BRANCH  12  13
ATOM     13  N   UNL     1      -9.267  20.388  25.729  0.00  0.00    -0.281 N 
ATOM     14  C   UNL     1      -8.063  19.836  26.136  0.00  0.00    +0.248 C 
ATOM     30  O   UNL     1      -6.966  20.215  25.756  0.00  0.00    -0.270 OA
ATOM     31  H   UNL     1     -10.106  19.858  25.966  0.00  0.00    +0.155 HD
BRANCH  14  15
ATOM     15  C   UNL     1      -8.082  18.687  27.092  0.00  0.00    +0.037 A 
ATOM     16  C   UNL     1      -6.867  18.258  27.788  0.00  0.00    +0.013 A 
ATOM     17  C   UNL     1      -6.909  17.136  28.692  0.00  0.00    +0.005 A 
ATOM     18  C   UNL     1      -8.173  16.436  28.907  0.00  0.00    -0.033 A 
ATOM     28  C   UNL     1      -9.365  16.887  28.207  0.00  0.00    +0.005 A 
ATOM     29  C   UNL     1      -9.327  17.985  27.320  0.00  0.00    +0.013 A 
BRANCH  18  19
ATOM     19  C   UNL     1      -8.307  15.216  29.837  0.00  0.00    +0.119 C 
BRANCH  19  20
ATOM     20  N   UNL     1      -8.872  15.453  31.199  0.00  0.00    -0.302 NA
ATOM     21  C   UNL     1      -8.137  14.648  32.274  0.00  0.00    +0.066 C 
ATOM     22  C   UNL     1      -8.726  14.926  33.696  0.00  0.00    -0.064 C 
ATOM     23  N   UNL     1     -10.220  14.596  33.698  0.00  0.00    +0.379 N 
ATOM     24  C   UNL     1     -10.765  14.800  35.048  0.00  0.00    -0.096 C 
ATOM     25  H   UNL     1     -10.328  13.514  33.450  0.00  0.00    -0.082 HD
ATOM     26  C   UNL     1     -10.958  15.390  32.630  0.00  0.00    -0.064 C 
ATOM     27  C   UNL     1     -10.345  15.130  31.226  0.00  0.00    +0.066 C 
ENDBRANCH  19  20
ENDBRANCH  18  19
ENDBRANCH  14  15
ENDBRANCH  12  13
TORSDOF 6
ENDMDL
MODEL 4
REMARK VINA RESULT:      -8.3      2.734      5.870
REMARK  Name = C:\Users\Docking\Desktop\test protocol\1iep_ligandH.pdb
REMARK  8 active torsions:
REMARK  status: ('A' for Active; 'I' for Inactive)
REMARK    1  A    between atoms: _5  and  _11
REMARK    2  A    between atoms: _19  and  _21
REMARK    3  A    between atoms: _22  and  _66
REMARK    4  A    between atoms: _27  and  _30
REMARK    5  A    between atoms: _32  and  _33
REMARK    6  A    between atoms: _38  and  _43
REMARK    7  A    between atoms: _43  and  _46
REMARK    8  A    between atoms: _53  and  _55
REMARK                            x       y       z     vdW  Elec       q    Type
REMARK                         _______ _______ _______ _____ _____    ______ ____
ROOT
ATOM     10  C   UNL     1      -7.860  19.148  25.989  0.00  0.00    +0.038 A 
ATOM     11  C   UNL     1      -8.634  20.294  26.305  0.00  0.00    +0.047 A 
ATOM     12  C   UNL     1      -9.452  20.951  25.297  0.00  0.00    +0.035 A 
ATOM     32  C   UNL     1      -9.460  20.412  23.977  0.00  0.00    +0.024 A 
ATOM     33  C   UNL     1      -8.679  19.248  23.639  0.00  0.00    +0.007 A 
ATOM     34  C   UNL     1      -7.868  18.598  24.628  0.00  0.00    -0.029 A 
ATOM     35  C   UNL     1      -7.046  17.358  24.207  0.00  0.00    +0.045 C 
ENDROOT
BRANCH  10   9
ATOM      4  C   UNL     1      -7.351  16.207  29.747  0.00  0.00    +0.077 A 
ATOM      5  C   UNL     1      -8.736  15.835  29.719  0.00  0.00    +0.048 A 
ATOM      6  C   UNL     1      -9.548  16.429  28.727  0.00  0.00    +0.116 A 
ATOM      7  N   UNL     1      -9.003  17.326  27.833  0.00  0.00    -0.223 NA
ATOM      8  C   UNL     1      -7.664  17.664  27.889  0.00  0.00    +0.220 A 
ATOM      9  N   UNL     1      -7.093  18.558  26.996  0.00  0.00    -0.283 N 
ATOM     36  H   UNL     1      -6.103  18.786  27.075  0.00  0.00    +0.155 HD
ATOM     37  N   UNL     1      -6.868  17.112  28.828  0.00  0.00    -0.214 NA
BRANCH   4   3
ATOM      1  C   UNL     1      -5.700  14.920  33.052  0.00  0.00    +0.020 A 
ATOM      2  C   UNL     1      -6.688  15.449  32.140  0.00  0.00    +0.013 A 
ATOM      3  C   UNL     1      -6.366  15.662  30.734  0.00  0.00    +0.019 A 
ATOM     38  C   UNL     1      -5.025  15.327  30.280  0.00  0.00    +0.120 A 
ATOM     39  N   UNL     1      -4.094  14.820  31.181  0.00  0.00    -0.263 NA
ATOM     40  C   UNL     1      -4.391  14.613  32.536  0.00  0.00    +0.111 A 
ENDBRANCH   4   3
ENDBRANCH  10   9
BRANCH  12  13
ATOM     13  N   UNL     1     -10.252  22.122  25.557  0.00  0.00    -0.281 N 
ATOM     14  C   UNL     1     -10.097  23.394  25.030  0.00  0.00    +0.248 C 
ATOM     30  O   UNL     1      -9.110  23.771  24.415  0.00  0.00    -0.270 OA
ATOM     31  H   UNL     1     -11.027  21.998  26.208  0.00  0.00    +0.155 HD
BRANCH  14  15
ATOM     15  C   UNL     1     -11.189  24.395  25.226  0.00  0.00    +0.037 A 
ATOM     16  C   UNL     1     -11.470  25.420  24.218  0.00  0.00    +0.013 A 
ATOM     17  C   UNL     1     -12.518  26.385  24.440  0.00  0.00    +0.005 A 
ATOM     18  C   UNL     1     -13.294  26.327  25.677  0.00  0.00    -0.033 A 
ATOM     28  C   UNL     1     -12.997  25.296  26.658  0.00  0.00    +0.005 A 
ATOM     29  C   UNL     1     -11.970  24.350  26.444  0.00  0.00    +0.013 A 
BRANCH  18  19
ATOM     19  C   UNL     1     -14.417  27.329  26.007  0.00  0.00    +0.119 C 
BRANCH  19  20
ATOM     20  N   UNL     1     -14.015  28.624  26.632  0.00  0.00    -0.302 NA
ATOM     21  C   UNL     1     -14.041  28.557  28.161  0.00  0.00    +0.066 C 
ATOM     22  C   UNL     1     -13.596  29.914  28.798  0.00  0.00    -0.064 C 
ATOM     23  N   UNL     1     -14.505  31.034  28.290  0.00  0.00    +0.379 N 
ATOM     24  C   UNL     1     -14.126  32.302  28.932  0.00  0.00    -0.096 C 
ATOM     25  H   UNL     1     -15.547  30.794  28.605  0.00  0.00    -0.082 HD
ATOM     26  C   UNL     1     -14.487  31.107  26.770  0.00  0.00    -0.064 C 
ATOM     27  C   UNL     1     -14.902  29.744  26.147  0.00  0.00    +0.066 C 
ENDBRANCH  19  20
ENDBRANCH  18  19
ENDBRANCH  14  15
ENDBRANCH  12  13
TORSDOF 6
ENDMDL
MODEL 5
REMARK VINA RESULT:      -8.0      2.888     13.707
REMARK  Name = C:\Users\Docking\Desktop\test protocol\1iep_ligandH.pdb
REMARK  8 active torsions:
REMARK  status: ('A' for Active; 'I' for Inactive)
REMARK    1  A    between atoms: _5  and  _11
REMARK    2  A    between atoms: _19  and  _21
REMARK    3  A    between atoms: _22  and  _66
REMARK    4  A    between atoms: _27  and  _30
REMARK    5  A    between atoms: _32  and  _33
REMARK    6  A    between atoms: _38  and  _43
REMARK    7  A    between atoms: _43  and  _46
REMARK    8  A    between atoms: _53  and  _55
REMARK                            x       y       z     vdW  Elec       q    Type
REMARK                         _______ _______ _______ _____ _____    ______ ____
ROOT
ATOM     10  C   UNL     1     -11.061  24.333  24.550  0.00  0.00    +0.038 A 
ATOM     11  C   UNL     1     -10.613  23.250  25.349  0.00  0.00    +0.047 A 
ATOM     12  C   UNL     1     -10.317  21.953  24.761  0.00  0.00    +0.035 A 
ATOM     32  C   UNL     1     -10.487  21.794  23.355  0.00  0.00    +0.024 A 
ATOM     33  C   UNL     1     -10.943  22.884  22.528  0.00  0.00    +0.007 A 
ATOM     34  C   UNL     1     -11.238  24.165  23.103  0.00  0.00    -0.029 A 
ATOM     35  C   UNL     1     -11.730  25.296  22.169  0.00  0.00    +0.045 C 
ENDROOT
BRANCH  10   9
ATOM      4  C   UNL     1     -14.096  27.634  26.262  0.00  0.00    +0.077 A 
ATOM      5  C   UNL     1     -15.244  26.868  25.869  0.00  0.00    +0.048 A 
ATOM      6  C   UNL     1     -15.010  25.634  25.223  0.00  0.00    +0.116 A 
ATOM      7  N   UNL     1     -13.720  25.206  24.992  0.00  0.00    -0.223 NA
ATOM      8  C   UNL     1     -12.635  25.970  25.382  0.00  0.00    +0.220 A 
ATOM      9  N   UNL     1     -11.330  25.557  25.167  0.00  0.00    -0.283 N 
ATOM     36  H   UNL     1     -10.557  26.152  25.463  0.00  0.00    +0.155 HD
ATOM     37  N   UNL     1     -12.832  27.154  26.000  0.00  0.00    -0.214 NA
BRANCH   4   3
ATOM      1  C   UNL     1     -13.574  30.547  28.820  0.00  0.00    +0.020 A 
ATOM      2  C   UNL     1     -13.459  29.252  28.189  0.00  0.00    +0.013 A 
ATOM      3  C   UNL     1     -14.180  28.957  26.957  0.00  0.00    +0.019 A 
ATOM     38  C   UNL     1     -15.015  30.003  26.385  0.00  0.00    +0.120 A 
ATOM     39  N   UNL     1     -15.108  31.239  27.016  0.00  0.00    -0.263 NA
ATOM     40  C   UNL     1     -14.420  31.534  28.202  0.00  0.00    +0.111 A 
ENDBRANCH   4   3
ENDBRANCH  10   9
BRANCH  12  13
ATOM     13  N   UNL     1      -9.867  20.815  25.523  0.00  0.00    -0.281 N 
ATOM     14  C   UNL     1      -8.575  20.331  25.648  0.00  0.00    +0.248 C 
ATOM     30  O   UNL     1      -7.636  20.679  24.948  0.00  0.00    -0.270 OA
ATOM     31  H   UNL     1     -10.588  20.303  26.032  0.00  0.00    +0.155 HD
BRANCH  14  15
ATOM     15  C   UNL     1      -8.287  19.301  26.692  0.00  0.00    +0.037 A 
ATOM     16  C   UNL     1      -7.025  19.305  27.436  0.00  0.00    +0.013 A 
ATOM     17  C   UNL     1      -6.766  18.289  28.426  0.00  0.00    +0.005 A 
ATOM     18  C   UNL     1      -7.773  17.262  28.678  0.00  0.00    -0.033 A 
ATOM     28  C   UNL     1      -9.019  17.285  27.929  0.00  0.00    +0.005 A 
ATOM     29  C   UNL     1      -9.276  18.278  26.958  0.00  0.00    +0.013 A 
BRANCH  18  19
ATOM     19  C   UNL     1      -7.573  16.128  29.701  0.00  0.00    +0.119 C 
BRANCH  19  20
ATOM     20  N   UNL     1      -6.180  15.628  29.904  0.00  0.00    -0.302 NA
ATOM     21  C   UNL     1      -5.909  14.345  29.113  0.00  0.00    +0.066 C 
ATOM     22  C   UNL     1      -4.441  13.849  29.319  0.00  0.00    -0.064 C 
ATOM     23  N   UNL     1      -4.184  13.630  30.811  0.00  0.00    +0.379 N 
ATOM     24  C   UNL     1      -2.824  13.108  31.003  0.00  0.00    -0.096 C 
ATOM     25  H   UNL     1      -4.899  12.851  31.165  0.00  0.00    -0.082 HD
ATOM     26  C   UNL     1      -4.455  14.899  31.605  0.00  0.00    -0.064 C 
ATOM     27  C   UNL     1      -5.907  15.400  31.370  0.00  0.00    +0.066 C 
ENDBRANCH  19  20
ENDBRANCH  18  19
ENDBRANCH  14  15
ENDBRANCH  12  13
TORSDOF 6
ENDMDL
