MODEL 1
REMARK VINA RESULT:      -8.4      0.000      0.000
REMARK  Name = C:\Users\Docking\Desktop\test protocol\1iep_ligandH.pdb
REMARK  8 active torsions:
REMARK  status: ('A' for Active; 'I' for Inactive)
REMARK    1  A    between atoms: _5  and  _11
REMARK    2  A    between atoms: _19  and  _21
REMARK    3  A    between atoms: _22  and  _66
REMARK    4  A    between atoms: _27  and  _30
REMARK    5  A    between atoms: _32  and  _33
REMARK    6  A    between atoms: _38  and  _43
REMARK    7  A    between atoms: _43  and  _46
REMARK    8  A    between atoms: _53  and  _55
REMARK                            x       y       z     vdW  Elec       q    Type
REMARK                         _______ _______ _______ _____ _____    ______ ____
ROOT
ATOM     10  C   UNL     1      -2.144   7.901  29.812  0.00  0.00    +0.038 A 
ATOM     11  C   UNL     1      -3.128   6.900  30.015  0.00  0.00    +0.047 A 
ATOM     12  C   UNL     1      -4.532   7.157  29.737  0.00  0.00    +0.035 A 
ATOM     32  C   UNL     1      -4.899   8.446  29.250  0.00  0.00    +0.024 A 
ATOM     33  C   UNL     1      -3.912   9.476  29.039  0.00  0.00    +0.007 A 
ATOM     34  C   UNL     1      -2.526   9.228  29.314  0.00  0.00    -0.029 A 
ATOM     35  C   UNL     1      -1.512  10.371  29.075  0.00  0.00    +0.045 C 
ENDROOT
BRANCH  10   9
ATOM      4  C   UNL     1       2.245   6.474  28.495  0.00  0.00    +0.077 A 
ATOM      5  C   UNL     1       1.840   6.288  27.131  0.00  0.00    +0.048 A 
ATOM      6  C   UNL     1       0.491   6.564  26.812  0.00  0.00    +0.116 A 
ATOM      7  N   UNL     1      -0.378   6.994  27.791  0.00  0.00    -0.223 NA
ATOM      8  C   UNL     1       0.045   7.161  29.097  0.00  0.00    +0.220 A 
ATOM      9  N   UNL     1      -0.810   7.600  30.096  0.00  0.00    -0.283 N 
ATOM     36  H   UNL     1      -0.461   7.703  31.048  0.00  0.00    +0.155 HD
ATOM     37  N   UNL     1       1.327   6.903  29.427  0.00  0.00    -0.214 NA
BRANCH   4   3
ATOM      1  C   UNL     1       5.848   5.015  28.927  0.00  0.00    +0.020 A 
ATOM      2  C   UNL     1       4.512   5.212  28.415  0.00  0.00    +0.013 A 
ATOM      3  C   UNL     1       3.637   6.228  28.987  0.00  0.00    +0.019 A 
ATOM     38  C   UNL     1       4.149   7.033  30.086  0.00  0.00    +0.120 A 
ATOM     39  N   UNL     1       5.440   6.819  30.559  0.00  0.00    -0.263 NA
ATOM     40  C   UNL     1       6.290   5.844  30.017  0.00  0.00    +0.111 A 
ENDBRANCH   4   3
ENDBRANCH  10   9
BRANCH  12  13
ATOM     13  N   UNL     1      -5.576   6.183  29.932  0.00  0.00    -0.281 N 
ATOM     14  C   UNL     1      -5.634   4.887  29.444  0.00  0.00    +0.248 C 
ATOM     30  O   UNL     1      -4.890   4.438  28.585  0.00  0.00    -0.270 OA
ATOM     31  H   UNL     1      -6.370   6.484  30.497  0.00  0.00    +0.155 HD
BRANCH  14  15
ATOM     15  C   UNL     1      -6.677   3.960  29.979  0.00  0.00    +0.037 A 
ATOM     16  C   UNL     1      -6.974   2.687  29.317  0.00  0.00    +0.013 A 
ATOM     17  C   UNL     1      -7.997   1.819  29.844  0.00  0.00    +0.005 A 
ATOM     18  C   UNL     1      -8.730   2.221  31.042  0.00  0.00    -0.033 A 
ATOM     28  C   UNL     1      -8.411   3.487  31.682  0.00  0.00    +0.005 A 
ATOM     29  C   UNL     1      -7.410   4.341  31.168  0.00  0.00    +0.013 A 
BRANCH  18  19
ATOM     19  C   UNL     1      -9.853   1.368  31.661  0.00  0.00    +0.119 C 
BRANCH  19  20
ATOM     20  N   UNL     1     -11.180   1.384  30.978  0.00  0.00    -0.302 NA
ATOM     21  C   UNL     1     -12.301   1.853  31.910  0.00  0.00    +0.066 C 
ATOM     22  C   UNL     1     -13.679   1.885  31.172  0.00  0.00    -0.064 C 
ATOM     23  N   UNL     1     -13.987   0.495  30.612  0.00  0.00    +0.379 N 
ATOM     24  C   UNL     1     -15.308   0.507  29.968  0.00  0.00    -0.096 C 
ATOM     25  H   UNL     1     -14.036  -0.213  31.472  0.00  0.00    -0.082 HD
ATOM     26  C   UNL     1     -12.876   0.020  29.686  0.00  0.00    -0.064 C 
ATOM     27  C   UNL     1     -11.506   0.020  30.420  0.00  0.00    +0.066 C 
ENDBRANCH  19  20
ENDBRANCH  18  19
ENDBRANCH  14  15
ENDBRANCH  12  13
TORSDOF 6
ENDMDL
MODEL 2
REMARK VINA RESULT:      -8.1     12.840     16.834
REMARK  Name = C:\Users\Docking\Desktop\test protocol\1iep_ligandH.pdb
REMARK  8 active torsions:
REMARK  status: ('A' for Active; 'I' for Inactive)
REMARK    1  A    between atoms: _5  and  _11
REMARK    2  A    between atoms: _19  and  _21
REMARK    3  A    between atoms: _22  and  _66
REMARK    4  A    between atoms: _27  and  _30
REMARK    5  A    between atoms: _32  and  _33
REMARK    6  A    between atoms: _38  and  _43
REMARK    7  A    between atoms: _43  and  _46
REMARK    8  A    between atoms: _53  and  _55
REMARK                            x       y       z     vdW  Elec       q    Type
REMARK                         _______ _______ _______ _____ _____    ______ ____
ROOT
ATOM     10  C   UNL     1       5.133  -0.690  22.454  0.00  0.00    +0.038 A 
ATOM     11  C   UNL     1       4.634  -0.807  21.132  0.00  0.00    +0.047 A 
ATOM     12  C   UNL     1       5.263  -1.695  20.166  0.00  0.00    +0.035 A 
ATOM     32  C   UNL     1       6.398  -2.451  20.582  0.00  0.00    +0.024 A 
ATOM     33  C   UNL     1       6.919  -2.343  21.922  0.00  0.00    +0.007 A 
ATOM     34  C   UNL     1       6.304  -1.468  22.878  0.00  0.00    -0.029 A 
ATOM     35  C   UNL     1       6.909  -1.388  24.299  0.00  0.00    +0.045 C 
ENDROOT
BRANCH  10   9
ATOM      4  C   UNL     1       4.958   3.342  25.052  0.00  0.00    +0.077 A 
ATOM      5  C   UNL     1       6.270   3.741  24.629  0.00  0.00    +0.048 A 
ATOM      6  C   UNL     1       6.959   2.877  23.749  0.00  0.00    +0.116 A 
ATOM      7  N   UNL     1       6.370   1.704  23.328  0.00  0.00    -0.223 NA
ATOM      8  C   UNL     1       5.105   1.348  23.757  0.00  0.00    +0.220 A 
ATOM      9  N   UNL     1       4.490   0.177  23.340  0.00  0.00    -0.283 N 
ATOM     36  H   UNL     1       3.559  -0.054  23.685  0.00  0.00    +0.155 HD
ATOM     37  N   UNL     1       4.427   2.155  24.599  0.00  0.00    -0.214 NA
BRANCH   4   3
ATOM      1  C   UNL     1       1.978   5.376  26.561  0.00  0.00    +0.020 A 
ATOM      2  C   UNL     1       2.762   4.599  25.629  0.00  0.00    +0.013 A 
ATOM      3  C   UNL     1       4.104   4.149  25.979  0.00  0.00    +0.019 A 
ATOM     38  C   UNL     1       4.626   4.505  27.290  0.00  0.00    +0.120 A 
ATOM     39  N   UNL     1       3.848   5.256  28.165  0.00  0.00    -0.263 NA
ATOM     40  C   UNL     1       2.556   5.696  27.839  0.00  0.00    +0.111 A 
ENDBRANCH   4   3
ENDBRANCH  10   9
BRANCH  12  13
ATOM     13  N   UNL     1       4.806  -1.849  18.807  0.00  0.00    -0.281 N 
ATOM     14  C   UNL     1       4.390  -3.009  18.175  0.00  0.00    +0.248 C 
ATOM     30  O   UNL     1       4.551  -4.135  18.622  0.00  0.00    -0.270 OA
ATOM     31  H   UNL     1       4.787  -0.999  18.243  0.00  0.00    +0.155 HD
BRANCH  14  15
ATOM     15  C   UNL     1       3.709  -2.904  16.848  0.00  0.00    +0.037 A 
ATOM     16  C   UNL     1       4.164  -1.949  15.835  0.00  0.00    +0.013 A 
ATOM     17  C   UNL     1       3.479  -1.856  14.570  0.00  0.00    +0.005 A 
ATOM     18  C   UNL     1       2.332  -2.723  14.311  0.00  0.00    -0.033 A 
ATOM     28  C   UNL     1       1.906  -3.666  15.332  0.00  0.00    +0.005 A 
ATOM     29  C   UNL     1       2.574  -3.759  16.574  0.00  0.00    +0.013 A 
BRANCH  18  19
ATOM     19  C   UNL     1       1.529  -2.678  12.998  0.00  0.00    +0.119 C 
BRANCH  19  20
ATOM     20  N   UNL     1       1.429  -3.945  12.213  0.00  0.00    -0.302 NA
ATOM     21  C   UNL     1       2.786  -4.382  11.654  0.00  0.00    +0.066 C 
ATOM     22  C   UNL     1       2.668  -5.720  10.855  0.00  0.00    -0.064 C 
ATOM     23  N   UNL     1       1.648  -5.550   9.728  0.00  0.00    +0.379 N 
ATOM     24  C   UNL     1       1.577  -6.788   8.939  0.00  0.00    -0.096 C 
ATOM     25  H   UNL     1       2.018  -4.741   9.056  0.00  0.00    -0.082 HD
ATOM     26  C   UNL     1       0.296  -5.112  10.275  0.00  0.00    -0.064 C 
ATOM     27  C   UNL     1       0.430  -3.797  11.092  0.00  0.00    +0.066 C 
ENDBRANCH  19  20
ENDBRANCH  18  19
ENDBRANCH  14  15
ENDBRANCH  12  13
TORSDOF 6
ENDMDL
MODEL 3
REMARK VINA RESULT:      -8.1      1.993      3.248
REMARK  Name = C:\Users\Docking\Desktop\test protocol\1iep_ligandH.pdb
REMARK  8 active torsions:
REMARK  status: ('A' for Active; 'I' for Inactive)
REMARK    1  A    between atoms: _5  and  _11
REMARK    2  A    between atoms: _19  and  _21
REMARK    3  A    between atoms: _22  and  _66
REMARK    4  A    between atoms: _27  and  _30
REMARK    5  A    between atoms: _32  and  _33
REMARK    6  A    between atoms: _38  and  _43
REMARK    7  A    between atoms: _43  and  _46
REMARK    8  A    between atoms: _53  and  _55
REMARK                            x       y       z     vdW  Elec       q    Type
REMARK                         _______ _______ _______ _____ _____    ______ ____
ROOT
ATOM     10  C   UNL     1       0.781   6.460  27.866  0.00  0.00    +0.038 A 
ATOM     11  C   UNL     1      -0.303   6.035  28.677  0.00  0.00    +0.047 A 
ATOM     12  C   UNL     1      -1.674   6.391  28.347  0.00  0.00    +0.035 A 
ATOM     32  C   UNL     1      -1.906   7.178  27.181  0.00  0.00    +0.024 A 
ATOM     33  C   UNL     1      -0.817   7.619  26.347  0.00  0.00    +0.007 A 
ATOM     34  C   UNL     1       0.539   7.274  26.669  0.00  0.00    -0.029 A 
ATOM     35  C   UNL     1       1.668   7.780  25.741  0.00  0.00    +0.045 C 
ENDROOT
BRANCH  10   9
ATOM      4  C   UNL     1       4.671   6.853  30.650  0.00  0.00    +0.077 A 
ATOM      5  C   UNL     1       4.080   7.902  31.429  0.00  0.00    +0.048 A 
ATOM      6  C   UNL     1       2.776   8.317  31.076  0.00  0.00    +0.116 A 
ATOM      7  N   UNL     1       2.121   7.719  30.021  0.00  0.00    -0.223 NA
ATOM      8  C   UNL     1       2.721   6.711  29.290  0.00  0.00    +0.220 A 
ATOM      9  N   UNL     1       2.078   6.090  28.230  0.00  0.00    -0.283 N 
ATOM     36  H   UNL     1       2.556   5.355  27.710  0.00  0.00    +0.155 HD
ATOM     37  N   UNL     1       3.966   6.298  29.606  0.00  0.00    -0.214 NA
BRANCH   4   3
ATOM      1  C   UNL     1       8.228   5.309  30.131  0.00  0.00    +0.020 A 
ATOM      2  C   UNL     1       6.913   5.831  29.834  0.00  0.00    +0.013 A 
ATOM      3  C   UNL     1       6.040   6.303  30.902  0.00  0.00    +0.019 A 
ATOM     38  C   UNL     1       6.532   6.233  32.270  0.00  0.00    +0.120 A 
ATOM     39  N   UNL     1       7.801   5.724  32.526  0.00  0.00    -0.263 NA
ATOM     40  C   UNL     1       8.649   5.266  31.507  0.00  0.00    +0.111 A 
ENDBRANCH   4   3
ENDBRANCH  10   9
BRANCH  12  13
ATOM     13  N   UNL     1      -2.814   5.995  29.136  0.00  0.00    -0.281 N 
ATOM     14  C   UNL     1      -3.973   5.370  28.706  0.00  0.00    +0.248 C 
ATOM     30  O   UNL     1      -4.298   5.248  27.534  0.00  0.00    -0.270 OA
ATOM     31  H   UNL     1      -2.759   6.200  30.134  0.00  0.00    +0.155 HD
BRANCH  14  15
ATOM     15  C   UNL     1      -4.914   4.813  29.725  0.00  0.00    +0.037 A 
ATOM     16  C   UNL     1      -4.599   3.583  30.457  0.00  0.00    +0.013 A 
ATOM     17  C   UNL     1      -5.532   3.058  31.422  0.00  0.00    +0.005 A 
ATOM     18  C   UNL     1      -6.789   3.764  31.661  0.00  0.00    -0.033 A 
ATOM     28  C   UNL     1      -7.073   4.984  30.924  0.00  0.00    +0.005 A 
ATOM     29  C   UNL     1      -6.161   5.501  29.977  0.00  0.00    +0.013 A 
BRANCH  18  19
ATOM     19  C   UNL     1      -7.852   3.264  32.657  0.00  0.00    +0.119 C 
BRANCH  19  20
ATOM     20  N   UNL     1      -9.201   2.934  32.108  0.00  0.00    -0.302 NA
ATOM     21  C   UNL     1     -10.254   2.799  33.212  0.00  0.00    +0.066 C 
ATOM     22  C   UNL     1     -11.663   2.475  32.619  0.00  0.00    -0.064 C 
ATOM     23  N   UNL     1     -11.582   1.193  31.789  0.00  0.00    +0.379 N 
ATOM     24  C   UNL     1     -12.918   0.855  31.277  0.00  0.00    -0.096 C 
ATOM     25  H   UNL     1     -11.261   0.370  32.469  0.00  0.00    -0.082 HD
ATOM     26  C   UNL     1     -10.536   1.318  30.690  0.00  0.00    -0.064 C 
ATOM     27  C   UNL     1      -9.145   1.668  31.288  0.00  0.00    +0.066 C 
ENDBRANCH  19  20
ENDBRANCH  18  19
ENDBRANCH  14  15
ENDBRANCH  12  13
TORSDOF 6
ENDMDL
MODEL 4
REMARK VINA RESULT:      -7.9      8.197     12.773
REMARK  Name = C:\Users\Docking\Desktop\test protocol\1iep_ligandH.pdb
REMARK  8 active torsions:
REMARK  status: ('A' for Active; 'I' for Inactive)
REMARK    1  A    between atoms: _5  and  _11
REMARK    2  A    between atoms: _19  and  _21
REMARK    3  A    between atoms: _22  and  _66
REMARK    4  A    between atoms: _27  and  _30
REMARK    5  A    between atoms: _32  and  _33
REMARK    6  A    between atoms: _38  and  _43
REMARK    7  A    between atoms: _43  and  _46
REMARK    8  A    between atoms: _53  and  _55
REMARK                            x       y       z     vdW  Elec       q    Type
REMARK                         _______ _______ _______ _____ _____    ______ ____
ROOT
ATOM     10  C   UNL     1       5.890   1.352  22.616  0.00  0.00    +0.038 A 
ATOM     11  C   UNL     1       4.697   1.984  23.052  0.00  0.00    +0.047 A 
ATOM     12  C   UNL     1       4.725   3.020  24.072  0.00  0.00    +0.035 A 
ATOM     32  C   UNL     1       5.985   3.390  24.626  0.00  0.00    +0.024 A 
ATOM     33  C   UNL     1       7.207   2.758  24.195  0.00  0.00    +0.007 A 
ATOM     34  C   UNL     1       7.186   1.733  23.191  0.00  0.00    -0.029 A 
ATOM     35  C   UNL     1       8.526   1.084  22.772  0.00  0.00    +0.045 C 
ENDROOT
BRANCH  10   9
ATOM      4  C   UNL     1       5.410  -3.222  21.244  0.00  0.00    +0.077 A 
ATOM      5  C   UNL     1       5.348  -3.685  22.601  0.00  0.00    +0.048 A 
ATOM      6  C   UNL     1       5.451  -2.714  23.623  0.00  0.00    +0.116 A 
ATOM      7  N   UNL     1       5.604  -1.383  23.300  0.00  0.00    -0.223 NA
ATOM      8  C   UNL     1       5.661  -0.971  21.981  0.00  0.00    +0.220 A 
ATOM      9  N   UNL     1       5.806   0.363  21.633  0.00  0.00    -0.283 N 
ATOM     36  H   UNL     1       5.851   0.626  20.649  0.00  0.00    +0.155 HD
ATOM     37  N   UNL     1       5.566  -1.879  20.987  0.00  0.00    -0.214 NA
BRANCH   4   3
ATOM      1  C   UNL     1       5.396  -4.573  17.574  0.00  0.00    +0.020 A 
ATOM      2  C   UNL     1       5.501  -3.659  18.687  0.00  0.00    +0.013 A 
ATOM      3  C   UNL     1       5.312  -4.126  20.055  0.00  0.00    +0.019 A 
ATOM     38  C   UNL     1       5.017  -5.536  20.263  0.00  0.00    +0.120 A 
ATOM     39  N   UNL     1       4.921  -6.393  19.171  0.00  0.00    -0.263 NA
ATOM     40  C   UNL     1       5.099  -5.954  17.850  0.00  0.00    +0.111 A 
ENDBRANCH   4   3
ENDBRANCH  10   9
BRANCH  12  13
ATOM     13  N   UNL     1       3.545   3.692  24.560  0.00  0.00    -0.281 N 
ATOM     14  C   UNL     1       3.059   3.724  25.857  0.00  0.00    +0.248 C 
ATOM     30  O   UNL     1       3.450   3.000  26.760  0.00  0.00    -0.270 OA
ATOM     31  H   UNL     1       3.004   4.205  23.865  0.00  0.00    +0.155 HD
BRANCH  14  15
ATOM     15  C   UNL     1       1.971   4.691  26.196  0.00  0.00    +0.037 A 
ATOM     16  C   UNL     1       1.454   4.805  27.562  0.00  0.00    +0.013 A 
ATOM     17  C   UNL     1       0.393   5.734  27.858  0.00  0.00    +0.005 A 
ATOM     18  C   UNL     1      -0.158   6.558  26.785  0.00  0.00    -0.033 A 
ATOM     28  C   UNL     1       0.376   6.429  25.440  0.00  0.00    +0.005 A 
ATOM     29  C   UNL     1       1.416   5.518  25.145  0.00  0.00    +0.013 A 
BRANCH  18  19
ATOM     19  C   UNL     1      -1.307   7.561  27.006  0.00  0.00    +0.119 C 
BRANCH  19  20
ATOM     20  N   UNL     1      -1.526   8.053  28.398  0.00  0.00    -0.302 NA
ATOM     21  C   UNL     1      -3.014   8.152  28.745  0.00  0.00    +0.066 C 
ATOM     22  C   UNL     1      -3.225   8.647  30.213  0.00  0.00    -0.064 C 
ATOM     23  N   UNL     1      -2.536  10.000  30.396  0.00  0.00    +0.379 N 
ATOM     24  C   UNL     1      -2.782  10.496  31.758  0.00  0.00    -0.096 C 
ATOM     25  H   UNL     1      -3.007  10.718  29.685  0.00  0.00    -0.082 HD
ATOM     26  C   UNL     1      -1.056   9.912  30.051  0.00  0.00    -0.064 C 
ATOM     27  C   UNL     1      -0.857   9.391  28.600  0.00  0.00    +0.066 C 
ENDBRANCH  19  20
ENDBRANCH  18  19
ENDBRANCH  14  15
ENDBRANCH  12  13
TORSDOF 6
ENDMDL
MODEL 5
REMARK VINA RESULT:      -7.9      8.037     13.814
REMARK  Name = C:\Users\Docking\Desktop\test protocol\1iep_ligandH.pdb
REMARK  8 active torsions:
REMARK  status: ('A' for Active; 'I' for Inactive)
REMARK    1  A    between atoms: _5  and  _11
REMARK    2  A    between atoms: _19  and  _21
REMARK    3  A    between atoms: _22  and  _66
REMARK    4  A    between atoms: _27  and  _30
REMARK    5  A    between atoms: _32  and  _33
REMARK    6  A    between atoms: _38  and  _43
REMARK    7  A    between atoms: _43  and  _46
REMARK    8  A    between atoms: _53  and  _55
REMARK                            x       y       z     vdW  Elec       q    Type
REMARK                         _______ _______ _______ _____ _____    ______ ____
ROOT
ATOM     10  C   UNL     1       2.666   4.471  27.118  0.00  0.00    +0.038 A 
ATOM     11  C   UNL     1       2.726   3.580  26.016  0.00  0.00    +0.047 A 
ATOM     12  C   UNL     1       3.998   3.214  25.412  0.00  0.00    +0.035 A 
ATOM     32  C   UNL     1       5.190   3.772  25.958  0.00  0.00    +0.024 A 
ATOM     33  C   UNL     1       5.148   4.680  27.077  0.00  0.00    +0.007 A 
ATOM     34  C   UNL     1       3.896   5.047  27.675  0.00  0.00    -0.029 A 
ATOM     35  C   UNL     1       3.909   6.030  28.869  0.00  0.00    +0.045 C 
ENDROOT
BRANCH  10   9
ATOM      4  C   UNL     1      -1.227   7.261  27.429  0.00  0.00    +0.077 A 
ATOM      5  C   UNL     1      -0.719   8.180  26.451  0.00  0.00    +0.048 A 
ATOM      6  C   UNL     1       0.551   7.902  25.898  0.00  0.00    +0.116 A 
ATOM      7  N   UNL     1       1.252   6.785  26.299  0.00  0.00    -0.223 NA
ATOM      8  C   UNL     1       0.734   5.920  27.246  0.00  0.00    +0.220 A 
ATOM      9  N   UNL     1       1.418   4.787  27.658  0.00  0.00    -0.283 N 
ATOM     36  H   UNL     1       1.005   4.178  28.364  0.00  0.00    +0.155 HD
ATOM     37  N   UNL     1      -0.476   6.164  27.790  0.00  0.00    -0.214 NA
BRANCH   4   3
ATOM      1  C   UNL     1      -4.691   6.490  29.075  0.00  0.00    +0.020 A 
ATOM      2  C   UNL     1      -3.418   6.286  28.423  0.00  0.00    +0.013 A 
ATOM      3  C   UNL     1      -2.555   7.416  28.103  0.00  0.00    +0.019 A 
ATOM     38  C   UNL     1      -3.013   8.750  28.459  0.00  0.00    +0.120 A 
ATOM     39  N   UNL     1      -4.245   8.917  29.084  0.00  0.00    -0.263 NA
ATOM     40  C   UNL     1      -5.084   7.837  29.396  0.00  0.00    +0.111 A 
ENDBRANCH   4   3
ENDBRANCH  10   9
BRANCH  12  13
ATOM     13  N   UNL     1       4.120   2.321  24.287  0.00  0.00    -0.281 N 
ATOM     14  C   UNL     1       5.223   2.123  23.472  0.00  0.00    +0.248 C 
ATOM     30  O   UNL     1       6.209   2.845  23.456  0.00  0.00    -0.270 OA
ATOM     31  H   UNL     1       3.293   1.767  24.064  0.00  0.00    +0.155 HD
BRANCH  14  15
ATOM     15  C   UNL     1       5.225   0.964  22.528  0.00  0.00    +0.037 A 
ATOM     16  C   UNL     1       4.693  -0.342  22.927  0.00  0.00    +0.013 A 
ATOM     17  C   UNL     1       4.723  -1.447  22.003  0.00  0.00    +0.005 A 
ATOM     18  C   UNL     1       5.286  -1.251  20.669  0.00  0.00    -0.033 A 
ATOM     28  C   UNL     1       5.802   0.056  20.298  0.00  0.00    +0.005 A 
ATOM     29  C   UNL     1       5.776   1.142  21.202  0.00  0.00    +0.013 A 
BRANCH  18  19
ATOM     19  C   UNL     1       5.378  -2.380  19.626  0.00  0.00    +0.119 C 
BRANCH  19  20
ATOM     20  N   UNL     1       4.553  -2.238  18.389  0.00  0.00    -0.302 NA
ATOM     21  C   UNL     1       3.785  -3.521  18.060  0.00  0.00    +0.066 C 
ATOM     22  C   UNL     1       2.909  -3.347  16.776  0.00  0.00    -0.064 C 
ATOM     23  N   UNL     1       3.803  -2.934  15.605  0.00  0.00    +0.379 N 
ATOM     24  C   UNL     1       2.991  -2.826  14.384  0.00  0.00    -0.096 C 
ATOM     25  H   UNL     1       4.548  -3.748  15.445  0.00  0.00    -0.082 HD
ATOM     26  C   UNL     1       4.571  -1.660  15.926  0.00  0.00    -0.064 C 
ATOM     27  C   UNL     1       5.415  -1.834  17.219  0.00  0.00    +0.066 C 
ENDBRANCH  19  20
ENDBRANCH  18  19
ENDBRANCH  14  15
ENDBRANCH  12  13
TORSDOF 6
ENDMDL
