MODEL 1
REMARK VINA RESULT:      -8.4      0.000      0.000
REMARK  Name = C:\Users\Docking\Desktop\test protocol\1iep_ligandH.pdb
REMARK  8 active torsions:
REMARK  status: ('A' for Active; 'I' for Inactive)
REMARK    1  A    between atoms: _5  and  _11
REMARK    2  A    between atoms: _19  and  _21
REMARK    3  A    between atoms: _22  and  _66
REMARK    4  A    between atoms: _27  and  _30
REMARK    5  A    between atoms: _32  and  _33
REMARK    6  A    between atoms: _38  and  _43
REMARK    7  A    between atoms: _43  and  _46
REMARK    8  A    between atoms: _53  and  _55
REMARK                            x       y       z     vdW  Elec       q    Type
REMARK                         _______ _______ _______ _____ _____    ______ ____
ROOT
ATOM     10  C   UNL     1       0.676   6.644  27.898  0.00  0.00    +0.038 A 
ATOM     11  C   UNL     1      -0.418   6.187  28.676  0.00  0.00    +0.047 A 
ATOM     12  C   UNL     1      -1.787   6.526  28.321  0.00  0.00    +0.035 A 
ATOM     32  C   UNL     1      -2.006   7.330  27.164  0.00  0.00    +0.024 A 
ATOM     33  C   UNL     1      -0.905   7.803  26.363  0.00  0.00    +0.007 A 
ATOM     34  C   UNL     1       0.448   7.475  26.710  0.00  0.00    -0.029 A 
ATOM     35  C   UNL     1       1.589   8.015  25.817  0.00  0.00    +0.045 C 
ENDROOT
BRANCH  10   9
ATOM      4  C   UNL     1       4.528   7.111  30.724  0.00  0.00    +0.077 A 
ATOM      5  C   UNL     1       3.921   8.171  31.476  0.00  0.00    +0.048 A 
ATOM      6  C   UNL     1       2.619   8.572  31.099  0.00  0.00    +0.116 A 
ATOM      7  N   UNL     1       1.981   7.951  30.047  0.00  0.00    -0.223 NA
ATOM      8  C   UNL     1       2.596   6.932  29.341  0.00  0.00    +0.220 A 
ATOM      9  N   UNL     1       1.970   6.288  28.285  0.00  0.00    -0.283 N 
ATOM     36  H   UNL     1       2.460   5.547  27.785  0.00  0.00    +0.155 HD
ATOM     37  N   UNL     1       3.839   6.533  29.681  0.00  0.00    -0.214 NA
BRANCH   4   3
ATOM      1  C   UNL     1       8.038   5.437  30.306  0.00  0.00    +0.020 A 
ATOM      2  C   UNL     1       6.722   5.938  29.984  0.00  0.00    +0.013 A 
ATOM      3  C   UNL     1       5.897   6.575  31.003  0.00  0.00    +0.019 A 
ATOM     38  C   UNL     1       6.439   6.690  32.349  0.00  0.00    +0.120 A 
ATOM     39  N   UNL     1       7.709   6.197  32.630  0.00  0.00    -0.263 NA
ATOM     40  C   UNL     1       8.511   5.581  31.658  0.00  0.00    +0.111 A 
ENDBRANCH   4   3
ENDBRANCH  10   9
BRANCH  12  13
ATOM     13  N   UNL     1      -2.938   6.098  29.078  0.00  0.00    -0.281 N 
ATOM     14  C   UNL     1      -4.044   5.400  28.623  0.00  0.00    +0.248 C 
ATOM     30  O   UNL     1      -4.313   5.222  27.444  0.00  0.00    -0.270 OA
ATOM     31  H   UNL     1      -2.936   6.339  30.069  0.00  0.00    +0.155 HD
BRANCH  14  15
ATOM     15  C   UNL     1      -4.998   4.828  29.622  0.00  0.00    +0.037 A 
ATOM     16  C   UNL     1      -4.730   3.549  30.284  0.00  0.00    +0.013 A 
ATOM     17  C   UNL     1      -5.675   3.012  31.231  0.00  0.00    +0.005 A 
ATOM     18  C   UNL     1      -6.897   3.757  31.523  0.00  0.00    -0.033 A 
ATOM     28  C   UNL     1      -7.136   5.026  30.856  0.00  0.00    +0.005 A 
ATOM     29  C   UNL     1      -6.213   5.555  29.926  0.00  0.00    +0.013 A 
BRANCH  18  19
ATOM     19  C   UNL     1      -7.971   3.249  32.503  0.00  0.00    +0.119 C 
BRANCH  19  20
ATOM     20  N   UNL     1      -9.304   2.891  31.933  0.00  0.00    -0.302 NA
ATOM     21  C   UNL     1     -10.381   2.778  33.015  0.00  0.00    +0.066 C 
ATOM     22  C   UNL     1     -11.773   2.425  32.398  0.00  0.00    -0.064 C 
ATOM     23  N   UNL     1     -11.661   1.121  31.607  0.00  0.00    +0.379 N 
ATOM     24  C   UNL     1     -12.982   0.756  31.074  0.00  0.00    -0.096 C 
ATOM     25  H   UNL     1     -11.350   0.320  32.317  0.00  0.00    -0.082 HD
ATOM     26  C   UNL     1     -10.591   1.224  30.530  0.00  0.00    -0.064 C 
ATOM     27  C   UNL     1      -9.217   1.604  31.150  0.00  0.00    +0.066 C 
ENDBRANCH  19  20
ENDBRANCH  18  19
ENDBRANCH  14  15
ENDBRANCH  12  13
TORSDOF 6
ENDMDL
MODEL 2
REMARK VINA RESULT:      -8.2      3.530      5.446
REMARK  Name = C:\Users\Docking\Desktop\test protocol\1iep_ligandH.pdb
REMARK  8 active torsions:
REMARK  status: ('A' for Active; 'I' for Inactive)
REMARK    1  A    between atoms: _5  and  _11
REMARK    2  A    between atoms: _19  and  _21
REMARK    3  A    between atoms: _22  and  _66
REMARK    4  A    between atoms: _27  and  _30
REMARK    5  A    between atoms: _32  and  _33
REMARK    6  A    between atoms: _38  and  _43
REMARK    7  A    between atoms: _43  and  _46
REMARK    8  A    between atoms: _53  and  _55
REMARK                            x       y       z     vdW  Elec       q    Type
REMARK                         _______ _______ _______ _____ _____    ______ ____
ROOT
ATOM     10  C   UNL     1       3.861   6.532  29.666  0.00  0.00    +0.038 A 
ATOM     11  C   UNL     1       2.453   6.402  29.557  0.00  0.00    +0.047 A 
ATOM     12  C   UNL     1       1.560   7.111  30.460  0.00  0.00    +0.035 A 
ATOM     32  C   UNL     1       2.135   7.948  31.460  0.00  0.00    +0.024 A 
ATOM     33  C   UNL     1       3.564   8.091  31.586  0.00  0.00    +0.007 A 
ATOM     34  C   UNL     1       4.450   7.392  30.700  0.00  0.00    -0.029 A 
ATOM     35  C   UNL     1       5.974   7.578  30.884  0.00  0.00    +0.045 C 
ENDROOT
BRANCH  10   9
ATOM      4  C   UNL     1       4.517   3.983  25.652  0.00  0.00    +0.077 A 
ATOM      5  C   UNL     1       3.123   4.035  25.320  0.00  0.00    +0.048 A 
ATOM      6  C   UNL     1       2.269   4.722  26.213  0.00  0.00    +0.116 A 
ATOM      7  N   UNL     1       2.782   5.309  27.349  0.00  0.00    -0.223 NA
ATOM      8  C   UNL     1       4.132   5.238  27.640  0.00  0.00    +0.220 A 
ATOM      9  N   UNL     1       4.672   5.828  28.773  0.00  0.00    -0.283 N 
ATOM     36  H   UNL     1       5.672   5.747  28.956  0.00  0.00    +0.155 HD
ATOM     37  N   UNL     1       4.968   4.587  26.805  0.00  0.00    -0.214 NA
BRANCH   4   3
ATOM      1  C   UNL     1       7.838   3.136  23.767  0.00  0.00    +0.020 A 
ATOM      2  C   UNL     1       6.882   3.838  24.592  0.00  0.00    +0.013 A 
ATOM      3  C   UNL     1       5.546   3.297  24.808  0.00  0.00    +0.019 A 
ATOM     38  C   UNL     1       5.206   2.034  24.170  0.00  0.00    +0.120 A 
ATOM     39  N   UNL     1       6.148   1.381  23.381  0.00  0.00    -0.263 NA
ATOM     40  C   UNL     1       7.436   1.892  23.164  0.00  0.00    +0.111 A 
ENDBRANCH   4   3
ENDBRANCH  10   9
BRANCH  12  13
ATOM     13  N   UNL     1       0.122   7.011  30.403  0.00  0.00    -0.281 N 
ATOM     14  C   UNL     1      -0.741   7.642  29.522  0.00  0.00    +0.248 C 
ATOM     30  O   UNL     1      -0.423   8.560  28.781  0.00  0.00    -0.270 OA
ATOM     31  H   UNL     1      -0.311   6.401  31.096  0.00  0.00    +0.155 HD
BRANCH  14  15
ATOM     15  C   UNL     1      -2.167   7.199  29.467  0.00  0.00    +0.037 A 
ATOM     16  C   UNL     1      -3.267   8.160  29.582  0.00  0.00    +0.013 A 
ATOM     17  C   UNL     1      -4.634   7.704  29.543  0.00  0.00    +0.005 A 
ATOM     18  C   UNL     1      -4.908   6.278  29.386  0.00  0.00    -0.033 A 
ATOM     28  C   UNL     1      -3.799   5.346  29.268  0.00  0.00    +0.005 A 
ATOM     29  C   UNL     1      -2.458   5.790  29.308  0.00  0.00    +0.013 A 
BRANCH  18  19
ATOM     19  C   UNL     1      -6.335   5.699  29.355  0.00  0.00    +0.119 C 
BRANCH  19  20
ATOM     20  N   UNL     1      -6.635   4.569  30.283  0.00  0.00    -0.302 NA
ATOM     21  C   UNL     1      -6.734   3.230  29.545  0.00  0.00    +0.066 C 
ATOM     22  C   UNL     1      -7.026   2.055  30.535  0.00  0.00    -0.064 C 
ATOM     23  N   UNL     1      -8.316   2.347  31.302  0.00  0.00    +0.379 N 
ATOM     24  C   UNL     1      -8.624   1.217  32.191  0.00  0.00    -0.096 C 
ATOM     25  H   UNL     1      -9.142   2.426  30.557  0.00  0.00    -0.082 HD
ATOM     26  C   UNL     1      -8.228   3.677  32.036  0.00  0.00    -0.064 C 
ATOM     27  C   UNL     1      -7.908   4.834  31.048  0.00  0.00    +0.066 C 
ENDBRANCH  19  20
ENDBRANCH  18  19
ENDBRANCH  14  15
ENDBRANCH  12  13
TORSDOF 6
ENDMDL
MODEL 3
REMARK VINA RESULT:      -8.2      3.701     14.009
REMARK  Name = C:\Users\Docking\Desktop\test protocol\1iep_ligandH.pdb
REMARK  8 active torsions:
REMARK  status: ('A' for Active; 'I' for Inactive)
REMARK    1  A    between atoms: _5  and  _11
REMARK    2  A    between atoms: _19  and  _21
REMARK    3  A    between atoms: _22  and  _66
REMARK    4  A    between atoms: _27  and  _30
REMARK    5  A    between atoms: _32  and  _33
REMARK    6  A    between atoms: _38  and  _43
REMARK    7  A    between atoms: _43  and  _46
REMARK    8  A    between atoms: _53  and  _55
REMARK                            x       y       z     vdW  Elec       q    Type
REMARK                         _______ _______ _______ _____ _____    ______ ____
ROOT
ATOM     10  C   UNL     1      -7.878   1.286  30.478  0.00  0.00    +0.038 A 
ATOM     11  C   UNL     1      -7.280   2.423  29.877  0.00  0.00    +0.047 A 
ATOM     12  C   UNL     1      -5.972   2.898  30.300  0.00  0.00    +0.035 A 
ATOM     32  C   UNL     1      -5.298   2.188  31.337  0.00  0.00    +0.024 A 
ATOM     33  C   UNL     1      -5.892   1.031  31.959  0.00  0.00    +0.007 A 
ATOM     34  C   UNL     1      -7.183   0.560  31.548  0.00  0.00    -0.029 A 
ATOM     35  C   UNL     1      -7.774  -0.682  32.255  0.00  0.00    +0.045 C 
ENDROOT
BRANCH  10   9
ATOM      4  C   UNL     1     -12.668   1.233  30.786  0.00  0.00    +0.077 A 
ATOM      5  C   UNL     1     -12.661   2.076  31.947  0.00  0.00    +0.048 A 
ATOM      6  C   UNL     1     -11.404   2.495  32.438  0.00  0.00    +0.116 A 
ATOM      7  N   UNL     1     -10.247   2.096  31.806  0.00  0.00    -0.223 NA
ATOM      8  C   UNL     1     -10.288   1.282  30.689  0.00  0.00    +0.220 A 
ATOM      9  N   UNL     1      -9.136   0.875  30.034  0.00  0.00    -0.283 N 
ATOM     36  H   UNL     1      -9.209   0.268  29.217  0.00  0.00    +0.155 HD
ATOM     37  N   UNL     1     -11.476   0.867  30.202  0.00  0.00    -0.214 NA
BRANCH   4   3
ATOM      1  C   UNL     1     -15.206  -0.214  28.185  0.00  0.00    +0.020 A 
ATOM      2  C   UNL     1     -13.975   0.284  28.754  0.00  0.00    +0.013 A 
ATOM      3  C   UNL     1     -13.917   0.711  30.146  0.00  0.00    +0.019 A 
ATOM     38  C   UNL     1     -15.131   0.621  30.942  0.00  0.00    +0.120 A 
ATOM     39  N   UNL     1     -16.303   0.139  30.367  0.00  0.00    -0.263 NA
ATOM     40  C   UNL     1     -16.372  -0.273  29.028  0.00  0.00    +0.111 A 
ENDBRANCH   4   3
ENDBRANCH  10   9
BRANCH  12  13
ATOM     13  N   UNL     1      -5.319   4.051  29.732  0.00  0.00    -0.281 N 
ATOM     14  C   UNL     1      -5.696   5.380  29.835  0.00  0.00    +0.248 C 
ATOM     30  O   UNL     1      -6.778   5.761  30.256  0.00  0.00    -0.270 OA
ATOM     31  H   UNL     1      -4.476   3.865  29.188  0.00  0.00    +0.155 HD
BRANCH  14  15
ATOM     15  C   UNL     1      -4.738   6.439  29.393  0.00  0.00    +0.037 A 
ATOM     16  C   UNL     1      -3.435   6.093  28.820  0.00  0.00    +0.013 A 
ATOM     17  C   UNL     1      -2.523   7.134  28.418  0.00  0.00    +0.005 A 
ATOM     18  C   UNL     1      -2.912   8.532  28.587  0.00  0.00    -0.033 A 
ATOM     28  C   UNL     1      -4.213   8.847  29.154  0.00  0.00    +0.005 A 
ATOM     29  C   UNL     1      -5.109   7.829  29.550  0.00  0.00    +0.013 A 
BRANCH  18  19
ATOM     19  C   UNL     1      -1.993   9.708  28.205  0.00  0.00    +0.119 C 
BRANCH  19  20
ATOM     20  N   UNL     1      -0.957  10.117  29.200  0.00  0.00    -0.302 NA
ATOM     21  C   UNL     1       0.132   9.053  29.366  0.00  0.00    +0.066 C 
ATOM     22  C   UNL     1       1.219   9.508  30.393  0.00  0.00    -0.064 C 
ATOM     23  N   UNL     1       0.552   9.815  31.735  0.00  0.00    +0.379 N 
ATOM     24  C   UNL     1       1.579  10.186  32.719  0.00  0.00    -0.096 C 
ATOM     25  H   UNL     1       0.065   8.878  32.092  0.00  0.00    -0.082 HD
ATOM     26  C   UNL     1      -0.533  10.870  31.578  0.00  0.00    -0.064 C 
ATOM     27  C   UNL     1      -1.593  10.421  30.534  0.00  0.00    +0.066 C 
ENDBRANCH  19  20
ENDBRANCH  18  19
ENDBRANCH  14  15
ENDBRANCH  12  13
TORSDOF 6
ENDMDL
MODEL 4
REMARK VINA RESULT:      -8.2      3.508     14.562
REMARK  Name = C:\Users\Docking\Desktop\test protocol\1iep_ligandH.pdb
REMARK  8 active torsions:
REMARK  status: ('A' for Active; 'I' for Inactive)
REMARK    1  A    between atoms: _5  and  _11
REMARK    2  A    between atoms: _19  and  _21
REMARK    3  A    between atoms: _22  and  _66
REMARK    4  A    between atoms: _27  and  _30
REMARK    5  A    between atoms: _32  and  _33
REMARK    6  A    between atoms: _38  and  _43
REMARK    7  A    between atoms: _43  and  _46
REMARK    8  A    between atoms: _53  and  _55
REMARK                            x       y       z     vdW  Elec       q    Type
REMARK                         _______ _______ _______ _____ _____    ______ ____
ROOT
ATOM     10  C   UNL     1      -8.806   0.643  30.625  0.00  0.00    +0.038 A 
ATOM     11  C   UNL     1      -8.155   1.770  30.063  0.00  0.00    +0.047 A 
ATOM     12  C   UNL     1      -6.782   2.099  30.414  0.00  0.00    +0.035 A 
ATOM     32  C   UNL     1      -6.101   1.255  31.339  0.00  0.00    +0.024 A 
ATOM     33  C   UNL     1      -6.748   0.105  31.921  0.00  0.00    +0.007 A 
ATOM     34  C   UNL     1      -8.103  -0.222  31.580  0.00  0.00    -0.029 A 
ATOM     35  C   UNL     1      -8.749  -1.463  32.239  0.00  0.00    +0.045 C 
ENDROOT
BRANCH  10   9
ATOM      4  C   UNL     1     -13.540   1.324  31.026  0.00  0.00    +0.077 A 
ATOM      5  C   UNL     1     -13.373   2.275  32.087  0.00  0.00    +0.048 A 
ATOM      6  C   UNL     1     -12.053   2.556  32.504  0.00  0.00    +0.116 A 
ATOM      7  N   UNL     1     -10.987   1.927  31.899  0.00  0.00    -0.223 NA
ATOM      8  C   UNL     1     -11.183   1.013  30.880  0.00  0.00    +0.220 A 
ATOM      9  N   UNL     1     -10.125   0.374  30.252  0.00  0.00    -0.283 N 
ATOM     36  H   UNL     1     -10.312  -0.299  29.510  0.00  0.00    +0.155 HD
ATOM     37  N   UNL     1     -12.434   0.726  30.464  0.00  0.00    -0.214 NA
BRANCH   4   3
ATOM      1  C   UNL     1     -16.332  -0.367  28.870  0.00  0.00    +0.020 A 
ATOM      2  C   UNL     1     -15.022  -0.014  29.367  0.00  0.00    +0.013 A 
ATOM      3  C   UNL     1     -14.873   0.924  30.472  0.00  0.00    +0.019 A 
ATOM     38  C   UNL     1     -16.078   1.491  31.058  0.00  0.00    +0.120 A 
ATOM     39  N   UNL     1     -17.326   1.134  30.557  0.00  0.00    -0.263 NA
ATOM     40  C   UNL     1     -17.482   0.233  29.493  0.00  0.00    +0.111 A 
ENDBRANCH   4   3
ENDBRANCH  10   9
BRANCH  12  13
ATOM     13  N   UNL     1      -6.072   3.235  29.882  0.00  0.00    -0.281 N 
ATOM     14  C   UNL     1      -6.319   4.579  30.114  0.00  0.00    +0.248 C 
ATOM     30  O   UNL     1      -7.329   5.013  30.648  0.00  0.00    -0.270 OA
ATOM     31  H   UNL     1      -5.292   3.024  29.260  0.00  0.00    +0.155 HD
BRANCH  14  15
ATOM     15  C   UNL     1      -5.305   5.585  29.676  0.00  0.00    +0.037 A 
ATOM     16  C   UNL     1      -5.605   7.019  29.684  0.00  0.00    +0.013 A 
ATOM     17  C   UNL     1      -4.615   7.968  29.240  0.00  0.00    +0.005 A 
ATOM     18  C   UNL     1      -3.313   7.485  28.785  0.00  0.00    -0.033 A 
ATOM     28  C   UNL     1      -3.040   6.057  28.793  0.00  0.00    +0.005 A 
ATOM     29  C   UNL     1      -4.009   5.124  29.226  0.00  0.00    +0.013 A 
BRANCH  18  19
ATOM     19  C   UNL     1      -2.204   8.424  28.275  0.00  0.00    +0.119 C 
BRANCH  19  20
ATOM     20  N   UNL     1      -1.006   7.790  27.649  0.00  0.00    -0.302 NA
ATOM     21  C   UNL     1       0.231   7.888  28.546  0.00  0.00    +0.066 C 
ATOM     22  C   UNL     1       1.469   7.200  27.886  0.00  0.00    -0.064 C 
ATOM     23  N   UNL     1       1.738   7.839  26.522  0.00  0.00    +0.379 N 
ATOM     24  C   UNL     1       2.937   7.234  25.924  0.00  0.00    -0.096 C 
ATOM     25  H   UNL     1       1.953   8.920  26.692  0.00  0.00    -0.082 HD
ATOM     26  C   UNL     1       0.512   7.748  25.624  0.00  0.00    -0.064 C 
ATOM     27  C   UNL     1      -0.720   8.409  26.303  0.00  0.00    +0.066 C 
ENDBRANCH  19  20
ENDBRANCH  18  19
ENDBRANCH  14  15
ENDBRANCH  12  13
TORSDOF 6
ENDMDL
MODEL 5
REMARK VINA RESULT:      -8.0      9.444     13.023
REMARK  Name = C:\Users\Docking\Desktop\test protocol\1iep_ligandH.pdb
REMARK  8 active torsions:
REMARK  status: ('A' for Active; 'I' for Inactive)
REMARK    1  A    between atoms: _5  and  _11
REMARK    2  A    between atoms: _19  and  _21
REMARK    3  A    between atoms: _22  and  _66
REMARK    4  A    between atoms: _27  and  _30
REMARK    5  A    between atoms: _32  and  _33
REMARK    6  A    between atoms: _38  and  _43
REMARK    7  A    between atoms: _43  and  _46
REMARK    8  A    between atoms: _53  and  _55
REMARK                            x       y       z     vdW  Elec       q    Type
REMARK                         _______ _______ _______ _____ _____    ______ ____
ROOT
ATOM     10  C   UNL     1       5.902   0.929  21.494  0.00  0.00    +0.038 A 
ATOM     11  C   UNL     1       4.960   1.413  22.438  0.00  0.00    +0.047 A 
ATOM     12  C   UNL     1       5.379   2.224  23.570  0.00  0.00    +0.035 A 
ATOM     32  C   UNL     1       6.765   2.526  23.710  0.00  0.00    +0.024 A 
ATOM     33  C   UNL     1       7.736   2.041  22.760  0.00  0.00    +0.007 A 
ATOM     34  C   UNL     1       7.329   1.239  21.642  0.00  0.00    -0.029 A 
ATOM     35  C   UNL     1       8.414   0.742  20.659  0.00  0.00    +0.045 C 
ENDROOT
BRANCH  10   9
ATOM      4  C   UNL     1       4.869  -3.296  19.466  0.00  0.00    +0.077 A 
ATOM      5  C   UNL     1       5.302  -4.025  20.623  0.00  0.00    +0.048 A 
ATOM      6  C   UNL     1       5.791  -3.275  21.716  0.00  0.00    +0.116 A 
ATOM      7  N   UNL     1       5.838  -1.899  21.646  0.00  0.00    -0.223 NA
ATOM      8  C   UNL     1       5.414  -1.228  20.514  0.00  0.00    +0.220 A 
ATOM      9  N   UNL     1       5.444   0.155  20.425  0.00  0.00    -0.283 N 
ATOM     36  H   UNL     1       5.130   0.612  19.570  0.00  0.00    +0.155 HD
ATOM     37  N   UNL     1       4.944  -1.922  19.456  0.00  0.00    -0.214 NA
BRANCH   4   3
ATOM      1  C   UNL     1       2.757  -4.037  16.257  0.00  0.00    +0.020 A 
ATOM      2  C   UNL     1       3.246  -3.368  17.441  0.00  0.00    +0.013 A 
ATOM      3  C   UNL     1       4.325  -3.947  18.232  0.00  0.00    +0.019 A 
ATOM     38  C   UNL     1       4.892  -5.213  17.794  0.00  0.00    +0.120 A 
ATOM     39  N   UNL     1       4.400  -5.835  16.650  0.00  0.00    -0.263 NA
ATOM     40  C   UNL     1       3.361  -5.288  15.882  0.00  0.00    +0.111 A 
ENDBRANCH   4   3
ENDBRANCH  10   9
BRANCH  12  13
ATOM     13  N   UNL     1       4.469   2.736  24.565  0.00  0.00    -0.281 N 
ATOM     14  C   UNL     1       4.695   3.746  25.486  0.00  0.00    +0.248 C 
ATOM     30  O   UNL     1       5.793   4.220  25.736  0.00  0.00    -0.270 OA
ATOM     31  H   UNL     1       3.547   2.301  24.594  0.00  0.00    +0.155 HD
BRANCH  14  15
ATOM     15  C   UNL     1       3.535   4.300  26.249  0.00  0.00    +0.037 A 
ATOM     16  C   UNL     1       2.795   3.478  27.210  0.00  0.00    +0.013 A 
ATOM     17  C   UNL     1       1.670   4.031  27.920  0.00  0.00    +0.005 A 
ATOM     18  C   UNL     1       1.278   5.417  27.673  0.00  0.00    -0.033 A 
ATOM     28  C   UNL     1       2.033   6.212  26.718  0.00  0.00    +0.005 A 
ATOM     29  C   UNL     1       3.136   5.672  26.019  0.00  0.00    +0.013 A 
BRANCH  18  19
ATOM     19  C   UNL     1       0.078   6.084  28.370  0.00  0.00    +0.119 C 
BRANCH  19  20
ATOM     20  N   UNL     1       0.295   7.440  28.957  0.00  0.00    -0.302 NA
ATOM     21  C   UNL     1       1.244   7.401  30.158  0.00  0.00    +0.066 C 
ATOM     22  C   UNL     1       1.477   8.830  30.746  0.00  0.00    -0.064 C 
ATOM     23  N   UNL     1       0.132   9.443  31.138  0.00  0.00    +0.379 N 
ATOM     24  C   UNL     1       0.353  10.764  31.745  0.00  0.00    -0.096 C 
ATOM     25  H   UNL     1      -0.325   8.787  31.915  0.00  0.00    -0.082 HD
ATOM     26  C   UNL     1      -0.819   9.484  29.950  0.00  0.00    -0.064 C 
ATOM     27  C   UNL     1      -1.021   8.062  29.356  0.00  0.00    +0.066 C 
ENDBRANCH  19  20
ENDBRANCH  18  19
ENDBRANCH  14  15
ENDBRANCH  12  13
TORSDOF 6
ENDMDL
