MODEL 1
REMARK VINA RESULT:      -8.4      0.000      0.000
REMARK  Name = C:\Users\Docking\Desktop\test protocol\1iep_ligandH.pdb
REMARK  8 active torsions:
REMARK  status: ('A' for Active; 'I' for Inactive)
REMARK    1  A    between atoms: _5  and  _11
REMARK    2  A    between atoms: _19  and  _21
REMARK    3  A    between atoms: _22  and  _66
REMARK    4  A    between atoms: _27  and  _30
REMARK    5  A    between atoms: _32  and  _33
REMARK    6  A    between atoms: _38  and  _43
REMARK    7  A    between atoms: _43  and  _46
REMARK    8  A    between atoms: _53  and  _55
REMARK                            x       y       z     vdW  Elec       q    Type
REMARK                         _______ _______ _______ _____ _____    ______ ____
ROOT
ATOM     10  C   UNL     1      -2.121   7.996  29.695  0.00  0.00    +0.038 A 
ATOM     11  C   UNL     1      -3.105   6.996  29.904  0.00  0.00    +0.047 A 
ATOM     12  C   UNL     1      -4.512   7.260  29.643  0.00  0.00    +0.035 A 
ATOM     32  C   UNL     1      -4.880   8.553  29.168  0.00  0.00    +0.024 A 
ATOM     33  C   UNL     1      -3.892   9.580  28.951  0.00  0.00    +0.007 A 
ATOM     34  C   UNL     1      -2.504   9.327  29.209  0.00  0.00    -0.029 A 
ATOM     35  C   UNL     1      -1.489  10.468  28.965  0.00  0.00    +0.045 C 
ENDROOT
BRANCH  10   9
ATOM      4  C   UNL     1       2.247   6.558  28.319  0.00  0.00    +0.077 A 
ATOM      5  C   UNL     1       1.825   6.380  26.960  0.00  0.00    +0.048 A 
ATOM      6  C   UNL     1       0.474   6.662  26.658  0.00  0.00    +0.116 A 
ATOM      7  N   UNL     1      -0.382   7.090  27.649  0.00  0.00    -0.223 NA
ATOM      8  C   UNL     1       0.057   7.250  28.950  0.00  0.00    +0.220 A 
ATOM      9  N   UNL     1      -0.785   7.688  29.961  0.00  0.00    -0.283 N 
ATOM     36  H   UNL     1      -0.424   7.786  30.910  0.00  0.00    +0.155 HD
ATOM     37  N   UNL     1       1.342   6.986  29.265  0.00  0.00    -0.214 NA
BRANCH   4   3
ATOM      1  C   UNL     1       5.875   5.134  28.656  0.00  0.00    +0.020 A 
ATOM      2  C   UNL     1       4.534   5.341  28.158  0.00  0.00    +0.013 A 
ATOM      3  C   UNL     1       3.644   6.304  28.794  0.00  0.00    +0.019 A 
ATOM     38  C   UNL     1       4.145   7.048  29.940  0.00  0.00    +0.120 A 
ATOM     39  N   UNL     1       5.440   6.826  30.398  0.00  0.00    -0.263 NA
ATOM     40  C   UNL     1       6.305   5.901  29.796  0.00  0.00    +0.111 A 
ENDBRANCH   4   3
ENDBRANCH  10   9
BRANCH  12  13
ATOM     13  N   UNL     1      -5.557   6.288  29.844  0.00  0.00    -0.281 N 
ATOM     14  C   UNL     1      -5.659   5.021  29.293  0.00  0.00    +0.248 C 
ATOM     30  O   UNL     1      -4.970   4.611  28.371  0.00  0.00    -0.270 OA
ATOM     31  H   UNL     1      -6.314   6.568  30.468  0.00  0.00    +0.155 HD
BRANCH  14  15
ATOM     15  C   UNL     1      -6.684   4.078  29.836  0.00  0.00    +0.037 A 
ATOM     16  C   UNL     1      -6.872   2.745  29.257  0.00  0.00    +0.013 A 
ATOM     17  C   UNL     1      -7.880   1.862  29.789  0.00  0.00    +0.005 A 
ATOM     18  C   UNL     1      -8.707   2.309  30.907  0.00  0.00    -0.033 A 
ATOM     28  C   UNL     1      -8.496   3.634  31.465  0.00  0.00    +0.005 A 
ATOM     29  C   UNL     1      -7.510   4.503  30.946  0.00  0.00    +0.013 A 
BRANCH  18  19
ATOM     19  C   UNL     1      -9.820   1.441  31.524  0.00  0.00    +0.119 C 
BRANCH  19  20
ATOM     20  N   UNL     1     -11.160   1.479  30.866  0.00  0.00    -0.302 NA
ATOM     21  C   UNL     1     -12.267   1.887  31.842  0.00  0.00    +0.066 C 
ATOM     22  C   UNL     1     -13.659   1.943  31.133  0.00  0.00    -0.064 C 
ATOM     23  N   UNL     1     -13.964   0.582  30.505  0.00  0.00    +0.379 N 
ATOM     24  C   UNL     1     -15.298   0.615  29.886  0.00  0.00    -0.096 C 
ATOM     25  H   UNL     1     -13.991  -0.171  31.326  0.00  0.00    -0.082 HD
ATOM     26  C   UNL     1     -12.867   0.169  29.534  0.00  0.00    -0.064 C 
ATOM     27  C   UNL     1     -11.484   0.144  30.243  0.00  0.00    +0.066 C 
ENDBRANCH  19  20
ENDBRANCH  18  19
ENDBRANCH  14  15
ENDBRANCH  12  13
TORSDOF 6
ENDMDL
MODEL 2
REMARK VINA RESULT:      -8.3     12.839     17.103
REMARK  Name = C:\Users\Docking\Desktop\test protocol\1iep_ligandH.pdb
REMARK  8 active torsions:
REMARK  status: ('A' for Active; 'I' for Inactive)
REMARK    1  A    between atoms: _5  and  _11
REMARK    2  A    between atoms: _19  and  _21
REMARK    3  A    between atoms: _22  and  _66
REMARK    4  A    between atoms: _27  and  _30
REMARK    5  A    between atoms: _32  and  _33
REMARK    6  A    between atoms: _38  and  _43
REMARK    7  A    between atoms: _43  and  _46
REMARK    8  A    between atoms: _53  and  _55
REMARK                            x       y       z     vdW  Elec       q    Type
REMARK                         _______ _______ _______ _____ _____    ______ ____
ROOT
ATOM     10  C   UNL     1       5.090  -0.805  22.358  0.00  0.00    +0.038 A 
ATOM     11  C   UNL     1       4.640  -0.840  21.014  0.00  0.00    +0.047 A 
ATOM     12  C   UNL     1       5.223  -1.759  20.048  0.00  0.00    +0.035 A 
ATOM     32  C   UNL     1       6.263  -2.630  20.488  0.00  0.00    +0.024 A 
ATOM     33  C   UNL     1       6.733  -2.606  21.850  0.00  0.00    +0.007 A 
ATOM     34  C   UNL     1       6.163  -1.701  22.806  0.00  0.00    -0.029 A 
ATOM     35  C   UNL     1       6.712  -1.715  24.252  0.00  0.00    +0.045 C 
ENDROOT
BRANCH  10   9
ATOM      4  C   UNL     1       5.089   3.282  24.875  0.00  0.00    +0.077 A 
ATOM      5  C   UNL     1       6.398   3.638  24.409  0.00  0.00    +0.048 A 
ATOM      6  C   UNL     1       7.041   2.739  23.528  0.00  0.00    +0.116 A 
ATOM      7  N   UNL     1       6.411   1.574  23.148  0.00  0.00    -0.223 NA
ATOM      8  C   UNL     1       5.149   1.259  23.618  0.00  0.00    +0.220 A 
ATOM      9  N   UNL     1       4.494   0.097  23.243  0.00  0.00    -0.283 N 
ATOM     36  H   UNL     1       3.567  -0.103  23.617  0.00  0.00    +0.155 HD
ATOM     37  N   UNL     1       4.515   2.101  24.461  0.00  0.00    -0.214 NA
BRANCH   4   3
ATOM      1  C   UNL     1       3.994   5.491  27.912  0.00  0.00    +0.020 A 
ATOM      2  C   UNL     1       4.817   4.677  27.047  0.00  0.00    +0.013 A 
ATOM      3  C   UNL     1       4.281   4.130  25.807  0.00  0.00    +0.019 A 
ATOM     38  C   UNL     1       2.898   4.430  25.467  0.00  0.00    +0.120 A 
ATOM     39  N   UNL     1       2.129   5.215  26.320  0.00  0.00    -0.263 NA
ATOM     40  C   UNL     1       2.634   5.745  27.517  0.00  0.00    +0.111 A 
ENDBRANCH   4   3
ENDBRANCH  10   9
BRANCH  12  13
ATOM     13  N   UNL     1       4.812  -1.834  18.668  0.00  0.00    -0.281 N 
ATOM     14  C   UNL     1       4.263  -2.916  18.001  0.00  0.00    +0.248 C 
ATOM     30  O   UNL     1       4.238  -4.057  18.438  0.00  0.00    -0.270 OA
ATOM     31  H   UNL     1       4.943  -0.986  18.116  0.00  0.00    +0.155 HD
BRANCH  14  15
ATOM     15  C   UNL     1       3.667  -2.703  16.647  0.00  0.00    +0.037 A 
ATOM     16  C   UNL     1       2.489  -3.455  16.208  0.00  0.00    +0.013 A 
ATOM     17  C   UNL     1       1.944  -3.243  14.891  0.00  0.00    +0.005 A 
ATOM     18  C   UNL     1       2.578  -2.272  14.002  0.00  0.00    -0.033 A 
ATOM     28  C   UNL     1       3.743  -1.536  14.465  0.00  0.00    +0.005 A 
ATOM     29  C   UNL     1       4.280  -1.742  15.755  0.00  0.00    +0.013 A 
BRANCH  18  19
ATOM     19  C   UNL     1       2.078  -1.996  12.572  0.00  0.00    +0.119 C 
BRANCH  19  20
ATOM     20  N   UNL     1       2.007  -3.158  11.636  0.00  0.00    -0.302 NA
ATOM     21  C   UNL     1       3.343  -3.899  11.539  0.00  0.00    +0.066 C 
ATOM     22  C   UNL     1       3.245  -5.125  10.573  0.00  0.00    -0.064 C 
ATOM     23  N   UNL     1       2.788  -4.648   9.193  0.00  0.00    +0.379 N 
ATOM     24  C   UNL     1       2.750  -5.790   8.268  0.00  0.00    -0.096 C 
ATOM     25  H   UNL     1       3.551  -3.930   8.814  0.00  0.00    -0.082 HD
ATOM     26  C   UNL     1       1.461  -3.907   9.282  0.00  0.00    -0.064 C 
ATOM     27  C   UNL     1       1.562  -2.709  10.266  0.00  0.00    +0.066 C 
ENDBRANCH  19  20
ENDBRANCH  18  19
ENDBRANCH  14  15
ENDBRANCH  12  13
TORSDOF 6
ENDMDL
MODEL 3
REMARK VINA RESULT:      -8.2      7.317     12.283
REMARK  Name = C:\Users\Docking\Desktop\test protocol\1iep_ligandH.pdb
REMARK  8 active torsions:
REMARK  status: ('A' for Active; 'I' for Inactive)
REMARK    1  A    between atoms: _5  and  _11
REMARK    2  A    between atoms: _19  and  _21
REMARK    3  A    between atoms: _22  and  _66
REMARK    4  A    between atoms: _27  and  _30
REMARK    5  A    between atoms: _32  and  _33
REMARK    6  A    between atoms: _38  and  _43
REMARK    7  A    between atoms: _43  and  _46
REMARK    8  A    between atoms: _53  and  _55
REMARK                            x       y       z     vdW  Elec       q    Type
REMARK                         _______ _______ _______ _____ _____    ______ ____
ROOT
ATOM     10  C   UNL     1       5.967   1.366  23.741  0.00  0.00    +0.038 A 
ATOM     11  C   UNL     1       4.741   1.873  24.242  0.00  0.00    +0.047 A 
ATOM     12  C   UNL     1       4.645   3.224  24.772  0.00  0.00    +0.035 A 
ATOM     32  C   UNL     1       5.818   4.034  24.773  0.00  0.00    +0.024 A 
ATOM     33  C   UNL     1       7.073   3.535  24.269  0.00  0.00    +0.007 A 
ATOM     34  C   UNL     1       7.174   2.202  23.747  0.00  0.00    -0.029 A 
ATOM     35  C   UNL     1       8.547   1.717  23.225  0.00  0.00    +0.045 C 
ENDROOT
BRANCH  10   9
ATOM      4  C   UNL     1       6.570  -3.362  24.303  0.00  0.00    +0.077 A 
ATOM      5  C   UNL     1       6.867  -3.218  25.699  0.00  0.00    +0.048 A 
ATOM      6  C   UNL     1       6.862  -1.909  26.232  0.00  0.00    +0.116 A 
ATOM      7  N   UNL     1       6.578  -0.832  25.420  0.00  0.00    -0.223 NA
ATOM      8  C   UNL     1       6.297  -1.006  24.077  0.00  0.00    +0.220 A 
ATOM      9  N   UNL     1       6.002   0.062  23.244  0.00  0.00    -0.283 N 
ATOM     36  H   UNL     1       5.807  -0.108  22.258  0.00  0.00    +0.155 HD
ATOM     37  N   UNL     1       6.298  -2.246  23.544  0.00  0.00    -0.214 NA
BRANCH   4   3
ATOM      1  C   UNL     1       6.917  -7.171  23.485  0.00  0.00    +0.020 A 
ATOM      2  C   UNL     1       6.973  -5.925  24.213  0.00  0.00    +0.013 A 
ATOM      3  C   UNL     1       6.534  -4.680  23.594  0.00  0.00    +0.019 A 
ATOM     38  C   UNL     1       6.038  -4.732  22.227  0.00  0.00    +0.120 A 
ATOM     39  N   UNL     1       5.997  -5.947  21.550  0.00  0.00    -0.263 NA
ATOM     40  C   UNL     1       6.419  -7.151  22.135  0.00  0.00    +0.111 A 
ENDBRANCH   4   3
ENDBRANCH  10   9
BRANCH  12  13
ATOM     13  N   UNL     1       3.429   3.790  25.301  0.00  0.00    -0.281 N 
ATOM     14  C   UNL     1       3.214   4.314  26.566  0.00  0.00    +0.248 C 
ATOM     30  O   UNL     1       3.979   4.179  27.509  0.00  0.00    -0.270 OA
ATOM     31  H   UNL     1       2.631   3.807  24.667  0.00  0.00    +0.155 HD
BRANCH  14  15
ATOM     15  C   UNL     1       1.960   5.086  26.823  0.00  0.00    +0.037 A 
ATOM     16  C   UNL     1       1.405   5.204  28.174  0.00  0.00    +0.013 A 
ATOM     17  C   UNL     1       0.185   5.941  28.392  0.00  0.00    +0.005 A 
ATOM     18  C   UNL     1      -0.487   6.567  27.256  0.00  0.00    -0.033 A 
ATOM     28  C   UNL     1       0.089   6.438  25.927  0.00  0.00    +0.005 A 
ATOM     29  C   UNL     1       1.284   5.716  25.710  0.00  0.00    +0.013 A 
BRANCH  18  19
ATOM     19  C   UNL     1      -1.804   7.354  27.392  0.00  0.00    +0.119 C 
BRANCH  19  20
ATOM     20  N   UNL     1      -1.878   8.380  28.475  0.00  0.00    -0.302 NA
ATOM     21  C   UNL     1      -3.270   9.010  28.575  0.00  0.00    +0.066 C 
ATOM     22  C   UNL     1      -3.336  10.064  29.728  0.00  0.00    -0.064 C 
ATOM     23  N   UNL     1      -2.271  11.137  29.495  0.00  0.00    +0.379 N 
ATOM     24  C   UNL     1      -2.369  12.161  30.546  0.00  0.00    -0.096 C 
ATOM     25  H   UNL     1      -2.495  11.630  28.520  0.00  0.00    -0.082 HD
ATOM     26  C   UNL     1      -0.884  10.519  29.392  0.00  0.00    -0.064 C 
ATOM     27  C   UNL     1      -0.837   9.451  28.263  0.00  0.00    +0.066 C 
ENDBRANCH  19  20
ENDBRANCH  18  19
ENDBRANCH  14  15
ENDBRANCH  12  13
TORSDOF 6
ENDMDL
MODEL 4
REMARK VINA RESULT:      -8.2      4.257     12.296
REMARK  Name = C:\Users\Docking\Desktop\test protocol\1iep_ligandH.pdb
REMARK  8 active torsions:
REMARK  status: ('A' for Active; 'I' for Inactive)
REMARK    1  A    between atoms: _5  and  _11
REMARK    2  A    between atoms: _19  and  _21
REMARK    3  A    between atoms: _22  and  _66
REMARK    4  A    between atoms: _27  and  _30
REMARK    5  A    between atoms: _32  and  _33
REMARK    6  A    between atoms: _38  and  _43
REMARK    7  A    between atoms: _43  and  _46
REMARK    8  A    between atoms: _53  and  _55
REMARK                            x       y       z     vdW  Elec       q    Type
REMARK                         _______ _______ _______ _____ _____    ______ ____
ROOT
ATOM     10  C   UNL     1      -2.636   7.308  28.972  0.00  0.00    +0.038 A 
ATOM     11  C   UNL     1      -1.483   6.665  28.454  0.00  0.00    +0.047 A 
ATOM     12  C   UNL     1      -0.636   7.318  27.468  0.00  0.00    +0.035 A 
ATOM     32  C   UNL     1      -0.992   8.628  27.033  0.00  0.00    +0.024 A 
ATOM     33  C   UNL     1      -2.161   9.296  27.549  0.00  0.00    +0.007 A 
ATOM     34  C   UNL     1      -3.001   8.656  28.520  0.00  0.00    -0.029 A 
ATOM     35  C   UNL     1      -4.246   9.417  29.033  0.00  0.00    +0.045 C 
ENDROOT
BRANCH  10   9
ATOM      4  C   UNL     1      -5.857   3.968  30.197  0.00  0.00    +0.077 A 
ATOM      5  C   UNL     1      -6.026   3.546  28.836  0.00  0.00    +0.048 A 
ATOM      6  C   UNL     1      -5.270   4.220  27.850  0.00  0.00    +0.116 A 
ATOM      7  N   UNL     1      -4.413   5.237  28.210  0.00  0.00    -0.223 NA
ATOM      8  C   UNL     1      -4.275   5.620  29.531  0.00  0.00    +0.220 A 
ATOM      9  N   UNL     1      -3.413   6.635  29.917  0.00  0.00    -0.283 N 
ATOM     36  H   UNL     1      -3.346   6.892  30.901  0.00  0.00    +0.155 HD
ATOM     37  N   UNL     1      -4.987   4.993  30.491  0.00  0.00    -0.214 NA
BRANCH   4   3
ATOM      1  C   UNL     1      -6.651   2.272  33.631  0.00  0.00    +0.020 A 
ATOM      2  C   UNL     1      -5.903   2.859  32.543  0.00  0.00    +0.013 A 
ATOM      3  C   UNL     1      -6.583   3.351  31.352  0.00  0.00    +0.019 A 
ATOM     38  C   UNL     1      -8.033   3.235  31.293  0.00  0.00    +0.120 A 
ATOM     39  N   UNL     1      -8.726   2.664  32.356  0.00  0.00    -0.263 NA
ATOM     40  C   UNL     1      -8.082   2.185  33.506  0.00  0.00    +0.111 A 
ENDBRANCH   4   3
ENDBRANCH  10   9
BRANCH  12  13
ATOM     13  N   UNL     1       0.542   6.711  26.900  0.00  0.00    -0.281 N 
ATOM     14  C   UNL     1       1.662   6.238  27.565  0.00  0.00    +0.248 C 
ATOM     30  O   UNL     1       1.912   6.461  28.740  0.00  0.00    -0.270 OA
ATOM     31  H   UNL     1       0.553   6.619  25.884  0.00  0.00    +0.155 HD
BRANCH  14  15
ATOM     15  C   UNL     1       2.653   5.410  26.813  0.00  0.00    +0.037 A 
ATOM     16  C   UNL     1       2.274   4.693  25.593  0.00  0.00    +0.013 A 
ATOM     17  C   UNL     1       3.245   3.888  24.896  0.00  0.00    +0.005 A 
ATOM     18  C   UNL     1       4.607   3.797  25.417  0.00  0.00    -0.033 A 
ATOM     28  C   UNL     1       4.957   4.522  26.627  0.00  0.00    +0.005 A 
ATOM     29  C   UNL     1       4.007   5.312  27.313  0.00  0.00    +0.013 A 
BRANCH  18  19
ATOM     19  C   UNL     1       5.702   2.944  24.750  0.00  0.00    +0.119 C 
BRANCH  19  20
ATOM     20  N   UNL     1       5.262   1.732  23.998  0.00  0.00    -0.302 NA
ATOM     21  C   UNL     1       6.091   0.497  24.363  0.00  0.00    +0.066 C 
ATOM     22  C   UNL     1       5.602  -0.767  23.583  0.00  0.00    -0.064 C 
ATOM     23  N   UNL     1       5.671  -0.494  22.080  0.00  0.00    +0.379 N 
ATOM     24  C   UNL     1       5.267  -1.700  21.343  0.00  0.00    -0.096 C 
ATOM     25  H   UNL     1       6.735  -0.281  21.824  0.00  0.00    -0.082 HD
ATOM     26  C   UNL     1       4.852   0.734  21.709  0.00  0.00    -0.064 C 
ATOM     27  C   UNL     1       5.326   1.978  22.511  0.00  0.00    +0.066 C 
ENDBRANCH  19  20
ENDBRANCH  18  19
ENDBRANCH  14  15
ENDBRANCH  12  13
TORSDOF 6
ENDMDL
MODEL 5
REMARK VINA RESULT:      -8.0      3.556     13.339
REMARK  Name = C:\Users\Docking\Desktop\test protocol\1iep_ligandH.pdb
REMARK  8 active torsions:
REMARK  status: ('A' for Active; 'I' for Inactive)
REMARK    1  A    between atoms: _5  and  _11
REMARK    2  A    between atoms: _19  and  _21
REMARK    3  A    between atoms: _22  and  _66
REMARK    4  A    between atoms: _27  and  _30
REMARK    5  A    between atoms: _32  and  _33
REMARK    6  A    between atoms: _38  and  _43
REMARK    7  A    between atoms: _43  and  _46
REMARK    8  A    between atoms: _53  and  _55
REMARK                            x       y       z     vdW  Elec       q    Type
REMARK                         _______ _______ _______ _____ _____    ______ ____
ROOT
ATOM     10  C   UNL     1      -7.789   1.270  30.603  0.00  0.00    +0.038 A 
ATOM     11  C   UNL     1      -7.170   2.502  30.272  0.00  0.00    +0.047 A 
ATOM     12  C   UNL     1      -5.814   2.803  30.703  0.00  0.00    +0.035 A 
ATOM     32  C   UNL     1      -5.116   1.825  31.469  0.00  0.00    +0.024 A 
ATOM     33  C   UNL     1      -5.730   0.567  31.816  0.00  0.00    +0.007 A 
ATOM     34  C   UNL     1      -7.068   0.266  31.395  0.00  0.00    -0.029 A 
ATOM     35  C   UNL     1      -7.679  -1.095  31.802  0.00  0.00    +0.045 C 
ENDROOT
BRANCH  10   9
ATOM      4  C   UNL     1     -12.550   1.633  31.086  0.00  0.00    +0.077 A 
ATOM      5  C   UNL     1     -12.430   2.329  32.334  0.00  0.00    +0.048 A 
ATOM      6  C   UNL     1     -11.126   2.567  32.821  0.00  0.00    +0.116 A 
ATOM      7  N   UNL     1     -10.030   2.138  32.104  0.00  0.00    -0.223 NA
ATOM      8  C   UNL     1     -10.181   1.468  30.904  0.00  0.00    +0.220 A 
ATOM      9  N   UNL     1      -9.093   1.033  30.163  0.00  0.00    -0.283 N 
ATOM     36  H   UNL     1      -9.246   0.536  29.286  0.00  0.00    +0.155 HD
ATOM     37  N   UNL     1     -11.416   1.226  30.419  0.00  0.00    -0.214 NA
BRANCH   4   3
ATOM      1  C   UNL     1     -15.269   0.607  28.466  0.00  0.00    +0.020 A 
ATOM      2  C   UNL     1     -13.979   0.910  29.042  0.00  0.00    +0.013 A 
ATOM      3  C   UNL     1     -13.861   1.308  30.439  0.00  0.00    +0.019 A 
ATOM     38  C   UNL     1     -15.078   1.390  31.233  0.00  0.00    +0.120 A 
ATOM     39  N   UNL     1     -16.307   1.094  30.651  0.00  0.00    -0.263 NA
ATOM     40  C   UNL     1     -16.432   0.712  29.307  0.00  0.00    +0.111 A 
ENDBRANCH   4   3
ENDBRANCH  10   9
BRANCH  12  13
ATOM     13  N   UNL     1      -5.137   4.041  30.403  0.00  0.00    -0.281 N 
ATOM     14  C   UNL     1      -4.771   4.532  29.161  0.00  0.00    +0.248 C 
ATOM     30  O   UNL     1      -4.782   3.879  28.129  0.00  0.00    -0.270 OA
ATOM     31  H   UNL     1      -4.897   4.625  31.205  0.00  0.00    +0.155 HD
BRANCH  14  15
ATOM     15  C   UNL     1      -4.315   5.951  29.052  0.00  0.00    +0.037 A 
ATOM     16  C   UNL     1      -5.234   7.066  29.296  0.00  0.00    +0.013 A 
ATOM     17  C   UNL     1      -4.772   8.426  29.167  0.00  0.00    +0.005 A 
ATOM     18  C   UNL     1      -3.382   8.677  28.793  0.00  0.00    -0.033 A 
ATOM     28  C   UNL     1      -2.491   7.553  28.562  0.00  0.00    +0.005 A 
ATOM     29  C   UNL     1      -2.940   6.219  28.686  0.00  0.00    +0.013 A 
BRANCH  18  19
ATOM     19  C   UNL     1      -2.808  10.095  28.612  0.00  0.00    +0.119 C 
BRANCH  19  20
ATOM     20  N   UNL     1      -2.036  10.671  29.753  0.00  0.00    -0.302 NA
ATOM     21  C   UNL     1      -0.553  10.293  29.691  0.00  0.00    +0.066 C 
ATOM     22  C   UNL     1       0.245  10.922  30.879  0.00  0.00    -0.064 C 
ATOM     23  N   UNL     1      -0.375  10.469  32.203  0.00  0.00    +0.379 N 
ATOM     24  C   UNL     1       0.408  11.013  33.322  0.00  0.00    -0.096 C 
ATOM     25  H   UNL     1      -0.303   9.358  32.247  0.00  0.00    -0.082 HD
ATOM     26  C   UNL     1      -1.850  10.839  32.271  0.00  0.00    -0.064 C 
ATOM     27  C   UNL     1      -2.628  10.233  31.070  0.00  0.00    +0.066 C 
ENDBRANCH  19  20
ENDBRANCH  18  19
ENDBRANCH  14  15
ENDBRANCH  12  13
TORSDOF 6
ENDMDL
