MODEL 1
REMARK VINA RESULT:      -8.3      0.000      0.000
REMARK  Name = C:\Users\Docking\Desktop\test protocol\1iep_ligandH.pdb
REMARK  8 active torsions:
REMARK  status: ('A' for Active; 'I' for Inactive)
REMARK    1  A    between atoms: _5  and  _11
REMARK    2  A    between atoms: _19  and  _21
REMARK    3  A    between atoms: _22  and  _66
REMARK    4  A    between atoms: _27  and  _30
REMARK    5  A    between atoms: _32  and  _33
REMARK    6  A    between atoms: _38  and  _43
REMARK    7  A    between atoms: _43  and  _46
REMARK    8  A    between atoms: _53  and  _55
REMARK                            x       y       z     vdW  Elec       q    Type
REMARK                         _______ _______ _______ _____ _____    ______ ____
ROOT
ATOM     10  C   UNL     1      -2.328   7.646  29.632  0.00  0.00    +0.038 A 
ATOM     11  C   UNL     1      -3.247   6.600  29.904  0.00  0.00    +0.047 A 
ATOM     12  C   UNL     1      -4.669   6.763  29.646  0.00  0.00    +0.035 A 
ATOM     32  C   UNL     1      -5.121   8.003  29.108  0.00  0.00    +0.024 A 
ATOM     33  C   UNL     1      -4.200   9.077  28.826  0.00  0.00    +0.007 A 
ATOM     34  C   UNL     1      -2.797   8.923  29.081  0.00  0.00    -0.029 A 
ATOM     35  C   UNL     1      -1.856  10.110  28.766  0.00  0.00    +0.045 C 
ENDROOT
BRANCH  10   9
ATOM      4  C   UNL     1       2.112   6.422  28.279  0.00  0.00    +0.077 A 
ATOM      5  C   UNL     1       1.692   6.154  26.934  0.00  0.00    +0.048 A 
ATOM      6  C   UNL     1       0.323   6.336  26.633  0.00  0.00    +0.116 A 
ATOM      7  N   UNL     1      -0.551   6.756  27.612  0.00  0.00    -0.223 NA
ATOM      8  C   UNL     1      -0.113   7.004  28.900  0.00  0.00    +0.220 A 
ATOM      9  N   UNL     1      -0.973   7.435  29.898  0.00  0.00    -0.283 N 
ATOM     36  H   UNL     1      -0.612   7.600  30.838  0.00  0.00    +0.155 HD
ATOM     37  N   UNL     1       1.189   6.836  29.213  0.00  0.00    -0.214 NA
BRANCH   4   3
ATOM      1  C   UNL     1       5.822   5.240  28.650  0.00  0.00    +0.020 A 
ATOM      2  C   UNL     1       4.468   5.338  28.157  0.00  0.00    +0.013 A 
ATOM      3  C   UNL     1       3.526   6.279  28.751  0.00  0.00    +0.019 A 
ATOM     38  C   UNL     1       3.990   7.112  29.850  0.00  0.00    +0.120 A 
ATOM     39  N   UNL     1       5.300   6.994  30.304  0.00  0.00    -0.263 NA
ATOM     40  C   UNL     1       6.214   6.091  29.742  0.00  0.00    +0.111 A 
ENDBRANCH   4   3
ENDBRANCH  10   9
BRANCH  12  13
ATOM     13  N   UNL     1      -5.651   5.740  29.910  0.00  0.00    -0.281 N 
ATOM     14  C   UNL     1      -5.726   4.470  29.362  0.00  0.00    +0.248 C 
ATOM     30  O   UNL     1      -5.078   4.095  28.396  0.00  0.00    -0.270 OA
ATOM     31  H   UNL     1      -6.379   5.982  30.583  0.00  0.00    +0.155 HD
BRANCH  14  15
ATOM     15  C   UNL     1      -6.666   3.478  29.966  0.00  0.00    +0.037 A 
ATOM     16  C   UNL     1      -6.884   3.420  31.414  0.00  0.00    +0.013 A 
ATOM     17  C   UNL     1      -7.784   2.442  31.971  0.00  0.00    +0.005 A 
ATOM     18  C   UNL     1      -8.474   1.513  31.079  0.00  0.00    -0.033 A 
ATOM     28  C   UNL     1      -8.243   1.595  29.647  0.00  0.00    +0.005 A 
ATOM     29  C   UNL     1      -7.361   2.552  29.097  0.00  0.00    +0.013 A 
BRANCH  18  19
ATOM     19  C   UNL     1      -9.435   0.423  31.589  0.00  0.00    +0.119 C 
BRANCH  19  20
ATOM     20  N   UNL     1     -10.752   0.293  30.895  0.00  0.00    -0.302 NA
ATOM     21  C   UNL     1     -11.636   1.525  31.106  0.00  0.00    +0.066 C 
ATOM     22  C   UNL     1     -13.000   1.383  30.355  0.00  0.00    -0.064 C 
ATOM     23  N   UNL     1     -13.712   0.116  30.833  0.00  0.00    +0.379 N 
ATOM     24  C   UNL     1     -15.020   0.010  30.171  0.00  0.00    -0.096 C 
ATOM     25  H   UNL     1     -13.894   0.223  31.928  0.00  0.00    -0.082 HD
ATOM     26  C   UNL     1     -12.838  -1.114  30.629  0.00  0.00    -0.064 C 
ATOM     27  C   UNL     1     -11.474  -0.949  31.355  0.00  0.00    +0.066 C 
ENDBRANCH  19  20
ENDBRANCH  18  19
ENDBRANCH  14  15
ENDBRANCH  12  13
TORSDOF 6
ENDMDL
MODEL 2
REMARK VINA RESULT:      -8.3      2.267      3.083
REMARK  Name = C:\Users\Docking\Desktop\test protocol\1iep_ligandH.pdb
REMARK  8 active torsions:
REMARK  status: ('A' for Active; 'I' for Inactive)
REMARK    1  A    between atoms: _5  and  _11
REMARK    2  A    between atoms: _19  and  _21
REMARK    3  A    between atoms: _22  and  _66
REMARK    4  A    between atoms: _27  and  _30
REMARK    5  A    between atoms: _32  and  _33
REMARK    6  A    between atoms: _38  and  _43
REMARK    7  A    between atoms: _43  and  _46
REMARK    8  A    between atoms: _53  and  _55
REMARK                            x       y       z     vdW  Elec       q    Type
REMARK                         _______ _______ _______ _____ _____    ______ ____
ROOT
ATOM     10  C   UNL     1      -2.003   7.429  29.670  0.00  0.00    +0.038 A 
ATOM     11  C   UNL     1      -2.826   6.341  30.058  0.00  0.00    +0.047 A 
ATOM     12  C   UNL     1      -4.259   6.354  29.806  0.00  0.00    +0.035 A 
ATOM     32  C   UNL     1      -4.820   7.490  29.153  0.00  0.00    +0.024 A 
ATOM     33  C   UNL     1      -3.998   8.605  28.753  0.00  0.00    +0.007 A 
ATOM     34  C   UNL     1      -2.585   8.599  29.001  0.00  0.00    -0.029 A 
ATOM     35  C   UNL     1      -1.753   9.825  28.556  0.00  0.00    +0.045 C 
ENDROOT
BRANCH  10   9
ATOM      4  C   UNL     1       2.496   6.282  28.453  0.00  0.00    +0.077 A 
ATOM      5  C   UNL     1       2.080   5.743  27.191  0.00  0.00    +0.048 A 
ATOM      6  C   UNL     1       0.698   5.774  26.895  0.00  0.00    +0.116 A 
ATOM      7  N   UNL     1      -0.192   6.306  27.803  0.00  0.00    -0.223 NA
ATOM      8  C   UNL     1       0.243   6.816  29.012  0.00  0.00    +0.220 A 
ATOM      9  N   UNL     1      -0.634   7.363  29.937  0.00  0.00    -0.283 N 
ATOM     36  H   UNL     1      -0.275   7.723  30.821  0.00  0.00    +0.155 HD
ATOM     37  N   UNL     1       1.557   6.797  29.319  0.00  0.00    -0.214 NA
BRANCH   4   3
ATOM      1  C   UNL     1       6.319   5.542  28.828  0.00  0.00    +0.020 A 
ATOM      2  C   UNL     1       4.956   5.461  28.353  0.00  0.00    +0.013 A 
ATOM      3  C   UNL     1       3.922   6.325  28.908  0.00  0.00    +0.019 A 
ATOM     38  C   UNL     1       4.302   7.268  29.949  0.00  0.00    +0.120 A 
ATOM     39  N   UNL     1       5.621   7.323  30.387  0.00  0.00    -0.263 NA
ATOM     40  C   UNL     1       6.625   6.495  29.861  0.00  0.00    +0.111 A 
ENDBRANCH   4   3
ENDBRANCH  10   9
BRANCH  12  13
ATOM     13  N   UNL     1      -5.146   5.282  30.184  0.00  0.00    -0.281 N 
ATOM     14  C   UNL     1      -5.408   4.110  29.494  0.00  0.00    +0.248 C 
ATOM     30  O   UNL     1      -5.079   3.901  28.336  0.00  0.00    -0.270 OA
ATOM     31  H   UNL     1      -5.641   5.402  31.068  0.00  0.00    +0.155 HD
BRANCH  14  15
ATOM     15  C   UNL     1      -6.157   3.017  30.186  0.00  0.00    +0.037 A 
ATOM     16  C   UNL     1      -7.395   2.470  29.625  0.00  0.00    +0.013 A 
ATOM     17  C   UNL     1      -8.106   1.427  30.321  0.00  0.00    +0.005 A 
ATOM     18  C   UNL     1      -7.579   0.924  31.587  0.00  0.00    -0.033 A 
ATOM     28  C   UNL     1      -6.346   1.480  32.119  0.00  0.00    +0.005 A 
ATOM     29  C   UNL     1      -5.647   2.503  31.439  0.00  0.00    +0.013 A 
BRANCH  18  19
ATOM     19  C   UNL     1      -8.284  -0.172  32.409  0.00  0.00    +0.119 C 
BRANCH  19  20
ATOM     20  N   UNL     1      -7.717  -1.552  32.337  0.00  0.00    -0.302 NA
ATOM     21  C   UNL     1      -6.908  -1.774  31.056  0.00  0.00    +0.066 C 
ATOM     22  C   UNL     1      -6.303  -3.215  31.007  0.00  0.00    -0.064 C 
ATOM     23  N   UNL     1      -7.431  -4.242  31.120  0.00  0.00    +0.379 N 
ATOM     24  C   UNL     1      -6.872  -5.598  31.016  0.00  0.00    -0.096 C 
ATOM     25  H   UNL     1      -8.114  -4.090  30.252  0.00  0.00    -0.082 HD
ATOM     26  C   UNL     1      -8.242  -4.027  32.390  0.00  0.00    -0.064 C 
ATOM     27  C   UNL     1      -8.814  -2.582  32.442  0.00  0.00    +0.066 C 
ENDBRANCH  19  20
ENDBRANCH  18  19
ENDBRANCH  14  15
ENDBRANCH  12  13
TORSDOF 6
ENDMDL
MODEL 3
REMARK VINA RESULT:      -8.1      4.266     12.281
REMARK  Name = C:\Users\Docking\Desktop\test protocol\1iep_ligandH.pdb
REMARK  8 active torsions:
REMARK  status: ('A' for Active; 'I' for Inactive)
REMARK    1  A    between atoms: _5  and  _11
REMARK    2  A    between atoms: _19  and  _21
REMARK    3  A    between atoms: _22  and  _66
REMARK    4  A    between atoms: _27  and  _30
REMARK    5  A    between atoms: _32  and  _33
REMARK    6  A    between atoms: _38  and  _43
REMARK    7  A    between atoms: _43  and  _46
REMARK    8  A    between atoms: _53  and  _55
REMARK                            x       y       z     vdW  Elec       q    Type
REMARK                         _______ _______ _______ _____ _____    ______ ____
ROOT
ATOM     10  C   UNL     1      -2.496   6.782  29.315  0.00  0.00    +0.038 A 
ATOM     11  C   UNL     1      -1.298   6.228  28.797  0.00  0.00    +0.047 A 
ATOM     12  C   UNL     1      -0.503   6.943  27.811  0.00  0.00    +0.035 A 
ATOM     32  C   UNL     1      -0.957   8.223  27.376  0.00  0.00    +0.024 A 
ATOM     33  C   UNL     1      -2.173   8.801  27.892  0.00  0.00    +0.007 A 
ATOM     34  C   UNL     1      -2.962   8.099  28.863  0.00  0.00    -0.029 A 
ATOM     35  C   UNL     1      -4.261   8.763  29.377  0.00  0.00    +0.045 C 
ENDROOT
BRANCH  10   9
ATOM      4  C   UNL     1      -5.857   3.573  30.516  0.00  0.00    +0.077 A 
ATOM      5  C   UNL     1      -6.219   3.352  29.146  0.00  0.00    +0.048 A 
ATOM      6  C   UNL     1      -5.522   4.090  28.163  0.00  0.00    +0.116 A 
ATOM      7  N   UNL     1      -4.537   4.979  28.534  0.00  0.00    -0.223 NA
ATOM      8  C   UNL     1      -4.213   5.169  29.865  0.00  0.00    +0.220 A 
ATOM      9  N   UNL     1      -3.220   6.052  30.261  0.00  0.00    -0.283 N 
ATOM     36  H   UNL     1      -3.015   6.169  31.253  0.00  0.00    +0.155 HD
ATOM     37  N   UNL     1      -4.865   4.478  30.823  0.00  0.00    -0.214 NA
BRANCH   4   3
ATOM      1  C   UNL     1      -7.961   2.813  33.725  0.00  0.00    +0.020 A 
ATOM      2  C   UNL     1      -7.364   3.542  32.629  0.00  0.00    +0.013 A 
ATOM      3  C   UNL     1      -6.500   2.867  31.669  0.00  0.00    +0.019 A 
ATOM     38  C   UNL     1      -6.259   1.442  31.847  0.00  0.00    +0.120 A 
ATOM     39  N   UNL     1      -6.847   0.767  32.912  0.00  0.00    -0.263 NA
ATOM     40  C   UNL     1      -7.678   1.407  33.843  0.00  0.00    +0.111 A 
ENDBRANCH   4   3
ENDBRANCH  10   9
BRANCH  12  13
ATOM     13  N   UNL     1       0.718   6.428  27.243  0.00  0.00    -0.281 N 
ATOM     14  C   UNL     1       1.721   5.716  27.881  0.00  0.00    +0.248 C 
ATOM     30  O   UNL     1       1.820   5.600  29.094  0.00  0.00    -0.270 OA
ATOM     31  H   UNL     1       0.860   6.609  26.249  0.00  0.00    +0.155 HD
BRANCH  14  15
ATOM     15  C   UNL     1       2.773   5.051  27.055  0.00  0.00    +0.037 A 
ATOM     16  C   UNL     1       4.194   5.179  27.386  0.00  0.00    +0.013 A 
ATOM     17  C   UNL     1       5.189   4.540  26.562  0.00  0.00    +0.005 A 
ATOM     18  C   UNL     1       4.766   3.766  25.398  0.00  0.00    -0.033 A 
ATOM     28  C   UNL     1       3.349   3.651  25.095  0.00  0.00    +0.005 A 
ATOM     29  C   UNL     1       2.370   4.276  25.900  0.00  0.00    +0.013 A 
BRANCH  18  19
ATOM     19  C   UNL     1       5.760   3.068  24.451  0.00  0.00    +0.119 C 
BRANCH  19  20
ATOM     20  N   UNL     1       5.325   1.782  23.830  0.00  0.00    -0.302 NA
ATOM     21  C   UNL     1       6.232   0.615  24.230  0.00  0.00    +0.066 C 
ATOM     22  C   UNL     1       5.749  -0.727  23.590  0.00  0.00    -0.064 C 
ATOM     23  N   UNL     1       5.702  -0.576  22.069  0.00  0.00    +0.379 N 
ATOM     24  C   UNL     1       5.304  -1.853  21.460  0.00  0.00    -0.096 C 
ATOM     25  H   UNL     1       6.735  -0.342  21.721  0.00  0.00    -0.082 HD
ATOM     26  C   UNL     1       4.804   0.584  21.662  0.00  0.00    -0.064 C 
ATOM     27  C   UNL     1       5.276   1.908  22.327  0.00  0.00    +0.066 C 
ENDBRANCH  19  20
ENDBRANCH  18  19
ENDBRANCH  14  15
ENDBRANCH  12  13
TORSDOF 6
ENDMDL
MODEL 4
REMARK VINA RESULT:      -8.1     18.557     22.418
REMARK  Name = C:\Users\Docking\Desktop\test protocol\1iep_ligandH.pdb
REMARK  8 active torsions:
REMARK  status: ('A' for Active; 'I' for Inactive)
REMARK    1  A    between atoms: _5  and  _11
REMARK    2  A    between atoms: _19  and  _21
REMARK    3  A    between atoms: _22  and  _66
REMARK    4  A    between atoms: _27  and  _30
REMARK    5  A    between atoms: _32  and  _33
REMARK    6  A    between atoms: _38  and  _43
REMARK    7  A    between atoms: _43  and  _46
REMARK    8  A    between atoms: _53  and  _55
REMARK                            x       y       z     vdW  Elec       q    Type
REMARK                         _______ _______ _______ _____ _____    ______ ____
ROOT
ATOM     10  C   UNL     1       2.727  -3.474  10.244  0.00  0.00    +0.038 A 
ATOM     11  C   UNL     1       3.276  -3.617  11.544  0.00  0.00    +0.047 A 
ATOM     12  C   UNL     1       2.823  -2.784  12.647  0.00  0.00    +0.035 A 
ATOM     32  C   UNL     1       1.808  -1.816  12.391  0.00  0.00    +0.024 A 
ATOM     33  C   UNL     1       1.241  -1.657  11.075  0.00  0.00    +0.007 A 
ATOM     34  C   UNL     1       1.685  -2.475   9.983  0.00  0.00    -0.029 A 
ATOM     35  C   UNL     1       1.046  -2.256   8.592  0.00  0.00    +0.045 C 
ENDROOT
BRANCH  10   9
ATOM      4  C   UNL     1       2.588  -7.524   7.671  0.00  0.00    +0.077 A 
ATOM      5  C   UNL     1       1.500  -8.048   8.446  0.00  0.00    +0.048 A 
ATOM      6  C   UNL     1       1.011  -7.248   9.502  0.00  0.00    +0.116 A 
ATOM      7  N   UNL     1       1.574  -6.016   9.755  0.00  0.00    -0.223 NA
ATOM      8  C   UNL     1       2.623  -5.540   8.990  0.00  0.00    +0.220 A 
ATOM      9  N   UNL     1       3.199  -4.301   9.222  0.00  0.00    -0.283 N 
ATOM     36  H   UNL     1       3.976  -3.989   8.639  0.00  0.00    +0.155 HD
ATOM     37  N   UNL     1       3.109  -6.286   7.976  0.00  0.00    -0.214 NA
BRANCH   4   3
ATOM      1  C   UNL     1       3.552  -8.658   4.054  0.00  0.00    +0.020 A 
ATOM      2  C   UNL     1       2.921  -7.927   5.128  0.00  0.00    +0.013 A 
ATOM      3  C   UNL     1       3.212  -8.249   6.520  0.00  0.00    +0.019 A 
ATOM     38  C   UNL     1       4.154  -9.325   6.792  0.00  0.00    +0.120 A 
ATOM     39  N   UNL     1       4.745 -10.012   5.736  0.00  0.00    -0.263 NA
ATOM     40  C   UNL     1       4.471  -9.712   4.393  0.00  0.00    +0.111 A 
ENDBRANCH   4   3
ENDBRANCH  10   9
BRANCH  12  13
ATOM     13  N   UNL     1       3.348  -2.878  13.987  0.00  0.00    -0.281 N 
ATOM     14  C   UNL     1       4.518  -2.326  14.484  0.00  0.00    +0.248 C 
ATOM     30  O   UNL     1       5.403  -1.844  13.792  0.00  0.00    -0.270 OA
ATOM     31  H   UNL     1       2.790  -3.416  14.649  0.00  0.00    +0.155 HD
BRANCH  14  15
ATOM     15  C   UNL     1       4.744  -2.323  15.961  0.00  0.00    +0.037 A 
ATOM     16  C   UNL     1       5.694  -1.397  16.582  0.00  0.00    +0.013 A 
ATOM     17  C   UNL     1       5.906  -1.426  18.008  0.00  0.00    +0.005 A 
ATOM     18  C   UNL     1       5.164  -2.385  18.822  0.00  0.00    -0.033 A 
ATOM     28  C   UNL     1       4.224  -3.289  18.181  0.00  0.00    +0.005 A 
ATOM     29  C   UNL     1       4.015  -3.264  16.784  0.00  0.00    +0.013 A 
BRANCH  18  19
ATOM     19  C   UNL     1       5.342  -2.502  20.348  0.00  0.00    +0.119 C 
BRANCH  19  20
ATOM     20  N   UNL     1       5.671  -1.251  21.095  0.00  0.00    -0.302 NA
ATOM     21  C   UNL     1       6.279  -1.546  22.469  0.00  0.00    +0.066 C 
ATOM     22  C   UNL     1       6.638  -0.227  23.228  0.00  0.00    -0.064 C 
ATOM     23  N   UNL     1       5.383   0.637  23.365  0.00  0.00    +0.379 N 
ATOM     24  C   UNL     1       5.705   1.851  24.128  0.00  0.00    -0.096 C 
ATOM     25  H   UNL     1       4.636   0.055  23.953  0.00  0.00    -0.082 HD
ATOM     26  C   UNL     1       4.771   0.933  22.003  0.00  0.00    -0.064 C 
ATOM     27  C   UNL     1       4.445  -0.385  21.246  0.00  0.00    +0.066 C 
ENDBRANCH  19  20
ENDBRANCH  18  19
ENDBRANCH  14  15
ENDBRANCH  12  13
TORSDOF 6
ENDMDL
MODEL 5
REMARK VINA RESULT:      -8.0      1.918      3.400
REMARK  Name = C:\Users\Docking\Desktop\test protocol\1iep_ligandH.pdb
REMARK  8 active torsions:
REMARK  status: ('A' for Active; 'I' for Inactive)
REMARK    1  A    between atoms: _5  and  _11
REMARK    2  A    between atoms: _19  and  _21
REMARK    3  A    between atoms: _22  and  _66
REMARK    4  A    between atoms: _27  and  _30
REMARK    5  A    between atoms: _32  and  _33
REMARK    6  A    between atoms: _38  and  _43
REMARK    7  A    between atoms: _43  and  _46
REMARK    8  A    between atoms: _53  and  _55
REMARK                            x       y       z     vdW  Elec       q    Type
REMARK                         _______ _______ _______ _____ _____    ______ ____
ROOT
ATOM     10  C   UNL     1       0.641   6.513  27.897  0.00  0.00    +0.038 A 
ATOM     11  C   UNL     1      -0.406   6.048  28.733  0.00  0.00    +0.047 A 
ATOM     12  C   UNL     1      -1.794   6.386  28.459  0.00  0.00    +0.035 A 
ATOM     32  C   UNL     1      -2.080   7.199  27.324  0.00  0.00    +0.024 A 
ATOM     33  C   UNL     1      -1.028   7.681  26.464  0.00  0.00    +0.007 A 
ATOM     34  C   UNL     1       0.343   7.352  26.730  0.00  0.00    -0.029 A 
ATOM     35  C   UNL     1       1.431   7.902  25.778  0.00  0.00    +0.045 C 
ENDROOT
BRANCH  10   9
ATOM      4  C   UNL     1       4.649   6.969  30.498  0.00  0.00    +0.077 A 
ATOM      5  C   UNL     1       4.085   8.023  31.291  0.00  0.00    +0.048 A 
ATOM      6  C   UNL     1       2.763   8.423  30.993  0.00  0.00    +0.116 A 
ATOM      7  N   UNL     1       2.067   7.808  29.975  0.00  0.00    -0.223 NA
ATOM      8  C   UNL     1       2.641   6.795  29.229  0.00  0.00    +0.220 A 
ATOM      9  N   UNL     1       1.956   6.157  28.206  0.00  0.00    -0.283 N 
ATOM     36  H   UNL     1       2.418   5.420  27.674  0.00  0.00    +0.155 HD
ATOM     37  N   UNL     1       3.902   6.396  29.493  0.00  0.00    -0.214 NA
BRANCH   4   3
ATOM      1  C   UNL     1       8.206   5.483  29.834  0.00  0.00    +0.020 A 
ATOM      2  C   UNL     1       6.876   5.992  29.590  0.00  0.00    +0.013 A 
ATOM      3  C   UNL     1       6.033   6.433  30.695  0.00  0.00    +0.019 A 
ATOM     38  C   UNL     1       6.570   6.345  32.044  0.00  0.00    +0.120 A 
ATOM     39  N   UNL     1       7.854   5.849  32.248  0.00  0.00    -0.263 NA
ATOM     40  C   UNL     1       8.674   5.421  31.193  0.00  0.00    +0.111 A 
ENDBRANCH   4   3
ENDBRANCH  10   9
BRANCH  12  13
ATOM     13  N   UNL     1      -2.898   5.950  29.278  0.00  0.00    -0.281 N 
ATOM     14  C   UNL     1      -4.055   5.305  28.873  0.00  0.00    +0.248 C 
ATOM     30  O   UNL     1      -4.414   5.195  27.710  0.00  0.00    -0.270 OA
ATOM     31  H   UNL     1      -2.817   6.140  30.277  0.00  0.00    +0.155 HD
BRANCH  14  15
ATOM     15  C   UNL     1      -4.950   4.708  29.910  0.00  0.00    +0.037 A 
ATOM     16  C   UNL     1      -4.549   3.518  30.666  0.00  0.00    +0.013 A 
ATOM     17  C   UNL     1      -5.439   2.953  31.649  0.00  0.00    +0.005 A 
ATOM     18  C   UNL     1      -6.738   3.578  31.884  0.00  0.00    -0.033 A 
ATOM     28  C   UNL     1      -7.108   4.761  31.124  0.00  0.00    +0.005 A 
ATOM     29  C   UNL     1      -6.239   5.318  30.159  0.00  0.00    +0.013 A 
BRANCH  18  19
ATOM     19  C   UNL     1      -7.759   3.030  32.898  0.00  0.00    +0.119 C 
BRANCH  19  20
ATOM     20  N   UNL     1      -8.760   2.043  32.396  0.00  0.00    -0.302 NA
ATOM     21  C   UNL     1      -8.418   1.543  30.989  0.00  0.00    +0.066 C 
ATOM     22  C   UNL     1      -9.463   0.494  30.488  0.00  0.00    -0.064 C 
ATOM     23  N   UNL     1     -10.860   1.115  30.518  0.00  0.00    +0.379 N 
ATOM     24  C   UNL     1     -11.837   0.151  29.992  0.00  0.00    -0.096 C 
ATOM     25  H   UNL     1     -10.853   1.996  29.834  0.00  0.00    -0.082 HD
ATOM     26  C   UNL     1     -11.207   1.617  31.912  0.00  0.00    -0.064 C 
ATOM     27  C   UNL     1     -10.147   2.637  32.412  0.00  0.00    +0.066 C 
ENDBRANCH  19  20
ENDBRANCH  18  19
ENDBRANCH  14  15
ENDBRANCH  12  13
TORSDOF 6
ENDMDL
