MODEL 1
REMARK VINA RESULT:     -10.6      0.000      0.000
REMARK  Name = C:\Users\Docking\Desktop\test protocol\1iep_ligandH.pdb
REMARK  8 active torsions:
REMARK  status: ('A' for Active; 'I' for Inactive)
REMARK    1  A    between atoms: _5  and  _11
REMARK    2  A    between atoms: _19  and  _21
REMARK    3  A    between atoms: _22  and  _66
REMARK    4  A    between atoms: _27  and  _30
REMARK    5  A    between atoms: _32  and  _33
REMARK    6  A    between atoms: _38  and  _43
REMARK    7  A    between atoms: _43  and  _46
REMARK    8  A    between atoms: _53  and  _55
REMARK                            x       y       z     vdW  Elec       q    Type
REMARK                         _______ _______ _______ _____ _____    ______ ____
ROOT
ATOM     10  C   UNL     1      14.070  25.187  81.208  0.00  0.00    +0.038 A 
ATOM     11  C   UNL     1      12.857  24.791  81.827  0.00  0.00    +0.047 A 
ATOM     12  C   UNL     1      11.611  25.494  81.560  0.00  0.00    +0.035 A 
ATOM     32  C   UNL     1      11.637  26.594  80.654  0.00  0.00    +0.024 A 
ATOM     33  C   UNL     1      12.861  27.010  80.016  0.00  0.00    +0.007 A 
ATOM     34  C   UNL     1      14.094  26.323  80.278  0.00  0.00    -0.029 A 
ATOM     35  C   UNL     1      15.377  26.817  79.571  0.00  0.00    +0.045 C 
ENDROOT
BRANCH  10   9
ATOM      4  C   UNL     1      17.329  21.807  80.214  0.00  0.00    +0.077 A 
ATOM      5  C   UNL     1      16.635  21.403  79.025  0.00  0.00    +0.048 A 
ATOM      6  C   UNL     1      15.439  22.086  78.709  0.00  0.00    +0.116 A 
ATOM      7  N   UNL     1      14.982  23.096  79.527  0.00  0.00    -0.223 NA
ATOM      8  C   UNL     1      15.674  23.459  80.667  0.00  0.00    +0.220 A 
ATOM      9  N   UNL     1      15.236  24.477  81.501  0.00  0.00    -0.283 N 
ATOM     36  H   UNL     1      15.772  24.710  82.336  0.00  0.00    +0.155 HD
ATOM     37  N   UNL     1      16.818  22.821  80.992  0.00  0.00    -0.214 NA
BRANCH   4   3
ATOM      1  C   UNL     1      20.900  20.210  80.273  0.00  0.00    +0.020 A 
ATOM      2  C   UNL     1      19.684  20.809  79.772  0.00  0.00    +0.013 A 
ATOM      3  C   UNL     1      18.608  21.183  80.680  0.00  0.00    +0.019 A 
ATOM     38  C   UNL     1      18.795  20.937  82.102  0.00  0.00    +0.120 A 
ATOM     39  N   UNL     1      19.976  20.357  82.556  0.00  0.00    -0.263 NA
ATOM     40  C   UNL     1      21.017  19.991  81.691  0.00  0.00    +0.111 A 
ENDBRANCH   4   3
ENDBRANCH  10   9
BRANCH  12  13
ATOM     13  N   UNL     1      10.351  25.142  82.165  0.00  0.00    -0.281 N 
ATOM     14  C   UNL     1       9.717  23.911  82.159  0.00  0.00    +0.248 C 
ATOM     30  O   UNL     1      10.038  22.972  81.446  0.00  0.00    -0.270 OA
ATOM     31  H   UNL     1       9.867  25.893  82.658  0.00  0.00    +0.155 HD
BRANCH  14  15
ATOM     15  C   UNL     1       8.549  23.695  83.066  0.00  0.00    +0.037 A 
ATOM     16  C   UNL     1       7.263  24.352  82.818  0.00  0.00    +0.013 A 
ATOM     17  C   UNL     1       6.157  24.140  83.718  0.00  0.00    +0.005 A 
ATOM     18  C   UNL     1       6.333  23.266  84.875  0.00  0.00    -0.033 A 
ATOM     28  C   UNL     1       7.617  22.623  85.095  0.00  0.00    +0.005 A 
ATOM     29  C   UNL     1       8.704  22.829  84.215  0.00  0.00    +0.013 A 
BRANCH  18  19
ATOM     19  C   UNL     1       5.214  22.999  85.900  0.00  0.00    +0.119 C 
BRANCH  19  20
ATOM     20  N   UNL     1       4.134  24.024  86.015  0.00  0.00    -0.302 NA
ATOM     21  C   UNL     1       3.961  24.517  87.454  0.00  0.00    +0.066 C 
ATOM     22  C   UNL     1       2.843  25.605  87.553  0.00  0.00    -0.064 C 
ATOM     23  N   UNL     1       1.530  25.034  87.015  0.00  0.00    +0.379 N 
ATOM     24  C   UNL     1       0.463  26.035  87.159  0.00  0.00    -0.096 C 
ATOM     25  H   UNL     1       1.259  24.156  87.647  0.00  0.00    -0.082 HD
ATOM     26  C   UNL     1       1.694  24.539  85.585  0.00  0.00    -0.064 C 
ATOM     27  C   UNL     1       2.827  23.479  85.493  0.00  0.00    +0.066 C 
ENDBRANCH  19  20
ENDBRANCH  18  19
ENDBRANCH  14  15
ENDBRANCH  12  13
TORSDOF 6
ENDMDL
MODEL 2
REMARK VINA RESULT:      -9.2      1.783      2.402
REMARK  Name = C:\Users\Docking\Desktop\test protocol\1iep_ligandH.pdb
REMARK  8 active torsions:
REMARK  status: ('A' for Active; 'I' for Inactive)
REMARK    1  A    between atoms: _5  and  _11
REMARK    2  A    between atoms: _19  and  _21
REMARK    3  A    between atoms: _22  and  _66
REMARK    4  A    between atoms: _27  and  _30
REMARK    5  A    between atoms: _32  and  _33
REMARK    6  A    between atoms: _38  and  _43
REMARK    7  A    between atoms: _43  and  _46
REMARK    8  A    between atoms: _53  and  _55
REMARK                            x       y       z     vdW  Elec       q    Type
REMARK                         _______ _______ _______ _____ _____    ______ ____
ROOT
ATOM     10  C   UNL     1      14.595  26.354  79.832  0.00  0.00    +0.038 A 
ATOM     11  C   UNL     1      13.402  25.734  80.281  0.00  0.00    +0.047 A 
ATOM     12  C   UNL     1      12.205  26.513  80.555  0.00  0.00    +0.035 A 
ATOM     32  C   UNL     1      12.258  27.924  80.358  0.00  0.00    +0.024 A 
ATOM     33  C   UNL     1      13.463  28.572  79.903  0.00  0.00    +0.007 A 
ATOM     34  C   UNL     1      14.648  27.808  79.633  0.00  0.00    -0.029 A 
ATOM     35  C   UNL     1      15.913  28.556  79.154  0.00  0.00    +0.045 C 
ENDROOT
BRANCH  10   9
ATOM      4  C   UNL     1      17.342  22.520  80.721  0.00  0.00    +0.077 A 
ATOM      5  C   UNL     1      16.489  22.083  81.788  0.00  0.00    +0.048 A 
ATOM      6  C   UNL     1      15.357  22.876  82.081  0.00  0.00    +0.116 A 
ATOM      7  N   UNL     1      15.107  24.020  81.354  0.00  0.00    -0.223 NA
ATOM      8  C   UNL     1      15.952  24.415  80.333  0.00  0.00    +0.220 A 
ATOM      9  N   UNL     1      15.715  25.557  79.584  0.00  0.00    -0.283 N 
ATOM     36  H   UNL     1      16.366  25.818  78.843  0.00  0.00    +0.155 HD
ATOM     37  N   UNL     1      17.040  23.675  80.035  0.00  0.00    -0.214 NA
BRANCH   4   3
ATOM      1  C   UNL     1      20.143  19.813  80.367  0.00  0.00    +0.020 A 
ATOM      2  C   UNL     1      18.942  20.478  80.817  0.00  0.00    +0.013 A 
ATOM      3  C   UNL     1      18.575  21.787  80.291  0.00  0.00    +0.019 A 
ATOM     38  C   UNL     1      19.450  22.399  79.302  0.00  0.00    +0.120 A 
ATOM     39  N   UNL     1      20.600  21.735  78.889  0.00  0.00    -0.263 NA
ATOM     40  C   UNL     1      20.965  20.476  79.389  0.00  0.00    +0.111 A 
ENDBRANCH   4   3
ENDBRANCH  10   9
BRANCH  12  13
ATOM     13  N   UNL     1      10.967  25.939  81.021  0.00  0.00    -0.281 N 
ATOM     14  C   UNL     1      10.790  24.776  81.752  0.00  0.00    +0.248 C 
ATOM     30  O   UNL     1      11.658  23.935  81.935  0.00  0.00    -0.270 OA
ATOM     31  H   UNL     1      10.119  26.453  80.783  0.00  0.00    +0.155 HD
BRANCH  14  15
ATOM     15  C   UNL     1       9.451  24.500  82.356  0.00  0.00    +0.037 A 
ATOM     16  C   UNL     1       9.306  23.604  83.506  0.00  0.00    +0.013 A 
ATOM     17  C   UNL     1       8.001  23.341  84.059  0.00  0.00    +0.005 A 
ATOM     18  C   UNL     1       6.829  23.977  83.461  0.00  0.00    -0.033 A 
ATOM     28  C   UNL     1       7.002  24.865  82.323  0.00  0.00    +0.005 A 
ATOM     29  C   UNL     1       8.280  25.124  81.779  0.00  0.00    +0.013 A 
BRANCH  18  19
ATOM     19  C   UNL     1       5.396  23.737  83.972  0.00  0.00    +0.119 C 
BRANCH  19  20
ATOM     20  N   UNL     1       5.227  23.459  85.429  0.00  0.00    -0.302 NA
ATOM     21  C   UNL     1       4.031  22.543  85.704  0.00  0.00    +0.066 C 
ATOM     22  C   UNL     1       3.883  22.245  87.232  0.00  0.00    -0.064 C 
ATOM     23  N   UNL     1       3.742  23.563  87.995  0.00  0.00    +0.379 N 
ATOM     24  C   UNL     1       3.544  23.283  89.425  0.00  0.00    -0.096 C 
ATOM     25  H   UNL     1       2.825  24.074  87.620  0.00  0.00    -0.082 HD
ATOM     26  C   UNL     1       4.926  24.481  87.725  0.00  0.00    -0.064 C 
ATOM     27  C   UNL     1       5.082  24.747  86.202  0.00  0.00    +0.066 C 
ENDBRANCH  19  20
ENDBRANCH  18  19
ENDBRANCH  14  15
ENDBRANCH  12  13
TORSDOF 6
ENDMDL
MODEL 3
REMARK VINA RESULT:      -7.8     23.437     28.260
REMARK  Name = C:\Users\Docking\Desktop\test protocol\1iep_ligandH.pdb
REMARK  8 active torsions:
REMARK  status: ('A' for Active; 'I' for Inactive)
REMARK    1  A    between atoms: _5  and  _11
REMARK    2  A    between atoms: _19  and  _21
REMARK    3  A    between atoms: _22  and  _66
REMARK    4  A    between atoms: _27  and  _30
REMARK    5  A    between atoms: _32  and  _33
REMARK    6  A    between atoms: _38  and  _43
REMARK    7  A    between atoms: _43  and  _46
REMARK    8  A    between atoms: _53  and  _55
REMARK                            x       y       z     vdW  Elec       q    Type
REMARK                         _______ _______ _______ _____ _____    ______ ____
ROOT
ATOM     10  C   UNL     1      25.660  43.325  66.685  0.00  0.00    +0.038 A 
ATOM     11  C   UNL     1      25.095  43.514  67.972  0.00  0.00    +0.047 A 
ATOM     12  C   UNL     1      25.922  43.488  69.168  0.00  0.00    +0.035 A 
ATOM     32  C   UNL     1      27.322  43.269  69.017  0.00  0.00    +0.024 A 
ATOM     33  C   UNL     1      27.913  43.074  67.717  0.00  0.00    +0.007 A 
ATOM     34  C   UNL     1      27.102  43.096  66.533  0.00  0.00    -0.029 A 
ATOM     35  C   UNL     1      27.789  42.874  65.165  0.00  0.00    +0.045 C 
ENDROOT
BRANCH  10   9
ATOM      4  C   UNL     1      22.590  45.584  63.768  0.00  0.00    +0.077 A 
ATOM      5  C   UNL     1      22.645  46.788  64.546  0.00  0.00    +0.048 A 
ATOM      6  C   UNL     1      23.470  46.783  65.693  0.00  0.00    +0.116 A 
ATOM      7  N   UNL     1      24.182  45.651  66.028  0.00  0.00    -0.223 NA
ATOM      8  C   UNL     1      24.105  44.506  65.257  0.00  0.00    +0.220 A 
ATOM      9  N   UNL     1      24.819  43.360  65.570  0.00  0.00    -0.283 N 
ATOM     36  H   UNL     1      24.730  42.533  64.980  0.00  0.00    +0.155 HD
ATOM     37  N   UNL     1      23.324  44.486  64.157  0.00  0.00    -0.214 NA
BRANCH   4   3
ATOM      1  C   UNL     1      21.445  44.717  60.130  0.00  0.00    +0.020 A 
ATOM      2  C   UNL     1      22.282  44.837  61.302  0.00  0.00    +0.013 A 
ATOM      3  C   UNL     1      21.767  45.435  62.527  0.00  0.00    +0.019 A 
ATOM     38  C   UNL     1      20.389  45.904  62.534  0.00  0.00    +0.120 A 
ATOM     39  N   UNL     1      19.607  45.776  61.391  0.00  0.00    -0.263 NA
ATOM     40  C   UNL     1      20.092  45.204  60.205  0.00  0.00    +0.111 A 
ENDBRANCH   4   3
ENDBRANCH  10   9
BRANCH  12  13
ATOM     13  N   UNL     1      25.403  43.667  70.502  0.00  0.00    -0.281 N 
ATOM     14  C   UNL     1      24.957  44.837  71.093  0.00  0.00    +0.248 C 
ATOM     30  O   UNL     1      25.136  45.955  70.633  0.00  0.00    -0.270 OA
ATOM     31  H   UNL     1      25.359  42.828  71.081  0.00  0.00    +0.155 HD
BRANCH  14  15
ATOM     15  C   UNL     1      24.216  44.756  72.388  0.00  0.00    +0.037 A 
ATOM     16  C   UNL     1      22.818  44.322  72.439  0.00  0.00    +0.013 A 
ATOM     17  C   UNL     1      22.122  44.268  73.700  0.00  0.00    +0.005 A 
ATOM     18  C   UNL     1      22.825  44.649  74.923  0.00  0.00    -0.033 A 
ATOM     28  C   UNL     1      24.214  45.070  74.845  0.00  0.00    +0.005 A 
ATOM     29  C   UNL     1      24.899  45.125  73.610  0.00  0.00    +0.013 A 
BRANCH  18  19
ATOM     19  C   UNL     1      22.155  44.642  76.309  0.00  0.00    +0.119 C 
BRANCH  19  20
ATOM     20  N   UNL     1      20.746  44.153  76.386  0.00  0.00    -0.302 NA
ATOM     21  C   UNL     1      19.736  45.304  76.353  0.00  0.00    +0.066 C 
ATOM     22  C   UNL     1      18.267  44.774  76.411  0.00  0.00    -0.064 C 
ATOM     23  N   UNL     1      18.082  43.927  77.672  0.00  0.00    +0.379 N 
ATOM     24  C   UNL     1      16.686  43.475  77.759  0.00  0.00    -0.096 C 
ATOM     25  H   UNL     1      18.282  44.583  78.551  0.00  0.00    -0.082 HD
ATOM     26  C   UNL     1      19.084  42.782  77.713  0.00  0.00    -0.064 C 
ATOM     27  C   UNL     1      20.541  43.318  77.626  0.00  0.00    +0.066 C 
ENDBRANCH  19  20
ENDBRANCH  18  19
ENDBRANCH  14  15
ENDBRANCH  12  13
TORSDOF 6
ENDMDL
MODEL 4
REMARK VINA RESULT:      -7.7     24.528     26.166
REMARK  Name = C:\Users\Docking\Desktop\test protocol\1iep_ligandH.pdb
REMARK  8 active torsions:
REMARK  status: ('A' for Active; 'I' for Inactive)
REMARK    1  A    between atoms: _5  and  _11
REMARK    2  A    between atoms: _19  and  _21
REMARK    3  A    between atoms: _22  and  _66
REMARK    4  A    between atoms: _27  and  _30
REMARK    5  A    between atoms: _32  and  _33
REMARK    6  A    between atoms: _38  and  _43
REMARK    7  A    between atoms: _43  and  _46
REMARK    8  A    between atoms: _53  and  _55
REMARK                            x       y       z     vdW  Elec       q    Type
REMARK                         _______ _______ _______ _____ _____    ______ ____
ROOT
ATOM     10  C   UNL     1      25.046   8.868  66.790  0.00  0.00    +0.038 A 
ATOM     11  C   UNL     1      23.943   9.044  65.916  0.00  0.00    +0.047 A 
ATOM     12  C   UNL     1      23.282   7.903  65.302  0.00  0.00    +0.035 A 
ATOM     32  C   UNL     1      23.768   6.598  65.602  0.00  0.00    +0.024 A 
ATOM     33  C   UNL     1      24.888   6.401  66.488  0.00  0.00    +0.007 A 
ATOM     34  C   UNL     1      25.547   7.522  67.095  0.00  0.00    -0.029 A 
ATOM     35  C   UNL     1      26.748   7.253  68.031  0.00  0.00    +0.045 C 
ENDROOT
BRANCH  10   9
ATOM      4  C   UNL     1      28.091  12.575  66.617  0.00  0.00    +0.077 A 
ATOM      5  C   UNL     1      28.549  12.214  65.306  0.00  0.00    +0.048 A 
ATOM      6  C   UNL     1      27.981  11.063  64.715  0.00  0.00    +0.116 A 
ATOM      7  N   UNL     1      27.026  10.336  65.392  0.00  0.00    -0.223 NA
ATOM      8  C   UNL     1      26.608  10.711  66.656  0.00  0.00    +0.220 A 
ATOM      9  N   UNL     1      25.644   9.999  67.353  0.00  0.00    -0.283 N 
ATOM     36  H   UNL     1      25.368  10.303  68.286  0.00  0.00    +0.155 HD
ATOM     37  N   UNL     1      27.137  11.805  67.243  0.00  0.00    -0.214 NA
BRANCH   4   3
ATOM      1  C   UNL     1      30.069  14.856  69.104  0.00  0.00    +0.020 A 
ATOM      2  C   UNL     1      29.619  13.675  68.404  0.00  0.00    +0.013 A 
ATOM      3  C   UNL     1      28.593  13.766  67.372  0.00  0.00    +0.019 A 
ATOM     38  C   UNL     1      28.041  15.077  67.070  0.00  0.00    +0.120 A 
ATOM     39  N   UNL     1      28.493  16.197  67.761  0.00  0.00    -0.263 NA
ATOM     40  C   UNL     1      29.478  16.121  68.757  0.00  0.00    +0.111 A 
ENDBRANCH   4   3
ENDBRANCH  10   9
BRANCH  12  13
ATOM     13  N   UNL     1      22.163   8.020  64.400  0.00  0.00    -0.281 N 
ATOM     14  C   UNL     1      20.834   8.254  64.716  0.00  0.00    +0.248 C 
ATOM     30  O   UNL     1      20.371   8.186  65.845  0.00  0.00    -0.270 OA
ATOM     31  H   UNL     1      22.375   7.918  63.407  0.00  0.00    +0.155 HD
BRANCH  14  15
ATOM     15  C   UNL     1      19.881   8.600  63.619  0.00  0.00    +0.037 A 
ATOM     16  C   UNL     1      19.271   7.560  62.787  0.00  0.00    +0.013 A 
ATOM     17  C   UNL     1      18.367   7.922  61.723  0.00  0.00    +0.005 A 
ATOM     18  C   UNL     1      18.067   9.332  61.488  0.00  0.00    -0.033 A 
ATOM     28  C   UNL     1      18.682  10.343  62.332  0.00  0.00    +0.005 A 
ATOM     29  C   UNL     1      19.569   9.992  63.374  0.00  0.00    +0.013 A 
BRANCH  18  19
ATOM     19  C   UNL     1      17.130   9.811  60.363  0.00  0.00    +0.119 C 
BRANCH  19  20
ATOM     20  N   UNL     1      17.209  11.251  59.974  0.00  0.00    -0.302 NA
ATOM     21  C   UNL     1      15.852  11.951  60.086  0.00  0.00    +0.066 C 
ATOM     22  C   UNL     1      15.957  13.462  59.697  0.00  0.00    -0.064 C 
ATOM     23  N   UNL     1      16.514  13.583  58.278  0.00  0.00    +0.379 N 
ATOM     24  C   UNL     1      16.560  15.000  57.888  0.00  0.00    -0.096 C 
ATOM     25  H   UNL     1      15.804  13.066  57.591  0.00  0.00    -0.082 HD
ATOM     26  C   UNL     1      17.863  12.887  58.157  0.00  0.00    -0.064 C 
ATOM     27  C   UNL     1      17.753  11.394  58.574  0.00  0.00    +0.066 C 
ENDBRANCH  19  20
ENDBRANCH  18  19
ENDBRANCH  14  15
ENDBRANCH  12  13
TORSDOF 6
ENDMDL
MODEL 5
REMARK VINA RESULT:      -7.7     20.962     24.713
REMARK  Name = C:\Users\Docking\Desktop\test protocol\1iep_ligandH.pdb
REMARK  8 active torsions:
REMARK  status: ('A' for Active; 'I' for Inactive)
REMARK    1  A    between atoms: _5  and  _11
REMARK    2  A    between atoms: _19  and  _21
REMARK    3  A    between atoms: _22  and  _66
REMARK    4  A    between atoms: _27  and  _30
REMARK    5  A    between atoms: _32  and  _33
REMARK    6  A    between atoms: _38  and  _43
REMARK    7  A    between atoms: _43  and  _46
REMARK    8  A    between atoms: _53  and  _55
REMARK                            x       y       z     vdW  Elec       q    Type
REMARK                         _______ _______ _______ _____ _____    ______ ____
ROOT
ATOM     10  C   UNL     1      24.116  44.711  73.510  0.00  0.00    +0.038 A 
ATOM     11  C   UNL     1      22.788  44.247  73.690  0.00  0.00    +0.047 A 
ATOM     12  C   UNL     1      21.957  44.749  74.774  0.00  0.00    +0.035 A 
ATOM     32  C   UNL     1      22.510  45.724  75.653  0.00  0.00    +0.024 A 
ATOM     33  C   UNL     1      23.858  46.206  75.485  0.00  0.00    +0.007 A 
ATOM     34  C   UNL     1      24.684  45.713  74.420  0.00  0.00    -0.029 A 
ATOM     35  C   UNL     1      26.125  46.260  74.291  0.00  0.00    +0.045 C 
ENDROOT
BRANCH  10   9
ATOM      4  C   UNL     1      25.447  44.643  68.899  0.00  0.00    +0.077 A 
ATOM      5  C   UNL     1      24.546  45.706  68.561  0.00  0.00    +0.048 A 
ATOM      6  C   UNL     1      23.752  46.239  69.602  0.00  0.00    +0.116 A 
ATOM      7  N   UNL     1      23.860  45.737  70.881  0.00  0.00    -0.223 NA
ATOM      8  C   UNL     1      24.739  44.709  71.172  0.00  0.00    +0.220 A 
ATOM      9  N   UNL     1      24.870  44.195  72.453  0.00  0.00    -0.283 N 
ATOM     36  H   UNL     1      25.524  43.432  72.625  0.00  0.00    +0.155 HD
ATOM     37  N   UNL     1      25.507  44.183  70.195  0.00  0.00    -0.214 NA
BRANCH   4   3
ATOM      1  C   UNL     1      27.137  41.980  66.585  0.00  0.00    +0.020 A 
ATOM      2  C   UNL     1      26.236  42.572  67.546  0.00  0.00    +0.013 A 
ATOM      3  C   UNL     1      26.354  43.979  67.910  0.00  0.00    +0.019 A 
ATOM     38  C   UNL     1      27.403  44.765  67.277  0.00  0.00    +0.120 A 
ATOM     39  N   UNL     1      28.257  44.167  66.355  0.00  0.00    -0.263 NA
ATOM     40  C   UNL     1      28.154  42.814  65.999  0.00  0.00    +0.111 A 
ENDBRANCH   4   3
ENDBRANCH  10   9
BRANCH  12  13
ATOM     13  N   UNL     1      20.604  44.309  75.011  0.00  0.00    -0.281 N 
ATOM     14  C   UNL     1      20.138  43.504  76.038  0.00  0.00    +0.248 C 
ATOM     30  O   UNL     1      20.854  42.862  76.792  0.00  0.00    -0.270 OA
ATOM     31  H   UNL     1      19.905  44.631  74.341  0.00  0.00    +0.155 HD
BRANCH  14  15
ATOM     15  C   UNL     1      18.663  43.385  76.249  0.00  0.00    +0.037 A 
ATOM     16  C   UNL     1      18.115  42.585  77.347  0.00  0.00    +0.013 A 
ATOM     17  C   UNL     1      16.688  42.473  77.518  0.00  0.00    +0.005 A 
ATOM     18  C   UNL     1      15.799  43.164  76.588  0.00  0.00    -0.033 A 
ATOM     28  C   UNL     1      16.370  43.956  75.511  0.00  0.00    +0.005 A 
ATOM     29  C   UNL     1      17.768  44.067  75.339  0.00  0.00    +0.013 A 
BRANCH  18  19
ATOM     19  C   UNL     1      14.264  43.083  76.682  0.00  0.00    +0.119 C 
BRANCH  19  20
ATOM     20  N   UNL     1      13.500  43.081  75.399  0.00  0.00    -0.302 NA
ATOM     21  C   UNL     1      12.692  44.369  75.210  0.00  0.00    +0.066 C 
ATOM     22  C   UNL     1      11.916  44.359  73.852  0.00  0.00    -0.064 C 
ATOM     23  N   UNL     1      11.003  43.134  73.798  0.00  0.00    +0.379 N 
ATOM     24  C   UNL     1      10.229  43.153  72.548  0.00  0.00    -0.096 C 
ATOM     25  H   UNL     1      10.281  43.213  74.644  0.00  0.00    -0.082 HD
ATOM     26  C   UNL     1      11.797  41.850  73.989  0.00  0.00    -0.064 C 
ATOM     27  C   UNL     1      12.587  41.882  75.327  0.00  0.00    +0.066 C 
ENDBRANCH  19  20
ENDBRANCH  18  19
ENDBRANCH  14  15
ENDBRANCH  12  13
TORSDOF 6
ENDMDL
