MODEL 1
REMARK VINA RESULT:      -8.5      0.000      0.000
REMARK  Name = C:\Users\Docking\Desktop\test protocol\1iep_ligandH.pdb
REMARK  8 active torsions:
REMARK  status: ('A' for Active; 'I' for Inactive)
REMARK    1  A    between atoms: _5  and  _11
REMARK    2  A    between atoms: _19  and  _21
REMARK    3  A    between atoms: _22  and  _66
REMARK    4  A    between atoms: _27  and  _30
REMARK    5  A    between atoms: _32  and  _33
REMARK    6  A    between atoms: _38  and  _43
REMARK    7  A    between atoms: _43  and  _46
REMARK    8  A    between atoms: _53  and  _55
REMARK                            x       y       z     vdW  Elec       q    Type
REMARK                         _______ _______ _______ _____ _____    ______ ____
ROOT
ATOM     10  C   UNL     1      -9.848  23.399  25.078  0.00  0.00    +0.038 A 
ATOM     11  C   UNL     1      -9.633  22.232  25.854  0.00  0.00    +0.047 A 
ATOM     12  C   UNL     1      -9.150  21.002  25.246  0.00  0.00    +0.035 A 
ATOM     32  C   UNL     1      -8.894  20.997  23.844  0.00  0.00    +0.024 A 
ATOM     33  C   UNL     1      -9.108  22.174  23.039  0.00  0.00    +0.007 A 
ATOM     34  C   UNL     1      -9.587  23.390  23.634  0.00  0.00    -0.029 A 
ATOM     35  C   UNL     1      -9.805  24.620  22.722  0.00  0.00    +0.045 C 
ENDROOT
BRANCH  10   9
ATOM      4  C   UNL     1     -13.352  26.453  26.276  0.00  0.00    +0.077 A 
ATOM      5  C   UNL     1     -14.336  25.701  25.551  0.00  0.00    +0.048 A 
ATOM      6  C   UNL     1     -13.898  24.539  24.877  0.00  0.00    +0.116 A 
ATOM      7  N   UNL     1     -12.572  24.165  24.932  0.00  0.00    -0.223 NA
ATOM      8  C   UNL     1     -11.649  24.914  25.639  0.00  0.00    +0.220 A 
ATOM      9  N   UNL     1     -10.313  24.553  25.714  0.00  0.00    -0.283 N 
ATOM     36  H   UNL     1      -9.662  25.135  26.240  0.00  0.00    +0.155 HD
ATOM     37  N   UNL     1     -12.042  26.029  26.289  0.00  0.00    -0.214 NA
BRANCH   4   3
ATOM      1  C   UNL     1     -13.446  29.197  29.062  0.00  0.00    +0.020 A 
ATOM      2  C   UNL     1     -13.117  27.974  28.366  0.00  0.00    +0.013 A 
ATOM      3  C   UNL     1     -13.661  27.702  27.041  0.00  0.00    +0.019 A 
ATOM     38  C   UNL     1     -14.540  28.695  26.444  0.00  0.00    +0.120 A 
ATOM     39  N   UNL     1     -14.841  29.863  27.138  0.00  0.00    -0.263 NA
ATOM     40  C   UNL     1     -14.325  30.135  28.414  0.00  0.00    +0.111 A 
ENDBRANCH   4   3
ENDBRANCH  10   9
BRANCH  12  13
ATOM     13  N   UNL     1      -8.921  19.783  25.982  0.00  0.00    -0.281 N 
ATOM     14  C   UNL     1      -7.710  19.171  26.259  0.00  0.00    +0.248 C 
ATOM     30  O   UNL     1      -6.648  19.468  25.731  0.00  0.00    -0.270 OA
ATOM     31  H   UNL     1      -9.753  19.315  26.342  0.00  0.00    +0.155 HD
BRANCH  14  15
ATOM     15  C   UNL     1      -7.674  18.060  27.258  0.00  0.00    +0.037 A 
ATOM     16  C   UNL     1      -8.906  17.417  27.723  0.00  0.00    +0.013 A 
ATOM     17  C   UNL     1      -8.845  16.358  28.699  0.00  0.00    +0.005 A 
ATOM     18  C   UNL     1      -7.546  15.935  29.216  0.00  0.00    -0.033 A 
ATOM     28  C   UNL     1      -6.340  16.586  28.734  0.00  0.00    +0.005 A 
ATOM     29  C   UNL     1      -6.395  17.625  27.778  0.00  0.00    +0.013 A 
BRANCH  18  19
ATOM     19  C   UNL     1      -7.388  14.828  30.276  0.00  0.00    +0.119 C 
BRANCH  19  20
ATOM     20  N   UNL     1      -8.321  14.858  31.441  0.00  0.00    -0.302 NA
ATOM     21  C   UNL     1      -8.187  16.150  32.251  0.00  0.00    +0.066 C 
ATOM     22  C   UNL     1      -9.186  16.175  33.453  0.00  0.00    -0.064 C 
ATOM     23  N   UNL     1      -8.944  14.952  34.339  0.00  0.00    +0.379 N 
ATOM     24  C   UNL     1      -9.843  15.002  35.502  0.00  0.00    -0.096 C 
ATOM     25  H   UNL     1      -7.898  15.011  34.718  0.00  0.00    -0.082 HD
ATOM     26  C   UNL     1      -9.073  13.663  33.541  0.00  0.00    -0.064 C 
ATOM     27  C   UNL     1      -8.097  13.661  32.332  0.00  0.00    +0.066 C 
ENDBRANCH  19  20
ENDBRANCH  18  19
ENDBRANCH  14  15
ENDBRANCH  12  13
TORSDOF 6
ENDMDL
MODEL 2
REMARK VINA RESULT:      -8.3      9.361     14.148
REMARK  Name = C:\Users\Docking\Desktop\test protocol\1iep_ligandH.pdb
REMARK  8 active torsions:
REMARK  status: ('A' for Active; 'I' for Inactive)
REMARK    1  A    between atoms: _5  and  _11
REMARK    2  A    between atoms: _19  and  _21
REMARK    3  A    between atoms: _22  and  _66
REMARK    4  A    between atoms: _27  and  _30
REMARK    5  A    between atoms: _32  and  _33
REMARK    6  A    between atoms: _38  and  _43
REMARK    7  A    between atoms: _43  and  _46
REMARK    8  A    between atoms: _53  and  _55
REMARK                            x       y       z     vdW  Elec       q    Type
REMARK                         _______ _______ _______ _____ _____    ______ ____
ROOT
ATOM     10  C   UNL     1      -8.573  14.468  32.421  0.00  0.00    +0.038 A 
ATOM     11  C   UNL     1      -9.064  13.563  33.396  0.00  0.00    +0.047 A 
ATOM     12  C   UNL     1      -9.927  14.017  34.476  0.00  0.00    +0.035 A 
ATOM     32  C   UNL     1     -10.271  15.399  34.531  0.00  0.00    +0.024 A 
ATOM     33  C   UNL     1      -9.779  16.333  33.548  0.00  0.00    +0.007 A 
ATOM     34  C   UNL     1      -8.926  15.891  32.482  0.00  0.00    -0.029 A 
ATOM     35  C   UNL     1      -8.422  16.937  31.460  0.00  0.00    +0.045 C 
ENDROOT
BRANCH  10   9
ATOM      4  C   UNL     1      -4.253  13.727  30.463  0.00  0.00    +0.077 A 
ATOM      5  C   UNL     1      -3.584  14.397  31.541  0.00  0.00    +0.048 A 
ATOM      6  C   UNL     1      -4.389  14.924  32.576  0.00  0.00    +0.116 A 
ATOM      7  N   UNL     1      -5.759  14.786  32.527  0.00  0.00    -0.223 NA
ATOM      8  C   UNL     1      -6.372  14.135  31.472  0.00  0.00    +0.220 A 
ATOM      9  N   UNL     1      -7.748  13.978  31.406  0.00  0.00    -0.283 N 
ATOM     36  H   UNL     1      -8.163  13.498  30.607  0.00  0.00    +0.155 HD
ATOM     37  N   UNL     1      -5.626  13.625  30.470  0.00  0.00    -0.214 NA
BRANCH   4   3
ATOM      1  C   UNL     1      -2.871  13.054  26.866  0.00  0.00    +0.020 A 
ATOM      2  C   UNL     1      -3.578  13.685  27.957  0.00  0.00    +0.013 A 
ATOM      3  C   UNL     1      -3.541  13.114  29.298  0.00  0.00    +0.019 A 
ATOM     38  C   UNL     1      -2.773  11.895  29.502  0.00  0.00    +0.120 A 
ATOM     39  N   UNL     1      -2.105  11.309  28.432  0.00  0.00    -0.263 NA
ATOM     40  C   UNL     1      -2.134  11.848  27.138  0.00  0.00    +0.111 A 
ENDBRANCH   4   3
ENDBRANCH  10   9
BRANCH  12  13
ATOM     13  N   UNL     1     -10.450  13.146  35.500  0.00  0.00    -0.281 N 
ATOM     14  C   UNL     1     -11.532  12.286  35.415  0.00  0.00    +0.248 C 
ATOM     30  O   UNL     1     -12.350  12.292  34.507  0.00  0.00    -0.270 OA
ATOM     31  H   UNL     1      -9.963  13.167  36.396  0.00  0.00    +0.155 HD
BRANCH  14  15
ATOM     15  C   UNL     1     -11.745  11.283  36.502  0.00  0.00    +0.037 A 
ATOM     16  C   UNL     1     -12.379   9.991  36.231  0.00  0.00    +0.013 A 
ATOM     17  C   UNL     1     -12.588   9.048  37.302  0.00  0.00    +0.005 A 
ATOM     18  C   UNL     1     -12.160   9.396  38.655  0.00  0.00    -0.033 A 
ATOM     28  C   UNL     1     -11.529  10.683  38.895  0.00  0.00    +0.005 A 
ATOM     29  C   UNL     1     -11.324  11.610  37.848  0.00  0.00    +0.013 A 
BRANCH  18  19
ATOM     19  C   UNL     1     -12.362   8.461  39.862  0.00  0.00    +0.119 C 
BRANCH  19  20
ATOM     20  N   UNL     1     -11.472   8.666  41.043  0.00  0.00    -0.302 NA
ATOM     21  C   UNL     1     -10.670   7.407  41.384  0.00  0.00    +0.066 C 
ATOM     22  C   UNL     1      -9.727   7.646  42.608  0.00  0.00    -0.064 C 
ATOM     23  N   UNL     1     -10.559   8.101  43.808  0.00  0.00    +0.379 N 
ATOM     24  C   UNL     1      -9.683   8.271  44.976  0.00  0.00    -0.096 C 
ATOM     25  H   UNL     1     -11.284   7.287  44.044  0.00  0.00    -0.082 HD
ATOM     26  C   UNL     1     -11.361   9.351  43.477  0.00  0.00    -0.064 C 
ATOM     27  C   UNL     1     -12.273   9.111  42.241  0.00  0.00    +0.066 C 
ENDBRANCH  19  20
ENDBRANCH  18  19
ENDBRANCH  14  15
ENDBRANCH  12  13
TORSDOF 6
ENDMDL
MODEL 3
REMARK VINA RESULT:      -8.0      9.302     13.209
REMARK  Name = C:\Users\Docking\Desktop\test protocol\1iep_ligandH.pdb
REMARK  8 active torsions:
REMARK  status: ('A' for Active; 'I' for Inactive)
REMARK    1  A    between atoms: _5  and  _11
REMARK    2  A    between atoms: _19  and  _21
REMARK    3  A    between atoms: _22  and  _66
REMARK    4  A    between atoms: _27  and  _30
REMARK    5  A    between atoms: _32  and  _33
REMARK    6  A    between atoms: _38  and  _43
REMARK    7  A    between atoms: _43  and  _46
REMARK    8  A    between atoms: _53  and  _55
REMARK                            x       y       z     vdW  Elec       q    Type
REMARK                         _______ _______ _______ _____ _____    ______ ____
ROOT
ATOM     10  C   UNL     1      -8.624  15.086  32.907  0.00  0.00    +0.038 A 
ATOM     11  C   UNL     1      -9.308  13.866  33.141  0.00  0.00    +0.047 A 
ATOM     12  C   UNL     1      -9.970  13.606  34.409  0.00  0.00    +0.035 A 
ATOM     32  C   UNL     1      -9.919  14.612  35.417  0.00  0.00    +0.024 A 
ATOM     33  C   UNL     1      -9.228  15.858  35.197  0.00  0.00    +0.007 A 
ATOM     34  C   UNL     1      -8.570  16.119  33.948  0.00  0.00    -0.029 A 
ATOM     35  C   UNL     1      -7.839  17.470  33.770  0.00  0.00    +0.045 C 
ENDROOT
BRANCH  10   9
ATOM      4  C   UNL     1      -4.759  15.095  30.061  0.00  0.00    +0.077 A 
ATOM      5  C   UNL     1      -3.894  14.700  31.135  0.00  0.00    +0.048 A 
ATOM      6  C   UNL     1      -4.482  14.511  32.406  0.00  0.00    +0.116 A 
ATOM      7  N   UNL     1      -5.836  14.706  32.578  0.00  0.00    -0.223 NA
ATOM      8  C   UNL     1      -6.641  15.089  31.521  0.00  0.00    +0.220 A 
ATOM      9  N   UNL     1      -8.006  15.284  31.670  0.00  0.00    -0.283 N 
ATOM     36  H   UNL     1      -8.564  15.573  30.868  0.00  0.00    +0.155 HD
ATOM     37  N   UNL     1      -6.103  15.277  30.298  0.00  0.00    -0.214 NA
BRANCH   4   3
ATOM      1  C   UNL     1      -3.656  16.835  26.736  0.00  0.00    +0.020 A 
ATOM      2  C   UNL     1      -4.114  16.663  28.095  0.00  0.00    +0.013 A 
ATOM      3  C   UNL     1      -4.287  15.330  28.660  0.00  0.00    +0.019 A 
ATOM     38  C   UNL     1      -3.984  14.184  27.816  0.00  0.00    +0.120 A 
ATOM     39  N   UNL     1      -3.546  14.381  26.511  0.00  0.00    -0.263 NA
ATOM     40  C   UNL     1      -3.377  15.658  25.956  0.00  0.00    +0.111 A 
ENDBRANCH   4   3
ENDBRANCH  10   9
BRANCH  12  13
ATOM     13  N   UNL     1     -10.673  12.382  34.707  0.00  0.00    -0.281 N 
ATOM     14  C   UNL     1     -12.014  12.224  35.016  0.00  0.00    +0.248 C 
ATOM     30  O   UNL     1     -12.772  13.141  35.294  0.00  0.00    -0.270 OA
ATOM     31  H   UNL     1     -10.113  11.529  34.687  0.00  0.00    +0.155 HD
BRANCH  14  15
ATOM     15  C   UNL     1     -12.593  10.846  35.033  0.00  0.00    +0.037 A 
ATOM     16  C   UNL     1     -12.352   9.934  36.153  0.00  0.00    +0.013 A 
ATOM     17  C   UNL     1     -12.908   8.604  36.136  0.00  0.00    +0.005 A 
ATOM     18  C   UNL     1     -13.714   8.179  34.994  0.00  0.00    -0.033 A 
ATOM     28  C   UNL     1     -13.942   9.107  33.898  0.00  0.00    +0.005 A 
ATOM     29  C   UNL     1     -13.397  10.410  33.911  0.00  0.00    +0.013 A 
BRANCH  18  19
ATOM     19  C   UNL     1     -14.329   6.772  34.881  0.00  0.00    +0.119 C 
BRANCH  19  20
ATOM     20  N   UNL     1     -13.406   5.647  34.545  0.00  0.00    -0.302 NA
ATOM     21  C   UNL     1     -12.862   4.956  35.798  0.00  0.00    +0.066 C 
ATOM     22  C   UNL     1     -11.916   3.768  35.428  0.00  0.00    -0.064 C 
ATOM     23  N   UNL     1     -10.772   4.284  34.553  0.00  0.00    +0.379 N 
ATOM     24  C   UNL     1      -9.849   3.180  34.251  0.00  0.00    -0.096 C 
ATOM     25  H   UNL     1     -10.209   5.042  35.146  0.00  0.00    -0.082 HD
ATOM     26  C   UNL     1     -11.304   4.975  33.306  0.00  0.00    -0.064 C 
ATOM     27  C   UNL     1     -12.266   6.135  33.685  0.00  0.00    +0.066 C 
ENDBRANCH  19  20
ENDBRANCH  18  19
ENDBRANCH  14  15
ENDBRANCH  12  13
TORSDOF 6
ENDMDL
MODEL 4
REMARK VINA RESULT:      -8.0      3.451     12.335
REMARK  Name = C:\Users\Docking\Desktop\test protocol\1iep_ligandH.pdb
REMARK  8 active torsions:
REMARK  status: ('A' for Active; 'I' for Inactive)
REMARK    1  A    between atoms: _5  and  _11
REMARK    2  A    between atoms: _19  and  _21
REMARK    3  A    between atoms: _22  and  _66
REMARK    4  A    between atoms: _27  and  _30
REMARK    5  A    between atoms: _32  and  _33
REMARK    6  A    between atoms: _38  and  _43
REMARK    7  A    between atoms: _43  and  _46
REMARK    8  A    between atoms: _53  and  _55
REMARK                            x       y       z     vdW  Elec       q    Type
REMARK                         _______ _______ _______ _____ _____    ______ ____
ROOT
ATOM     10  C   UNL     1      -7.244  16.152  29.231  0.00  0.00    +0.038 A 
ATOM     11  C   UNL     1      -7.681  17.305  28.531  0.00  0.00    +0.047 A 
ATOM     12  C   UNL     1      -6.755  18.100  27.738  0.00  0.00    +0.035 A 
ATOM     32  C   UNL     1      -5.392  17.689  27.678  0.00  0.00    +0.024 A 
ATOM     33  C   UNL     1      -4.930  16.520  28.384  0.00  0.00    +0.007 A 
ATOM     34  C   UNL     1      -5.838  15.733  29.170  0.00  0.00    -0.029 A 
ATOM     35  C   UNL     1      -5.286  14.493  29.911  0.00  0.00    +0.045 C 
ENDROOT
BRANCH  10   9
ATOM      4  C   UNL     1      -9.641  15.256  33.291  0.00  0.00    +0.077 A 
ATOM      5  C   UNL     1      -8.961  16.306  33.994  0.00  0.00    +0.048 A 
ATOM      6  C   UNL     1      -7.997  17.049  33.276  0.00  0.00    +0.116 A 
ATOM      7  N   UNL     1      -7.740  16.754  31.955  0.00  0.00    -0.223 NA
ATOM      8  C   UNL     1      -8.412  15.734  31.308  0.00  0.00    +0.220 A 
ATOM      9  N   UNL     1      -8.175  15.426  29.977  0.00  0.00    -0.283 N 
ATOM     36  H   UNL     1      -8.686  14.661  29.538  0.00  0.00    +0.155 HD
ATOM     37  N   UNL     1      -9.337  15.009  31.971  0.00  0.00    -0.214 NA
BRANCH   4   3
ATOM      1  C   UNL     1     -11.680  13.120  35.856  0.00  0.00    +0.020 A 
ATOM      2  C   UNL     1     -10.642  13.960  35.306  0.00  0.00    +0.013 A 
ATOM      3  C   UNL     1     -10.689  14.386  33.912  0.00  0.00    +0.019 A 
ATOM     38  C   UNL     1     -11.809  13.940  33.097  0.00  0.00    +0.120 A 
ATOM     39  N   UNL     1     -12.793  13.130  33.655  0.00  0.00    -0.263 NA
ATOM     40  C   UNL     1     -12.757  12.713  34.994  0.00  0.00    +0.111 A 
ENDBRANCH   4   3
ENDBRANCH  10   9
BRANCH  12  13
ATOM     13  N   UNL     1      -7.140  19.285  27.012  0.00  0.00    -0.281 N 
ATOM     14  C   UNL     1      -7.609  19.373  25.712  0.00  0.00    +0.248 C 
ATOM     30  O   UNL     1      -7.568  18.461  24.899  0.00  0.00    -0.270 OA
ATOM     31  H   UNL     1      -7.055  20.166  27.519  0.00  0.00    +0.155 HD
BRANCH  14  15
ATOM     15  C   UNL     1      -8.197  20.664  25.242  0.00  0.00    +0.037 A 
ATOM     16  C   UNL     1      -9.483  21.145  25.753  0.00  0.00    +0.013 A 
ATOM     17  C   UNL     1     -10.035  22.385  25.271  0.00  0.00    +0.005 A 
ATOM     18  C   UNL     1      -9.300  23.155  24.270  0.00  0.00    -0.033 A 
ATOM     28  C   UNL     1      -8.024  22.658  23.784  0.00  0.00    +0.005 A 
ATOM     29  C   UNL     1      -7.480  21.442  24.254  0.00  0.00    +0.013 A 
BRANCH  18  19
ATOM     19  C   UNL     1      -9.823  24.480  23.683  0.00  0.00    +0.119 C 
BRANCH  19  20
ATOM     20  N   UNL     1     -10.599  24.403  22.409  0.00  0.00    -0.302 NA
ATOM     21  C   UNL     1      -9.777  24.873  21.206  0.00  0.00    +0.066 C 
ATOM     22  C   UNL     1     -10.596  24.765  19.879  0.00  0.00    -0.064 C 
ATOM     23  N   UNL     1     -11.882  25.584  20.009  0.00  0.00    +0.379 N 
ATOM     24  C   UNL     1     -12.627  25.532  18.743  0.00  0.00    -0.096 C 
ATOM     25  H   UNL     1     -11.590  26.645  20.187  0.00  0.00    -0.082 HD
ATOM     26  C   UNL     1     -12.705  25.125  21.205  0.00  0.00    -0.064 C 
ATOM     27  C   UNL     1     -11.871  25.208  22.514  0.00  0.00    +0.066 C 
ENDBRANCH  19  20
ENDBRANCH  18  19
ENDBRANCH  14  15
ENDBRANCH  12  13
TORSDOF 6
ENDMDL
MODEL 5
REMARK VINA RESULT:      -8.0      8.117     17.683
REMARK  Name = C:\Users\Docking\Desktop\test protocol\1iep_ligandH.pdb
REMARK  8 active torsions:
REMARK  status: ('A' for Active; 'I' for Inactive)
REMARK    1  A    between atoms: _5  and  _11
REMARK    2  A    between atoms: _19  and  _21
REMARK    3  A    between atoms: _22  and  _66
REMARK    4  A    between atoms: _27  and  _30
REMARK    5  A    between atoms: _32  and  _33
REMARK    6  A    between atoms: _38  and  _43
REMARK    7  A    between atoms: _43  and  _46
REMARK    8  A    between atoms: _53  and  _55
REMARK                            x       y       z     vdW  Elec       q    Type
REMARK                         _______ _______ _______ _____ _____    ______ ____
ROOT
ATOM     10  C   UNL     1     -11.932   9.132  38.526  0.00  0.00    +0.038 A 
ATOM     11  C   UNL     1     -11.373  10.196  37.773  0.00  0.00    +0.047 A 
ATOM     12  C   UNL     1     -11.888  10.538  36.457  0.00  0.00    +0.035 A 
ATOM     32  C   UNL     1     -12.976   9.777  35.938  0.00  0.00    +0.024 A 
ATOM     33  C   UNL     1     -13.556   8.692  36.689  0.00  0.00    +0.007 A 
ATOM     34  C   UNL     1     -13.050   8.348  37.988  0.00  0.00    -0.029 A 
ATOM     35  C   UNL     1     -13.706   7.171  38.745  0.00  0.00    +0.045 C 
ENDROOT
BRANCH  10   9
ATOM      4  C   UNL     1     -11.763   9.730  43.285  0.00  0.00    +0.077 A 
ATOM      5  C   UNL     1     -12.807  10.713  43.259  0.00  0.00    +0.048 A 
ATOM      6  C   UNL     1     -13.356  11.042  41.999  0.00  0.00    +0.116 A 
ATOM      7  N   UNL     1     -12.889  10.427  40.858  0.00  0.00    -0.223 NA
ATOM      8  C   UNL     1     -11.879   9.484  40.919  0.00  0.00    +0.220 A 
ATOM      9  N   UNL     1     -11.399   8.847  39.785  0.00  0.00    -0.283 N 
ATOM     36  H   UNL     1     -10.648   8.163  39.871  0.00  0.00    +0.155 HD
ATOM     37  N   UNL     1     -11.337   9.154  42.110  0.00  0.00    -0.214 NA
BRANCH   4   3
ATOM      1  C   UNL     1      -9.825   9.703  46.683  0.00  0.00    +0.020 A 
ATOM      2  C   UNL     1     -10.467  10.195  45.486  0.00  0.00    +0.013 A 
ATOM      3  C   UNL     1     -11.085   9.274  44.540  0.00  0.00    +0.019 A 
ATOM     38  C   UNL     1     -11.035   7.851  44.837  0.00  0.00    +0.120 A 
ATOM     39  N   UNL     1     -10.409   7.406  45.997  0.00  0.00    -0.263 NA
ATOM     40  C   UNL     1      -9.810   8.282  46.915  0.00  0.00    +0.111 A 
ENDBRANCH   4   3
ENDBRANCH  10   9
BRANCH  12  13
ATOM     13  N   UNL     1     -11.355  11.602  35.643  0.00  0.00    -0.281 N 
ATOM     14  C   UNL     1     -11.507  12.968  35.819  0.00  0.00    +0.248 C 
ATOM     30  O   UNL     1     -12.308  13.480  36.588  0.00  0.00    -0.270 OA
ATOM     31  H   UNL     1     -10.798  11.314  34.838  0.00  0.00    +0.155 HD
BRANCH  14  15
ATOM     15  C   UNL     1     -10.658  13.899  35.016  0.00  0.00    +0.037 A 
ATOM     16  C   UNL     1      -9.643  13.393  34.089  0.00  0.00    +0.013 A 
ATOM     17  C   UNL     1      -8.825  14.314  33.339  0.00  0.00    +0.005 A 
ATOM     18  C   UNL     1      -9.021  15.751  33.513  0.00  0.00    -0.033 A 
ATOM     28  C   UNL     1     -10.039  16.226  34.435  0.00  0.00    +0.005 A 
ATOM     29  C   UNL     1     -10.842  15.326  35.173  0.00  0.00    +0.013 A 
BRANCH  18  19
ATOM     19  C   UNL     1      -8.180  16.806  32.770  0.00  0.00    +0.119 C 
BRANCH  19  20
ATOM     20  N   UNL     1      -8.321  16.870  31.284  0.00  0.00    -0.302 NA
ATOM     21  C   UNL     1      -9.762  16.616  30.832  0.00  0.00    +0.066 C 
ATOM     22  C   UNL     1      -9.895  16.709  29.277  0.00  0.00    -0.064 C 
ATOM     23  N   UNL     1      -8.939  15.708  28.625  0.00  0.00    +0.379 N 
ATOM     24  C   UNL     1      -9.103  15.752  27.165  0.00  0.00    -0.096 C 
ATOM     25  H   UNL     1      -9.231  14.689  28.968  0.00  0.00    -0.082 HD
ATOM     26  C   UNL     1      -7.504  15.952  29.072  0.00  0.00    -0.064 C 
ATOM     27  C   UNL     1      -7.388  15.887  30.620  0.00  0.00    +0.066 C 
ENDBRANCH  19  20
ENDBRANCH  18  19
ENDBRANCH  14  15
ENDBRANCH  12  13
TORSDOF 6
ENDMDL
