MODEL 1
REMARK VINA RESULT:      -7.5      0.000      0.000
REMARK  Name = C:\Users\Docking\Desktop\test protocol\1iep_ligandH.pdb
REMARK  8 active torsions:
REMARK  status: ('A' for Active; 'I' for Inactive)
REMARK    1  A    between atoms: _5  and  _11
REMARK    2  A    between atoms: _19  and  _21
REMARK    3  A    between atoms: _22  and  _66
REMARK    4  A    between atoms: _27  and  _30
REMARK    5  A    between atoms: _32  and  _33
REMARK    6  A    between atoms: _38  and  _43
REMARK    7  A    between atoms: _43  and  _46
REMARK    8  A    between atoms: _53  and  _55
REMARK                            x       y       z     vdW  Elec       q    Type
REMARK                         _______ _______ _______ _____ _____    ______ ____
ROOT
ATOM     10  C   UNL     1     -11.715  -6.919  74.879  0.00  0.00    +0.038 A 
ATOM     11  C   UNL     1     -11.307  -6.177  73.741  0.00  0.00    +0.047 A 
ATOM     12  C   UNL     1     -11.751  -6.543  72.405  0.00  0.00    +0.035 A 
ATOM     32  C   UNL     1     -12.613  -7.670  72.265  0.00  0.00    +0.024 A 
ATOM     33  C   UNL     1     -13.037  -8.436  73.410  0.00  0.00    +0.007 A 
ATOM     34  C   UNL     1     -12.600  -8.081  74.730  0.00  0.00    -0.029 A 
ATOM     35  C   UNL     1     -13.081  -8.942  75.921  0.00  0.00    +0.045 C 
ENDROOT
BRANCH  10   9
ATOM      4  C   UNL     1     -12.306  -4.679  79.083  0.00  0.00    +0.077 A 
ATOM      5  C   UNL     1     -13.624  -4.237  78.729  0.00  0.00    +0.048 A 
ATOM      6  C   UNL     1     -14.111  -4.602  77.454  0.00  0.00    +0.116 A 
ATOM      7  N   UNL     1     -13.328  -5.353  76.603  0.00  0.00    -0.223 NA
ATOM      8  C   UNL     1     -12.060  -5.761  76.975  0.00  0.00    +0.220 A 
ATOM      9  N   UNL     1     -11.259  -6.523  76.138  0.00  0.00    -0.283 N 
ATOM     36  H   UNL     1     -10.327  -6.798  76.446  0.00  0.00    +0.155 HD
ATOM     37  N   UNL     1     -11.572  -5.424  78.187  0.00  0.00    -0.214 NA
BRANCH   4   3
ATOM      1  C   UNL     1     -10.403  -5.053  82.480  0.00  0.00    +0.020 A 
ATOM      2  C   UNL     1     -11.019  -5.398  81.219  0.00  0.00    +0.013 A 
ATOM      3  C   UNL     1     -11.653  -4.376  80.396  0.00  0.00    +0.019 A 
ATOM     38  C   UNL     1     -11.646  -3.004  80.880  0.00  0.00    +0.120 A 
ATOM     39  N   UNL     1     -11.046  -2.702  82.099  0.00  0.00    -0.263 NA
ATOM     40  C   UNL     1     -10.434  -3.677  82.900  0.00  0.00    +0.111 A 
ENDBRANCH   4   3
ENDBRANCH  10   9
BRANCH  12  13
ATOM     13  N   UNL     1     -11.363  -5.832  71.212  0.00  0.00    -0.281 N 
ATOM     14  C   UNL     1     -10.263  -6.064  70.403  0.00  0.00    +0.248 C 
ATOM     30  O   UNL     1      -9.323  -6.785  70.703  0.00  0.00    -0.270 OA
ATOM     31  H   UNL     1     -11.973  -5.065  70.930  0.00  0.00    +0.155 HD
BRANCH  14  15
ATOM     15  C   UNL     1     -10.188  -5.384  69.074  0.00  0.00    +0.037 A 
ATOM     16  C   UNL     1     -10.751  -6.004  67.871  0.00  0.00    +0.013 A 
ATOM     17  C   UNL     1     -10.650  -5.334  66.598  0.00  0.00    +0.005 A 
ATOM     18  C   UNL     1      -9.985  -4.036  66.523  0.00  0.00    -0.033 A 
ATOM     28  C   UNL     1      -9.441  -3.442  67.732  0.00  0.00    +0.005 A 
ATOM     29  C   UNL     1      -9.537  -4.095  68.981  0.00  0.00    +0.013 A 
BRANCH  18  19
ATOM     19  C   UNL     1      -9.814  -3.260  65.203  0.00  0.00    +0.119 C 
BRANCH  19  20
ATOM     20  N   UNL     1     -10.527  -3.787  64.002  0.00  0.00    -0.302 NA
ATOM     21  C   UNL     1      -9.589  -4.558  63.069  0.00  0.00    +0.066 C 
ATOM     22  C   UNL     1     -10.356  -5.122  61.829  0.00  0.00    -0.064 C 
ATOM     23  N   UNL     1     -11.033  -3.970  61.085  0.00  0.00    +0.379 N 
ATOM     24  C   UNL     1     -11.707  -4.490  59.886  0.00  0.00    -0.096 C 
ATOM     25  H   UNL     1     -10.234  -3.270  60.747  0.00  0.00    -0.082 HD
ATOM     26  C   UNL     1     -11.966  -3.196  62.006  0.00  0.00    -0.064 C 
ATOM     27  C   UNL     1     -11.200  -2.666  63.249  0.00  0.00    +0.066 C 
ENDBRANCH  19  20
ENDBRANCH  18  19
ENDBRANCH  14  15
ENDBRANCH  12  13
TORSDOF 6
ENDMDL
MODEL 2
REMARK VINA RESULT:      -7.4      1.642      2.306
REMARK  Name = C:\Users\Docking\Desktop\test protocol\1iep_ligandH.pdb
REMARK  8 active torsions:
REMARK  status: ('A' for Active; 'I' for Inactive)
REMARK    1  A    between atoms: _5  and  _11
REMARK    2  A    between atoms: _19  and  _21
REMARK    3  A    between atoms: _22  and  _66
REMARK    4  A    between atoms: _27  and  _30
REMARK    5  A    between atoms: _32  and  _33
REMARK    6  A    between atoms: _38  and  _43
REMARK    7  A    between atoms: _43  and  _46
REMARK    8  A    between atoms: _53  and  _55
REMARK                            x       y       z     vdW  Elec       q    Type
REMARK                         _______ _______ _______ _____ _____    ______ ____
ROOT
ATOM     10  C   UNL     1     -11.699  -6.924  74.867  0.00  0.00    +0.038 A 
ATOM     11  C   UNL     1     -11.319  -6.189  73.716  0.00  0.00    +0.047 A 
ATOM     12  C   UNL     1     -11.781  -6.572  72.391  0.00  0.00    +0.035 A 
ATOM     32  C   UNL     1     -12.633  -7.710  72.276  0.00  0.00    +0.024 A 
ATOM     33  C   UNL     1     -13.028  -8.469  73.436  0.00  0.00    +0.007 A 
ATOM     34  C   UNL     1     -12.573  -8.097  74.745  0.00  0.00    -0.029 A 
ATOM     35  C   UNL     1     -13.024  -8.952  75.952  0.00  0.00    +0.045 C 
ENDROOT
BRANCH  10   9
ATOM      4  C   UNL     1     -12.243  -4.651  79.060  0.00  0.00    +0.077 A 
ATOM      5  C   UNL     1     -13.572  -4.228  78.726  0.00  0.00    +0.048 A 
ATOM      6  C   UNL     1     -14.076  -4.610  77.462  0.00  0.00    +0.116 A 
ATOM      7  N   UNL     1     -13.300  -5.360  76.605  0.00  0.00    -0.223 NA
ATOM      8  C   UNL     1     -12.021  -5.750  76.958  0.00  0.00    +0.220 A 
ATOM      9  N   UNL     1     -11.226  -6.511  76.115  0.00  0.00    -0.283 N 
ATOM     36  H   UNL     1     -10.285  -6.772  76.409  0.00  0.00    +0.155 HD
ATOM     37  N   UNL     1     -11.516  -5.397  78.158  0.00  0.00    -0.214 NA
BRANCH   4   3
ATOM      1  C   UNL     1     -10.645  -2.708  82.056  0.00  0.00    +0.020 A 
ATOM      2  C   UNL     1     -11.296  -2.965  80.791  0.00  0.00    +0.013 A 
ATOM      3  C   UNL     1     -11.572  -4.329  80.359  0.00  0.00    +0.019 A 
ATOM     38  C   UNL     1     -11.174  -5.420  81.237  0.00  0.00    +0.120 A 
ATOM     39  N   UNL     1     -10.548  -5.142  82.448  0.00  0.00    -0.263 NA
ATOM     40  C   UNL     1     -10.276  -3.834  82.873  0.00  0.00    +0.111 A 
ENDBRANCH   4   3
ENDBRANCH  10   9
BRANCH  12  13
ATOM     13  N   UNL     1     -11.421  -5.869  71.185  0.00  0.00    -0.281 N 
ATOM     14  C   UNL     1     -10.309  -6.066  70.384  0.00  0.00    +0.248 C 
ATOM     30  O   UNL     1      -9.339  -6.737  70.702  0.00  0.00    -0.270 OA
ATOM     31  H   UNL     1     -12.065  -5.136  70.886  0.00  0.00    +0.155 HD
BRANCH  14  15
ATOM     15  C   UNL     1     -10.261  -5.411  69.041  0.00  0.00    +0.037 A 
ATOM     16  C   UNL     1     -10.790  -6.079  67.850  0.00  0.00    +0.013 A 
ATOM     17  C   UNL     1     -10.715  -5.432  66.564  0.00  0.00    +0.005 A 
ATOM     18  C   UNL     1     -10.110  -4.106  66.464  0.00  0.00    -0.033 A 
ATOM     28  C   UNL     1      -9.597  -3.464  67.663  0.00  0.00    +0.005 A 
ATOM     29  C   UNL     1      -9.668  -4.095  68.924  0.00  0.00    +0.013 A 
BRANCH  18  19
ATOM     19  C   UNL     1      -9.969  -3.350  65.130  0.00  0.00    +0.119 C 
BRANCH  19  20
ATOM     20  N   UNL     1      -8.592  -2.953  64.711  0.00  0.00    -0.302 NA
ATOM     21  C   UNL     1      -8.591  -2.203  63.375  0.00  0.00    +0.066 C 
ATOM     22  C   UNL     1      -7.144  -1.776  62.963  0.00  0.00    -0.064 C 
ATOM     23  N   UNL     1      -6.251  -3.016  62.889  0.00  0.00    +0.379 N 
ATOM     24  C   UNL     1      -4.905  -2.625  62.445  0.00  0.00    -0.096 C 
ATOM     25  H   UNL     1      -6.679  -3.694  62.115  0.00  0.00    -0.082 HD
ATOM     26  C   UNL     1      -6.248  -3.769  64.212  0.00  0.00    -0.064 C 
ATOM     27  C   UNL     1      -7.693  -4.163  64.627  0.00  0.00    +0.066 C 
ENDBRANCH  19  20
ENDBRANCH  18  19
ENDBRANCH  14  15
ENDBRANCH  12  13
TORSDOF 6
ENDMDL
MODEL 3
REMARK VINA RESULT:      -7.2     38.656     43.992
REMARK  Name = C:\Users\Docking\Desktop\test protocol\1iep_ligandH.pdb
REMARK  8 active torsions:
REMARK  status: ('A' for Active; 'I' for Inactive)
REMARK    1  A    between atoms: _5  and  _11
REMARK    2  A    between atoms: _19  and  _21
REMARK    3  A    between atoms: _22  and  _66
REMARK    4  A    between atoms: _27  and  _30
REMARK    5  A    between atoms: _32  and  _33
REMARK    6  A    between atoms: _38  and  _43
REMARK    7  A    between atoms: _43  and  _46
REMARK    8  A    between atoms: _53  and  _55
REMARK                            x       y       z     vdW  Elec       q    Type
REMARK                         _______ _______ _______ _____ _____    ______ ____
ROOT
ATOM     10  C   UNL     1       4.999   5.849  37.404  0.00  0.00    +0.038 A 
ATOM     11  C   UNL     1       5.359   6.948  36.584  0.00  0.00    +0.047 A 
ATOM     12  C   UNL     1       5.562   8.273  37.149  0.00  0.00    +0.035 A 
ATOM     32  C   UNL     1       5.392   8.442  38.554  0.00  0.00    +0.024 A 
ATOM     33  C   UNL     1       5.025   7.336  39.402  0.00  0.00    +0.007 A 
ATOM     34  C   UNL     1       4.821   6.027  38.850  0.00  0.00    -0.029 A 
ATOM     35  C   UNL     1       4.422   4.878  39.806  0.00  0.00    +0.045 C 
ENDROOT
BRANCH  10   9
ATOM      4  C   UNL     1       6.659   1.630  35.826  0.00  0.00    +0.077 A 
ATOM      5  C   UNL     1       8.006   1.956  36.194  0.00  0.00    +0.048 A 
ATOM      6  C   UNL     1       8.231   3.222  36.780  0.00  0.00    +0.116 A 
ATOM      7  N   UNL     1       7.179   4.089  36.979  0.00  0.00    -0.223 NA
ATOM      8  C   UNL     1       5.891   3.745  36.611  0.00  0.00    +0.220 A 
ATOM      9  N   UNL     1       4.817   4.598  36.809  0.00  0.00    -0.283 N 
ATOM     36  H   UNL     1       3.884   4.310  36.517  0.00  0.00    +0.155 HD
ATOM     37  N   UNL     1       5.651   2.542  36.048  0.00  0.00    -0.214 NA
BRANCH   4   3
ATOM      1  C   UNL     1       5.308  -1.043  33.310  0.00  0.00    +0.020 A 
ATOM      2  C   UNL     1       5.674   0.238  33.869  0.00  0.00    +0.013 A 
ATOM      3  C   UNL     1       6.261   0.330  35.200  0.00  0.00    +0.019 A 
ATOM     38  C   UNL     1       6.466  -0.903  35.945  0.00  0.00    +0.120 A 
ATOM     39  N   UNL     1       6.102  -2.122  35.381  0.00  0.00    -0.263 NA
ATOM     40  C   UNL     1       5.535  -2.223  34.102  0.00  0.00    +0.111 A 
ENDBRANCH   4   3
ENDBRANCH  10   9
BRANCH  12  13
ATOM     13  N   UNL     1       5.921   9.429  36.365  0.00  0.00    -0.281 N 
ATOM     14  C   UNL     1       5.880  10.761  36.743  0.00  0.00    +0.248 C 
ATOM     30  O   UNL     1       5.322  11.177  37.748  0.00  0.00    -0.270 OA
ATOM     31  H   UNL     1       6.244   9.243  35.415  0.00  0.00    +0.155 HD
BRANCH  14  15
ATOM     15  C   UNL     1       6.541  11.780  35.872  0.00  0.00    +0.037 A 
ATOM     16  C   UNL     1       5.841  13.000  35.464  0.00  0.00    +0.013 A 
ATOM     17  C   UNL     1       6.496  13.959  34.609  0.00  0.00    +0.005 A 
ATOM     18  C   UNL     1       7.861  13.700  34.158  0.00  0.00    -0.033 A 
ATOM     28  C   UNL     1       8.534  12.484  34.583  0.00  0.00    +0.005 A 
ATOM     29  C   UNL     1       7.895  11.542  35.419  0.00  0.00    +0.013 A 
BRANCH  18  19
ATOM     19  C   UNL     1       8.630  14.657  33.228  0.00  0.00    +0.119 C 
BRANCH  19  20
ATOM     20  N   UNL     1      10.107  14.761  33.423  0.00  0.00    -0.302 NA
ATOM     21  C   UNL     1      10.563  16.212  33.602  0.00  0.00    +0.066 C 
ATOM     22  C   UNL     1      12.107  16.300  33.827  0.00  0.00    -0.064 C 
ATOM     23  N   UNL     1      12.830  15.647  32.648  0.00  0.00    +0.379 N 
ATOM     24  C   UNL     1      14.283  15.779  32.829  0.00  0.00    -0.096 C 
ATOM     25  H   UNL     1      12.551  16.209  31.727  0.00  0.00    -0.082 HD
ATOM     26  C   UNL     1      12.381  14.204  32.461  0.00  0.00    -0.064 C 
ATOM     27  C   UNL     1      10.841  14.125  32.267  0.00  0.00    +0.066 C 
ENDBRANCH  19  20
ENDBRANCH  18  19
ENDBRANCH  14  15
ENDBRANCH  12  13
TORSDOF 6
ENDMDL
MODEL 4
REMARK VINA RESULT:      -6.4     39.422     43.865
REMARK  Name = C:\Users\Docking\Desktop\test protocol\1iep_ligandH.pdb
REMARK  8 active torsions:
REMARK  status: ('A' for Active; 'I' for Inactive)
REMARK    1  A    between atoms: _5  and  _11
REMARK    2  A    between atoms: _19  and  _21
REMARK    3  A    between atoms: _22  and  _66
REMARK    4  A    between atoms: _27  and  _30
REMARK    5  A    between atoms: _32  and  _33
REMARK    6  A    between atoms: _38  and  _43
REMARK    7  A    between atoms: _43  and  _46
REMARK    8  A    between atoms: _53  and  _55
REMARK                            x       y       z     vdW  Elec       q    Type
REMARK                         _______ _______ _______ _____ _____    ______ ____
ROOT
ATOM     10  C   UNL     1       6.313   3.251  37.037  0.00  0.00    +0.038 A 
ATOM     11  C   UNL     1       6.382   4.563  36.502  0.00  0.00    +0.047 A 
ATOM     12  C   UNL     1       6.904   5.670  37.288  0.00  0.00    +0.035 A 
ATOM     32  C   UNL     1       7.349   5.405  38.616  0.00  0.00    +0.024 A 
ATOM     33  C   UNL     1       7.285   4.078  39.176  0.00  0.00    +0.007 A 
ATOM     34  C   UNL     1       6.769   2.982  38.406  0.00  0.00    -0.029 A 
ATOM     35  C   UNL     1       6.718   1.582  39.061  0.00  0.00    +0.045 C 
ENDROOT
BRANCH  10   9
ATOM      4  C   UNL     1       6.874  -0.469  34.057  0.00  0.00    +0.077 A 
ATOM      5  C   UNL     1       8.303  -0.342  34.073  0.00  0.00    +0.048 A 
ATOM      6  C   UNL     1       8.854   0.698  34.855  0.00  0.00    +0.116 A 
ATOM      7  N   UNL     1       8.027   1.542  35.564  0.00  0.00    -0.223 NA
ATOM      8  C   UNL     1       6.653   1.393  35.526  0.00  0.00    +0.220 A 
ATOM      9  N   UNL     1       5.803   2.226  36.238  0.00  0.00    -0.283 N 
ATOM     36  H   UNL     1       4.795   2.087  36.178  0.00  0.00    +0.155 HD
ATOM     37  N   UNL     1       6.103   0.408  34.786  0.00  0.00    -0.214 NA
BRANCH   4   3
ATOM      1  C   UNL     1       5.871  -3.047  31.292  0.00  0.00    +0.020 A 
ATOM      2  C   UNL     1       6.615  -2.031  32.001  0.00  0.00    +0.013 A 
ATOM      3  C   UNL     1       6.143  -1.521  33.282  0.00  0.00    +0.019 A 
ATOM     38  C   UNL     1       4.907  -2.064  33.823  0.00  0.00    +0.120 A 
ATOM     39  N   UNL     1       4.211  -3.041  33.118  0.00  0.00    -0.263 NA
ATOM     40  C   UNL     1       4.654  -3.539  31.883  0.00  0.00    +0.111 A 
ENDBRANCH   4   3
ENDBRANCH  10   9
BRANCH  12  13
ATOM     13  N   UNL     1       6.991   7.024  36.801  0.00  0.00    -0.281 N 
ATOM     14  C   UNL     1       6.027   8.018  36.870  0.00  0.00    +0.248 C 
ATOM     30  O   UNL     1       4.859   7.827  37.172  0.00  0.00    -0.270 OA
ATOM     31  H   UNL     1       7.869   7.282  36.351  0.00  0.00    +0.155 HD
BRANCH  14  15
ATOM     15  C   UNL     1       6.415   9.423  36.540  0.00  0.00    +0.037 A 
ATOM     16  C   UNL     1       5.630  10.561  37.026  0.00  0.00    +0.013 A 
ATOM     17  C   UNL     1       6.016  11.906  36.680  0.00  0.00    +0.005 A 
ATOM     18  C   UNL     1       7.195  12.120  35.843  0.00  0.00    -0.033 A 
ATOM     28  C   UNL     1       7.958  10.973  35.380  0.00  0.00    +0.005 A 
ATOM     29  C   UNL     1       7.582   9.653  35.716  0.00  0.00    +0.013 A 
BRANCH  18  19
ATOM     19  C   UNL     1       7.668  13.519  35.407  0.00  0.00    +0.119 C 
BRANCH  19  20
ATOM     20  N   UNL     1       8.820  13.587  34.459  0.00  0.00    -0.302 NA
ATOM     21  C   UNL     1       9.779  14.731  34.800  0.00  0.00    +0.066 C 
ATOM     22  C   UNL     1      10.989  14.773  33.812  0.00  0.00    -0.064 C 
ATOM     23  N   UNL     1      10.470  14.910  32.380  0.00  0.00    +0.379 N 
ATOM     24  C   UNL     1      11.608  15.009  31.453  0.00  0.00    -0.096 C 
ATOM     25  H   UNL     1       9.900  15.866  32.318  0.00  0.00    -0.082 HD
ATOM     26  C   UNL     1       9.514  13.778  32.033  0.00  0.00    -0.064 C 
ATOM     27  C   UNL     1       8.330  13.727  33.038  0.00  0.00    +0.066 C 
ENDBRANCH  19  20
ENDBRANCH  18  19
ENDBRANCH  14  15
ENDBRANCH  12  13
TORSDOF 6
ENDMDL
MODEL 5
REMARK VINA RESULT:      -6.4     46.872     58.644
REMARK  Name = C:\Users\Docking\Desktop\test protocol\1iep_ligandH.pdb
REMARK  8 active torsions:
REMARK  status: ('A' for Active; 'I' for Inactive)
REMARK    1  A    between atoms: _5  and  _11
REMARK    2  A    between atoms: _19  and  _21
REMARK    3  A    between atoms: _22  and  _66
REMARK    4  A    between atoms: _27  and  _30
REMARK    5  A    between atoms: _32  and  _33
REMARK    6  A    between atoms: _38  and  _43
REMARK    7  A    between atoms: _43  and  _46
REMARK    8  A    between atoms: _53  and  _55
REMARK                            x       y       z     vdW  Elec       q    Type
REMARK                         _______ _______ _______ _____ _____    ______ ____
ROOT
ATOM     10  C   UNL     1       6.084  -0.181  15.363  0.00  0.00    +0.038 A 
ATOM     11  C   UNL     1       6.385  -0.066  16.744  0.00  0.00    +0.047 A 
ATOM     12  C   UNL     1       5.781  -0.957  17.722  0.00  0.00    +0.035 A 
ATOM     32  C   UNL     1       4.877  -1.957  17.258  0.00  0.00    +0.024 A 
ATOM     33  C   UNL     1       4.559  -2.087  15.857  0.00  0.00    +0.007 A 
ATOM     34  C   UNL     1       5.150  -1.209  14.888  0.00  0.00    -0.029 A 
ATOM     35  C   UNL     1       4.768  -1.390  13.401  0.00  0.00    +0.045 C 
ENDROOT
BRANCH  10   9
ATOM      4  C   UNL     1       9.674   1.069  12.432  0.00  0.00    +0.077 A 
ATOM      5  C   UNL     1      10.411  -0.125  12.730  0.00  0.00    +0.048 A 
ATOM      6  C   UNL     1       9.836  -1.031  13.648  0.00  0.00    +0.116 A 
ATOM      7  N   UNL     1       8.612  -0.755  14.219  0.00  0.00    -0.223 NA
ATOM      8  C   UNL     1       7.928   0.407  13.911  0.00  0.00    +0.220 A 
ATOM      9  N   UNL     1       6.693   0.702  14.467  0.00  0.00    -0.283 N 
ATOM     36  H   UNL     1       6.223   1.573  14.220  0.00  0.00    +0.155 HD
ATOM     37  N   UNL     1       8.457   1.289  13.038  0.00  0.00    -0.214 NA
BRANCH   4   3
ATOM      1  C   UNL     1      11.737   2.998   9.726  0.00  0.00    +0.020 A 
ATOM      2  C   UNL     1      11.321   1.951  10.629  0.00  0.00    +0.013 A 
ATOM      3  C   UNL     1      10.149   2.121  11.479  0.00  0.00    +0.019 A 
ATOM     38  C   UNL     1       9.414   3.374  11.388  0.00  0.00    +0.120 A 
ATOM     39  N   UNL     1       9.839   4.366  10.510  0.00  0.00    -0.263 NA
ATOM     40  C   UNL     1      10.966   4.213   9.689  0.00  0.00    +0.111 A 
ENDBRANCH   4   3
ENDBRANCH  10   9
BRANCH  12  13
ATOM     13  N   UNL     1       6.041  -0.883  19.138  0.00  0.00    -0.281 N 
ATOM     14  C   UNL     1       6.914  -1.657  19.885  0.00  0.00    +0.248 C 
ATOM     30  O   UNL     1       7.449  -2.680  19.482  0.00  0.00    -0.270 OA
ATOM     31  H   UNL     1       5.519  -0.174  19.652  0.00  0.00    +0.155 HD
BRANCH  14  15
ATOM     15  C   UNL     1       7.227  -1.244  21.287  0.00  0.00    +0.037 A 
ATOM     16  C   UNL     1       8.609  -1.178  21.769  0.00  0.00    +0.013 A 
ATOM     17  C   UNL     1       8.882  -0.793  23.131  0.00  0.00    +0.005 A 
ATOM     18  C   UNL     1       7.770  -0.469  24.021  0.00  0.00    -0.033 A 
ATOM     28  C   UNL     1       6.409  -0.538  23.515  0.00  0.00    +0.005 A 
ATOM     29  C   UNL     1       6.137  -0.916  22.181  0.00  0.00    +0.013 A 
BRANCH  18  19
ATOM     19  C   UNL     1       7.966  -0.068  25.495  0.00  0.00    +0.119 C 
BRANCH  19  20
ATOM     20  N   UNL     1       7.861  -1.152  26.517  0.00  0.00    -0.302 NA
ATOM     21  C   UNL     1       6.466  -1.782  26.544  0.00  0.00    +0.066 C 
ATOM     22  C   UNL     1       6.379  -2.928  27.604  0.00  0.00    -0.064 C 
ATOM     23  N   UNL     1       6.750  -2.375  28.981  0.00  0.00    +0.379 N 
ATOM     24  C   UNL     1       6.614  -3.437  29.989  0.00  0.00    -0.096 C 
ATOM     25  H   UNL     1       6.017  -1.574  29.232  0.00  0.00    -0.082 HD
ATOM     26  C   UNL     1       8.135  -1.744  28.963  0.00  0.00    -0.064 C 
ATOM     27  C   UNL     1       8.219  -0.626  27.886  0.00  0.00    +0.066 C 
ENDBRANCH  19  20
ENDBRANCH  18  19
ENDBRANCH  14  15
ENDBRANCH  12  13
TORSDOF 6
ENDMDL
