MODEL 1
REMARK VINA RESULT:      -8.0      0.000      0.000
REMARK  Name = C:\Users\Docking\Desktop\test protocol\1iep_ligandH.pdb
REMARK  8 active torsions:
REMARK  status: ('A' for Active; 'I' for Inactive)
REMARK    1  A    between atoms: _5  and  _11
REMARK    2  A    between atoms: _19  and  _21
REMARK    3  A    between atoms: _22  and  _66
REMARK    4  A    between atoms: _27  and  _30
REMARK    5  A    between atoms: _32  and  _33
REMARK    6  A    between atoms: _38  and  _43
REMARK    7  A    between atoms: _43  and  _46
REMARK    8  A    between atoms: _53  and  _55
REMARK                            x       y       z     vdW  Elec       q    Type
REMARK                         _______ _______ _______ _____ _____    ______ ____
ROOT
ATOM     10  C   UNL     1      -7.235  15.432  30.041  0.00  0.00    +0.038 A 
ATOM     11  C   UNL     1      -8.045  14.983  31.115  0.00  0.00    +0.047 A 
ATOM     12  C   UNL     1      -8.780  15.923  31.947  0.00  0.00    +0.035 A 
ATOM     32  C   UNL     1      -8.670  17.313  31.654  0.00  0.00    +0.024 A 
ATOM     33  C   UNL     1      -7.851  17.787  30.567  0.00  0.00    +0.007 A 
ATOM     34  C   UNL     1      -7.121  16.865  29.744  0.00  0.00    -0.029 A 
ATOM     35  C   UNL     1      -6.253  17.429  28.596  0.00  0.00    +0.045 C 
ENDROOT
BRANCH  10   9
ATOM      4  C   UNL     1      -3.533  12.471  29.288  0.00  0.00    +0.077 A 
ATOM      5  C   UNL     1      -2.895  12.862  30.512  0.00  0.00    +0.048 A 
ATOM      6  C   UNL     1      -3.548  13.833  31.303  0.00  0.00    +0.116 A 
ATOM      7  N   UNL     1      -4.751  14.366  30.891  0.00  0.00    -0.223 NA
ATOM      8  C   UNL     1      -5.338  13.968  29.704  0.00  0.00    +0.220 A 
ATOM      9  N   UNL     1      -6.550  14.485  29.275  0.00  0.00    -0.283 N 
ATOM     36  H   UNL     1      -6.947  14.171  28.389  0.00  0.00    +0.155 HD
ATOM     37  N   UNL     1      -4.733  13.043  28.930  0.00  0.00    -0.214 NA
BRANCH   4   3
ATOM      1  C   UNL     1      -1.316  10.704  26.593  0.00  0.00    +0.020 A 
ATOM      2  C   UNL     1      -1.823  11.721  27.485  0.00  0.00    +0.013 A 
ATOM      3  C   UNL     1      -2.967  11.454  28.346  0.00  0.00    +0.019 A 
ATOM     38  C   UNL     1      -3.581  10.136  28.281  0.00  0.00    +0.120 A 
ATOM     39  N   UNL     1      -3.071   9.176  27.412  0.00  0.00    -0.263 NA
ATOM     40  C   UNL     1      -1.971   9.423  26.577  0.00  0.00    +0.111 A 
ENDBRANCH   4   3
ENDBRANCH  10   9
BRANCH  12  13
ATOM     13  N   UNL     1      -9.611  15.526  33.056  0.00  0.00    -0.281 N 
ATOM     14  C   UNL     1     -10.987  15.359  33.073  0.00  0.00    +0.248 C 
ATOM     30  O   UNL     1     -11.739  15.734  32.186  0.00  0.00    -0.270 OA
ATOM     31  H   UNL     1      -9.128  15.347  33.936  0.00  0.00    +0.155 HD
BRANCH  14  15
ATOM     15  C   UNL     1     -11.619  14.692  34.251  0.00  0.00    +0.037 A 
ATOM     16  C   UNL     1     -12.827  13.876  34.105  0.00  0.00    +0.013 A 
ATOM     17  C   UNL     1     -13.426  13.258  35.261  0.00  0.00    +0.005 A 
ATOM     18  C   UNL     1     -12.816  13.451  36.574  0.00  0.00    -0.033 A 
ATOM     28  C   UNL     1     -11.614  14.260  36.690  0.00  0.00    +0.005 A 
ATOM     29  C   UNL     1     -11.024  14.869  35.559  0.00  0.00    +0.013 A 
BRANCH  18  19
ATOM     19  C   UNL     1     -13.399  12.846  37.865  0.00  0.00    +0.119 C 
BRANCH  19  20
ATOM     20  N   UNL     1     -13.236  11.375  38.065  0.00  0.00    -0.302 NA
ATOM     21  C   UNL     1     -13.196  10.998  39.549  0.00  0.00    +0.066 C 
ATOM     22  C   UNL     1     -13.048   9.453  39.739  0.00  0.00    -0.064 C 
ATOM     23  N   UNL     1     -11.784   8.973  39.024  0.00  0.00    +0.379 N 
ATOM     24  C   UNL     1     -11.611   7.530  39.250  0.00  0.00    -0.096 C 
ATOM     25  H   UNL     1     -10.915   9.495  39.487  0.00  0.00    -0.082 HD
ATOM     26  C   UNL     1     -11.815   9.346  37.549  0.00  0.00    -0.064 C 
ATOM     27  C   UNL     1     -11.992  10.880  37.370  0.00  0.00    +0.066 C 
ENDBRANCH  19  20
ENDBRANCH  18  19
ENDBRANCH  14  15
ENDBRANCH  12  13
TORSDOF 6
ENDMDL
MODEL 2
REMARK VINA RESULT:      -7.9      1.710      1.994
REMARK  Name = C:\Users\Docking\Desktop\test protocol\1iep_ligandH.pdb
REMARK  8 active torsions:
REMARK  status: ('A' for Active; 'I' for Inactive)
REMARK    1  A    between atoms: _5  and  _11
REMARK    2  A    between atoms: _19  and  _21
REMARK    3  A    between atoms: _22  and  _66
REMARK    4  A    between atoms: _27  and  _30
REMARK    5  A    between atoms: _32  and  _33
REMARK    6  A    between atoms: _38  and  _43
REMARK    7  A    between atoms: _43  and  _46
REMARK    8  A    between atoms: _53  and  _55
REMARK                            x       y       z     vdW  Elec       q    Type
REMARK                         _______ _______ _______ _____ _____    ______ ____
ROOT
ATOM     10  C   UNL     1      -5.536  15.852  31.107  0.00  0.00    +0.038 A 
ATOM     11  C   UNL     1      -6.499  15.496  32.086  0.00  0.00    +0.047 A 
ATOM     12  C   UNL     1      -7.753  16.223  32.208  0.00  0.00    +0.035 A 
ATOM     32  C   UNL     1      -7.995  17.306  31.313  0.00  0.00    +0.024 A 
ATOM     33  C   UNL     1      -7.027  17.682  30.313  0.00  0.00    +0.007 A 
ATOM     34  C   UNL     1      -5.787  16.970  30.190  0.00  0.00    -0.029 A 
ATOM     35  C   UNL     1      -4.783  17.421  29.104  0.00  0.00    +0.045 C 
ENDROOT
BRANCH  10   9
ATOM      4  C   UNL     1      -2.970  12.089  29.592  0.00  0.00    +0.077 A 
ATOM      5  C   UNL     1      -4.096  11.521  28.908  0.00  0.00    +0.048 A 
ATOM      6  C   UNL     1      -5.319  12.225  28.977  0.00  0.00    +0.116 A 
ATOM      7  N   UNL     1      -5.399  13.408  29.680  0.00  0.00    -0.223 NA
ATOM      8  C   UNL     1      -4.294  13.927  30.330  0.00  0.00    +0.220 A 
ATOM      9  N   UNL     1      -4.349  15.119  31.035  0.00  0.00    -0.283 N 
ATOM     36  H   UNL     1      -3.514  15.465  31.507  0.00  0.00    +0.155 HD
ATOM     37  N   UNL     1      -3.115  13.273  30.280  0.00  0.00    -0.214 NA
BRANCH   4   3
ATOM      1  C   UNL     1      -0.049   9.510  29.937  0.00  0.00    +0.020 A 
ATOM      2  C   UNL     1      -1.384  10.063  29.935  0.00  0.00    +0.013 A 
ATOM      3  C   UNL     1      -1.609  11.466  29.610  0.00  0.00    +0.019 A 
ATOM     38  C   UNL     1      -0.452  12.288  29.288  0.00  0.00    +0.120 A 
ATOM     39  N   UNL     1       0.822  11.728  29.299  0.00  0.00    -0.263 NA
ATOM     40  C   UNL     1       1.050  10.380  29.612  0.00  0.00    +0.111 A 
ENDBRANCH   4   3
ENDBRANCH  10   9
BRANCH  12  13
ATOM     13  N   UNL     1      -8.765  15.913  33.187  0.00  0.00    -0.281 N 
ATOM     14  C   UNL     1     -10.109  15.657  32.972  0.00  0.00    +0.248 C 
ATOM     30  O   UNL     1     -10.692  15.869  31.919  0.00  0.00    -0.270 OA
ATOM     31  H   UNL     1      -8.451  15.876  34.157  0.00  0.00    +0.155 HD
BRANCH  14  15
ATOM     15  C   UNL     1     -10.927  15.101  34.092  0.00  0.00    +0.037 A 
ATOM     16  C   UNL     1     -12.193  14.408  33.837  0.00  0.00    +0.013 A 
ATOM     17  C   UNL     1     -12.971  13.895  34.937  0.00  0.00    +0.005 A 
ATOM     18  C   UNL     1     -12.483  14.073  36.303  0.00  0.00    -0.033 A 
ATOM     28  C   UNL     1     -11.222  14.759  36.527  0.00  0.00    +0.005 A 
ATOM     29  C   UNL     1     -10.457  15.264  35.451  0.00  0.00    +0.013 A 
BRANCH  18  19
ATOM     19  C   UNL     1     -13.258  13.577  37.538  0.00  0.00    +0.119 C 
BRANCH  19  20
ATOM     20  N   UNL     1     -13.211  12.114  37.833  0.00  0.00    -0.302 NA
ATOM     21  C   UNL     1     -13.266  11.829  39.337  0.00  0.00    +0.066 C 
ATOM     22  C   UNL     1     -13.238  10.293  39.626  0.00  0.00    -0.064 C 
ATOM     23  N   UNL     1     -11.981   9.682  39.005  0.00  0.00    +0.379 N 
ATOM     24  C   UNL     1     -11.922   8.248  39.325  0.00  0.00    -0.096 C 
ATOM     25  H   UNL     1     -11.098  10.171  39.479  0.00  0.00    -0.082 HD
ATOM     26  C   UNL     1     -11.917   9.963  37.510  0.00  0.00    -0.064 C 
ATOM     27  C   UNL     1     -11.975  11.491  37.232  0.00  0.00    +0.066 C 
ENDBRANCH  19  20
ENDBRANCH  18  19
ENDBRANCH  14  15
ENDBRANCH  12  13
TORSDOF 6
ENDMDL
MODEL 3
REMARK VINA RESULT:      -7.8      8.956     16.231
REMARK  Name = C:\Users\Docking\Desktop\test protocol\1iep_ligandH.pdb
REMARK  8 active torsions:
REMARK  status: ('A' for Active; 'I' for Inactive)
REMARK    1  A    between atoms: _5  and  _11
REMARK    2  A    between atoms: _19  and  _21
REMARK    3  A    between atoms: _22  and  _66
REMARK    4  A    between atoms: _27  and  _30
REMARK    5  A    between atoms: _32  and  _33
REMARK    6  A    between atoms: _38  and  _43
REMARK    7  A    between atoms: _43  and  _46
REMARK    8  A    between atoms: _53  and  _55
REMARK                            x       y       z     vdW  Elec       q    Type
REMARK                         _______ _______ _______ _____ _____    ______ ____
ROOT
ATOM     10  C   UNL     1      -3.395  17.985  26.182  0.00  0.00    +0.038 A 
ATOM     11  C   UNL     1      -2.877  19.292  25.994  0.00  0.00    +0.047 A 
ATOM     12  C   UNL     1      -2.250  19.680  24.740  0.00  0.00    +0.035 A 
ATOM     32  C   UNL     1      -2.170  18.712  23.697  0.00  0.00    +0.024 A 
ATOM     33  C   UNL     1      -2.690  17.378  23.872  0.00  0.00    +0.007 A 
ATOM     34  C   UNL     1      -3.307  16.990  25.108  0.00  0.00    -0.029 A 
ATOM     35  C   UNL     1      -3.842  15.545  25.241  0.00  0.00    +0.045 C 
ENDROOT
BRANCH  10   9
ATOM      4  C   UNL     1      -7.212  17.607  29.067  0.00  0.00    +0.077 A 
ATOM      5  C   UNL     1      -8.099  18.111  28.058  0.00  0.00    +0.048 A 
ATOM      6  C   UNL     1      -7.531  18.463  26.813  0.00  0.00    +0.116 A 
ATOM      7  N   UNL     1      -6.177  18.317  26.603  0.00  0.00    -0.223 NA
ATOM      8  C   UNL     1      -5.350  17.829  27.598  0.00  0.00    +0.220 A 
ATOM      9  N   UNL     1      -3.987  17.667  27.407  0.00  0.00    -0.283 N 
ATOM     36  H   UNL     1      -3.409  17.311  28.168  0.00  0.00    +0.155 HD
ATOM     37  N   UNL     1      -5.867  17.488  28.797  0.00  0.00    -0.214 NA
BRANCH   4   3
ATOM      1  C   UNL     1      -7.220  16.522  32.825  0.00  0.00    +0.020 A 
ATOM      2  C   UNL     1      -6.734  16.922  31.525  0.00  0.00    +0.013 A 
ATOM      3  C   UNL     1      -7.662  17.189  30.433  0.00  0.00    +0.019 A 
ATOM     38  C   UNL     1      -9.086  17.041  30.692  0.00  0.00    +0.120 A 
ATOM     39  N   UNL     1      -9.524  16.653  31.954  0.00  0.00    -0.263 NA
ATOM     40  C   UNL     1      -8.641  16.392  33.012  0.00  0.00    +0.111 A 
ENDBRANCH   4   3
ENDBRANCH  10   9
BRANCH  12  13
ATOM     13  N   UNL     1      -1.699  20.990  24.495  0.00  0.00    -0.281 N 
ATOM     14  C   UNL     1      -2.283  22.220  24.745  0.00  0.00    +0.248 C 
ATOM     30  O   UNL     1      -3.462  22.382  25.023  0.00  0.00    -0.270 OA
ATOM     31  H   UNL     1      -0.764  21.012  24.086  0.00  0.00    +0.155 HD
BRANCH  14  15
ATOM     15  C   UNL     1      -1.439  23.451  24.661  0.00  0.00    +0.037 A 
ATOM     16  C   UNL     1      -1.981  24.769  25.001  0.00  0.00    +0.013 A 
ATOM     17  C   UNL     1      -1.151  25.942  24.895  0.00  0.00    +0.005 A 
ATOM     18  C   UNL     1       0.233  25.802  24.446  0.00  0.00    -0.033 A 
ATOM     28  C   UNL     1       0.746  24.482  24.120  0.00  0.00    +0.005 A 
ATOM     29  C   UNL     1      -0.065  23.330  24.222  0.00  0.00    +0.013 A 
BRANCH  18  19
ATOM     19  C   UNL     1       1.185  27.002  24.283  0.00  0.00    +0.119 C 
BRANCH  19  20
ATOM     20  N   UNL     1       2.342  27.089  25.222  0.00  0.00    -0.302 NA
ATOM     21  C   UNL     1       1.897  27.395  26.655  0.00  0.00    +0.066 C 
ATOM     22  C   UNL     1       3.118  27.460  27.629  0.00  0.00    -0.064 C 
ATOM     23  N   UNL     1       4.107  28.516  27.132  0.00  0.00    +0.379 N 
ATOM     24  C   UNL     1       5.229  28.621  28.077  0.00  0.00    -0.096 C 
ATOM     25  H   UNL     1       3.578  29.497  27.124  0.00  0.00    -0.082 HD
ATOM     26  C   UNL     1       4.553  28.221  25.707  0.00  0.00    -0.064 C 
ATOM     27  C   UNL     1       3.329  28.129  24.753  0.00  0.00    +0.066 C 
ENDBRANCH  19  20
ENDBRANCH  18  19
ENDBRANCH  14  15
ENDBRANCH  12  13
TORSDOF 6
ENDMDL
MODEL 4
REMARK VINA RESULT:      -7.8      8.493     16.229
REMARK  Name = C:\Users\Docking\Desktop\test protocol\1iep_ligandH.pdb
REMARK  8 active torsions:
REMARK  status: ('A' for Active; 'I' for Inactive)
REMARK    1  A    between atoms: _5  and  _11
REMARK    2  A    between atoms: _19  and  _21
REMARK    3  A    between atoms: _22  and  _66
REMARK    4  A    between atoms: _27  and  _30
REMARK    5  A    between atoms: _32  and  _33
REMARK    6  A    between atoms: _38  and  _43
REMARK    7  A    between atoms: _43  and  _46
REMARK    8  A    between atoms: _53  and  _55
REMARK                            x       y       z     vdW  Elec       q    Type
REMARK                         _______ _______ _______ _____ _____    ______ ____
ROOT
ATOM     10  C   UNL     1      -4.241  17.194  27.224  0.00  0.00    +0.038 A 
ATOM     11  C   UNL     1      -3.624  18.449  26.988  0.00  0.00    +0.047 A 
ATOM     12  C   UNL     1      -2.859  18.696  25.776  0.00  0.00    +0.035 A 
ATOM     32  C   UNL     1      -2.743  17.642  24.824  0.00  0.00    +0.024 A 
ATOM     33  C   UNL     1      -3.362  16.360  25.048  0.00  0.00    +0.007 A 
ATOM     34  C   UNL     1      -4.117  16.110  26.242  0.00  0.00    -0.029 A 
ATOM     35  C   UNL     1      -4.754  14.713  26.433  0.00  0.00    +0.045 C 
ENDROOT
BRANCH  10   9
ATOM      4  C   UNL     1      -8.346  17.162  29.710  0.00  0.00    +0.077 A 
ATOM      5  C   UNL     1      -9.111  17.568  28.566  0.00  0.00    +0.048 A 
ATOM      6  C   UNL     1      -8.409  17.782  27.359  0.00  0.00    +0.116 A 
ATOM      7  N   UNL     1      -7.044  17.600  27.310  0.00  0.00    -0.223 NA
ATOM      8  C   UNL     1      -6.336  17.209  28.432  0.00  0.00    +0.220 A 
ATOM      9  N   UNL     1      -4.964  17.012  28.405  0.00  0.00    -0.283 N 
ATOM     36  H   UNL     1      -4.478  16.731  29.256  0.00  0.00    +0.155 HD
ATOM     37  N   UNL     1      -6.983  17.000  29.598  0.00  0.00    -0.214 NA
BRANCH   4   3
ATOM      1  C   UNL     1      -8.877  16.915  33.578  0.00  0.00    +0.020 A 
ATOM      2  C   UNL     1      -8.254  17.193  32.304  0.00  0.00    +0.013 A 
ATOM      3  C   UNL     1      -8.945  16.894  31.056  0.00  0.00    +0.019 A 
ATOM     38  C   UNL     1     -10.276  16.310  31.132  0.00  0.00    +0.120 A 
ATOM     39  N   UNL     1     -10.850  16.052  32.373  0.00  0.00    -0.263 NA
ATOM     40  C   UNL     1     -10.194  16.334  33.580  0.00  0.00    +0.111 A 
ENDBRANCH   4   3
ENDBRANCH  10   9
BRANCH  12  13
ATOM     13  N   UNL     1      -2.204  19.948  25.486  0.00  0.00    -0.281 N 
ATOM     14  C   UNL     1      -2.564  20.900  24.546  0.00  0.00    +0.248 C 
ATOM     30  O   UNL     1      -3.385  20.719  23.660  0.00  0.00    -0.270 OA
ATOM     31  H   UNL     1      -1.374  20.158  26.042  0.00  0.00    +0.155 HD
BRANCH  14  15
ATOM     15  C   UNL     1      -1.905  22.241  24.588  0.00  0.00    +0.037 A 
ATOM     16  C   UNL     1      -0.490  22.404  24.245  0.00  0.00    +0.013 A 
ATOM     17  C   UNL     1       0.124  23.706  24.310  0.00  0.00    +0.005 A 
ATOM     18  C   UNL     1      -0.677  24.857  24.718  0.00  0.00    -0.033 A 
ATOM     28  C   UNL     1      -2.080  24.667  25.048  0.00  0.00    +0.005 A 
ATOM     29  C   UNL     1      -2.686  23.392  24.987  0.00  0.00    +0.013 A 
BRANCH  18  19
ATOM     19  C   UNL     1      -0.099  26.279  24.836  0.00  0.00    +0.119 C 
BRANCH  19  20
ATOM     20  N   UNL     1       0.288  26.967  23.568  0.00  0.00    -0.302 NA
ATOM     21  C   UNL     1       1.346  28.049  23.801  0.00  0.00    +0.066 C 
ATOM     22  C   UNL     1       1.755  28.743  22.462  0.00  0.00    -0.064 C 
ATOM     23  N   UNL     1       0.512  29.336  21.797  0.00  0.00    +0.379 N 
ATOM     24  C   UNL     1       0.902  30.039  20.566  0.00  0.00    -0.096 C 
ATOM     25  H   UNL     1       0.082  30.090  22.496  0.00  0.00    -0.082 HD
ATOM     26  C   UNL     1      -0.547  28.267  21.563  0.00  0.00    -0.064 C 
ATOM     27  C   UNL     1      -0.925  27.563  22.897  0.00  0.00    +0.066 C 
ENDBRANCH  19  20
ENDBRANCH  18  19
ENDBRANCH  14  15
ENDBRANCH  12  13
TORSDOF 6
ENDMDL
MODEL 5
REMARK VINA RESULT:      -7.8      8.061     15.760
REMARK  Name = C:\Users\Docking\Desktop\test protocol\1iep_ligandH.pdb
REMARK  8 active torsions:
REMARK  status: ('A' for Active; 'I' for Inactive)
REMARK    1  A    between atoms: _5  and  _11
REMARK    2  A    between atoms: _19  and  _21
REMARK    3  A    between atoms: _22  and  _66
REMARK    4  A    between atoms: _27  and  _30
REMARK    5  A    between atoms: _32  and  _33
REMARK    6  A    between atoms: _38  and  _43
REMARK    7  A    between atoms: _43  and  _46
REMARK    8  A    between atoms: _53  and  _55
REMARK                            x       y       z     vdW  Elec       q    Type
REMARK                         _______ _______ _______ _____ _____    ______ ____
ROOT
ATOM     10  C   UNL     1      -5.247  17.050  27.038  0.00  0.00    +0.038 A 
ATOM     11  C   UNL     1      -4.578  18.282  26.823  0.00  0.00    +0.047 A 
ATOM     12  C   UNL     1      -3.471  18.383  25.884  0.00  0.00    +0.035 A 
ATOM     32  C   UNL     1      -3.073  17.210  25.180  0.00  0.00    +0.024 A 
ATOM     33  C   UNL     1      -3.742  15.949  25.387  0.00  0.00    +0.007 A 
ATOM     34  C   UNL     1      -4.833  15.843  26.313  0.00  0.00    -0.029 A 
ATOM     35  C   UNL     1      -5.508  14.464  26.499  0.00  0.00    +0.045 C 
ENDROOT
BRANCH  10   9
ATOM      4  C   UNL     1      -7.085  15.983  31.341  0.00  0.00    +0.077 A 
ATOM      5  C   UNL     1      -5.842  15.434  31.802  0.00  0.00    +0.048 A 
ATOM      6  C   UNL     1      -4.756  15.439  30.898  0.00  0.00    +0.116 A 
ATOM      7  N   UNL     1      -4.913  15.957  29.630  0.00  0.00    -0.223 NA
ATOM      8  C   UNL     1      -6.126  16.477  29.217  0.00  0.00    +0.220 A 
ATOM      9  N   UNL     1      -6.304  17.010  27.950  0.00  0.00    -0.283 N 
ATOM     36  H   UNL     1      -7.216  17.377  27.681  0.00  0.00    +0.155 HD
ATOM     37  N   UNL     1      -7.178  16.482  30.061  0.00  0.00    -0.214 NA
BRANCH   4   3
ATOM      1  C   UNL     1      -9.619  16.850  34.192  0.00  0.00    +0.020 A 
ATOM      2  C   UNL     1      -8.399  16.816  33.419  0.00  0.00    +0.013 A 
ATOM      3  C   UNL     1      -8.323  16.052  32.180  0.00  0.00    +0.019 A 
ATOM     38  C   UNL     1      -9.509  15.328  31.748  0.00  0.00    +0.120 A 
ATOM     39  N   UNL     1     -10.669  15.378  32.514  0.00  0.00    -0.263 NA
ATOM     40  C   UNL     1     -10.754  16.109  33.708  0.00  0.00    +0.111 A 
ENDBRANCH   4   3
ENDBRANCH  10   9
BRANCH  12  13
ATOM     13  N   UNL     1      -2.748  19.605  25.631  0.00  0.00    -0.281 N 
ATOM     14  C   UNL     1      -2.909  20.486  24.574  0.00  0.00    +0.248 C 
ATOM     30  O   UNL     1      -3.558  20.245  23.567  0.00  0.00    -0.270 OA
ATOM     31  H   UNL     1      -2.031  19.850  26.313  0.00  0.00    +0.155 HD
BRANCH  14  15
ATOM     15  C   UNL     1      -2.242  21.822  24.640  0.00  0.00    +0.037 A 
ATOM     16  C   UNL     1      -2.985  23.024  25.026  0.00  0.00    +0.013 A 
ATOM     17  C   UNL     1      -2.322  24.303  25.065  0.00  0.00    +0.005 A 
ATOM     18  C   UNL     1      -0.905  24.386  24.717  0.00  0.00    -0.033 A 
ATOM     28  C   UNL     1      -0.191  23.177  24.342  0.00  0.00    +0.005 A 
ATOM     29  C   UNL     1      -0.838  21.921  24.302  0.00  0.00    +0.013 A 
BRANCH  18  19
ATOM     19  C   UNL     1      -0.122  25.712  24.711  0.00  0.00    +0.119 C 
BRANCH  19  20
ATOM     20  N   UNL     1      -0.465  26.703  23.648  0.00  0.00    -0.302 NA
ATOM     21  C   UNL     1      -0.599  26.047  22.271  0.00  0.00    +0.066 C 
ATOM     22  C   UNL     1      -0.981  27.095  21.176  0.00  0.00    -0.064 C 
ATOM     23  N   UNL     1       0.073  28.204  21.146  0.00  0.00    +0.379 N 
ATOM     24  C   UNL     1      -0.252  29.160  20.078  0.00  0.00    -0.096 C 
ATOM     25  H   UNL     1       1.051  27.734  20.894  0.00  0.00    -0.082 HD
ATOM     26  C   UNL     1       0.215  28.860  22.512  0.00  0.00    -0.064 C 
ATOM     27  C   UNL     1       0.565  27.805  23.599  0.00  0.00    +0.066 C 
ENDBRANCH  19  20
ENDBRANCH  18  19
ENDBRANCH  14  15
ENDBRANCH  12  13
TORSDOF 6
ENDMDL
