MODEL 1
REMARK VINA RESULT:      -8.3      0.000      0.000
REMARK  Name = C:\Users\Docking\Desktop\test protocol\1iep_ligandH.pdb
REMARK  8 active torsions:
REMARK  status: ('A' for Active; 'I' for Inactive)
REMARK    1  A    between atoms: _5  and  _11
REMARK    2  A    between atoms: _19  and  _21
REMARK    3  A    between atoms: _22  and  _66
REMARK    4  A    between atoms: _27  and  _30
REMARK    5  A    between atoms: _32  and  _33
REMARK    6  A    between atoms: _38  and  _43
REMARK    7  A    between atoms: _43  and  _46
REMARK    8  A    between atoms: _53  and  _55
REMARK                            x       y       z     vdW  Elec       q    Type
REMARK                         _______ _______ _______ _____ _____    ______ ____
ROOT
ATOM     10  C   UNL     1     -11.933  22.722  25.475  0.00  0.00    +0.038 A 
ATOM     11  C   UNL     1     -12.094  24.051  25.944  0.00  0.00    +0.047 A 
ATOM     12  C   UNL     1     -12.935  25.003  25.235  0.00  0.00    +0.035 A 
ATOM     32  C   UNL     1     -13.600  24.566  24.052  0.00  0.00    +0.024 A 
ATOM     33  C   UNL     1     -13.447  23.220  23.561  0.00  0.00    +0.007 A 
ATOM     34  C   UNL     1     -12.617  22.277  24.254  0.00  0.00    -0.029 A 
ATOM     35  C   UNL     1     -12.484  20.848  23.678  0.00  0.00    +0.045 C 
ENDROOT
BRANCH  10   9
ATOM      4  C   UNL     1      -7.765  20.454  26.193  0.00  0.00    +0.077 A 
ATOM      5  C   UNL     1      -7.178  21.035  25.020  0.00  0.00    +0.048 A 
ATOM      6  C   UNL     1      -7.986  21.906  24.255  0.00  0.00    +0.116 A 
ATOM      7  N   UNL     1      -9.281  22.171  24.644  0.00  0.00    -0.223 NA
ATOM      8  C   UNL     1      -9.816  21.592  25.780  0.00  0.00    +0.220 A 
ATOM      9  N   UNL     1     -11.114  21.850  26.195  0.00  0.00    -0.283 N 
ATOM     36  H   UNL     1     -11.474  21.398  27.035  0.00  0.00    +0.155 HD
ATOM     37  N   UNL     1      -9.066  20.755  26.527  0.00  0.00    -0.214 NA
BRANCH   4   3
ATOM      1  C   UNL     1      -6.972  17.668  28.822  0.00  0.00    +0.020 A 
ATOM      2  C   UNL     1      -7.721  18.551  27.959  0.00  0.00    +0.013 A 
ATOM      3  C   UNL     1      -7.038  19.516  27.106  0.00  0.00    +0.019 A 
ATOM     38  C   UNL     1      -5.584  19.560  27.151  0.00  0.00    +0.120 A 
ATOM     39  N   UNL     1      -4.889  18.698  27.993  0.00  0.00    -0.263 NA
ATOM     40  C   UNL     1      -5.536  17.767  28.819  0.00  0.00    +0.111 A 
ENDBRANCH   4   3
ENDBRANCH  10   9
BRANCH  12  13
ATOM     13  N   UNL     1     -13.130  26.367  25.660  0.00  0.00    -0.281 N 
ATOM     14  C   UNL     1     -14.283  26.945  26.164  0.00  0.00    +0.248 C 
ATOM     30  O   UNL     1     -15.389  26.428  26.126  0.00  0.00    -0.270 OA
ATOM     31  H   UNL     1     -12.319  26.980  25.579  0.00  0.00    +0.155 HD
BRANCH  14  15
ATOM     15  C   UNL     1     -14.198  28.301  26.787  0.00  0.00    +0.037 A 
ATOM     16  C   UNL     1     -15.020  29.413  26.302  0.00  0.00    +0.013 A 
ATOM     17  C   UNL     1     -14.906  30.715  26.910  0.00  0.00    +0.005 A 
ATOM     18  C   UNL     1     -13.965  30.912  28.011  0.00  0.00    -0.033 A 
ATOM     28  C   UNL     1     -13.166  29.790  28.475  0.00  0.00    +0.005 A 
ATOM     29  C   UNL     1     -13.274  28.513  27.881  0.00  0.00    +0.013 A 
BRANCH  18  19
ATOM     19  C   UNL     1     -13.762  32.272  28.704  0.00  0.00    +0.119 C 
BRANCH  19  20
ATOM     20  N   UNL     1     -14.987  33.057  29.042  0.00  0.00    -0.302 NA
ATOM     21  C   UNL     1     -15.430  33.957  27.885  0.00  0.00    +0.066 C 
ATOM     22  C   UNL     1     -16.726  34.754  28.248  0.00  0.00    -0.064 C 
ATOM     23  N   UNL     1     -16.477  35.579  29.511  0.00  0.00    +0.379 N 
ATOM     24  C   UNL     1     -17.674  36.374  29.822  0.00  0.00    -0.096 C 
ATOM     25  H   UNL     1     -15.646  36.290  29.292  0.00  0.00    -0.082 HD
ATOM     26  C   UNL     1     -16.033  34.692  30.666  0.00  0.00    -0.064 C 
ATOM     27  C   UNL     1     -14.762  33.883  30.285  0.00  0.00    +0.066 C 
ENDBRANCH  19  20
ENDBRANCH  18  19
ENDBRANCH  14  15
ENDBRANCH  12  13
TORSDOF 6
ENDMDL
MODEL 2
REMARK VINA RESULT:      -8.3      3.349     13.958
REMARK  Name = C:\Users\Docking\Desktop\test protocol\1iep_ligandH.pdb
REMARK  8 active torsions:
REMARK  status: ('A' for Active; 'I' for Inactive)
REMARK    1  A    between atoms: _5  and  _11
REMARK    2  A    between atoms: _19  and  _21
REMARK    3  A    between atoms: _22  and  _66
REMARK    4  A    between atoms: _27  and  _30
REMARK    5  A    between atoms: _32  and  _33
REMARK    6  A    between atoms: _38  and  _43
REMARK    7  A    between atoms: _43  and  _46
REMARK    8  A    between atoms: _53  and  _55
REMARK                            x       y       z     vdW  Elec       q    Type
REMARK                         _______ _______ _______ _____ _____    ______ ____
ROOT
ATOM     10  C   UNL     1     -10.411  24.040  25.272  0.00  0.00    +0.038 A 
ATOM     11  C   UNL     1     -10.204  22.930  26.130  0.00  0.00    +0.047 A 
ATOM     12  C   UNL     1      -9.764  21.646  25.608  0.00  0.00    +0.035 A 
ATOM     32  C   UNL     1      -9.541  21.528  24.205  0.00  0.00    +0.024 A 
ATOM     33  C   UNL     1      -9.748  22.645  23.317  0.00  0.00    +0.007 A 
ATOM     34  C   UNL     1     -10.184  23.914  23.827  0.00  0.00    -0.029 A 
ATOM     35  C   UNL     1     -10.395  25.076  22.828  0.00  0.00    +0.045 C 
ENDROOT
BRANCH  10   9
ATOM      4  C   UNL     1     -13.820  27.245  26.339  0.00  0.00    +0.077 A 
ATOM      5  C   UNL     1     -14.841  26.456  25.713  0.00  0.00    +0.048 A 
ATOM      6  C   UNL     1     -14.446  25.235  25.121  0.00  0.00    +0.116 A 
ATOM      7  N   UNL     1     -13.126  24.842  25.160  0.00  0.00    -0.223 NA
ATOM      8  C   UNL     1     -12.166  25.628  25.770  0.00  0.00    +0.220 A 
ATOM      9  N   UNL     1     -10.833  25.249  25.827  0.00  0.00    -0.283 N 
ATOM     36  H   UNL     1     -10.154  25.860  26.280  0.00  0.00    +0.155 HD
ATOM     37  N   UNL     1     -12.517  26.799  26.341  0.00  0.00    -0.214 NA
BRANCH   4   3
ATOM      1  C   UNL     1     -15.070  30.878  27.076  0.00  0.00    +0.020 A 
ATOM      2  C   UNL     1     -14.846  29.629  26.384  0.00  0.00    +0.013 A 
ATOM      3  C   UNL     1     -14.081  28.558  27.010  0.00  0.00    +0.019 A 
ATOM     38  C   UNL     1     -13.551  28.784  28.346  0.00  0.00    +0.120 A 
ATOM     39  N   UNL     1     -13.781  29.997  28.987  0.00  0.00    -0.263 NA
ATOM     40  C   UNL     1     -14.515  31.036  28.395  0.00  0.00    +0.111 A 
ENDBRANCH   4   3
ENDBRANCH  10   9
BRANCH  12  13
ATOM     13  N   UNL     1      -9.545  20.481  26.430  0.00  0.00    -0.281 N 
ATOM     14  C   UNL     1      -8.358  19.802  26.645  0.00  0.00    +0.248 C 
ATOM     30  O   UNL     1      -7.339  19.966  25.990  0.00  0.00    -0.270 OA
ATOM     31  H   UNL     1     -10.366  20.114  26.911  0.00  0.00    +0.155 HD
BRANCH  14  15
ATOM     15  C   UNL     1      -8.297  18.782  27.736  0.00  0.00    +0.037 A 
ATOM     16  C   UNL     1      -9.460  17.955  28.069  0.00  0.00    +0.013 A 
ATOM     17  C   UNL     1      -9.379  16.991  29.137  0.00  0.00    +0.005 A 
ATOM     18  C   UNL     1      -8.129  16.847  29.879  0.00  0.00    -0.033 A 
ATOM     28  C   UNL     1      -6.989  17.676  29.524  0.00  0.00    +0.005 A 
ATOM     29  C   UNL     1      -7.065  18.623  28.478  0.00  0.00    +0.013 A 
BRANCH  18  19
ATOM     19  C   UNL     1      -7.959  15.858  31.048  0.00  0.00    +0.119 C 
BRANCH  19  20
ATOM     20  N   UNL     1      -6.891  14.822  30.918  0.00  0.00    -0.302 NA
ATOM     21  C   UNL     1      -6.950  14.102  29.568  0.00  0.00    +0.066 C 
ATOM     22  C   UNL     1      -5.812  13.038  29.440  0.00  0.00    -0.064 C 
ATOM     23  N   UNL     1      -5.921  12.038  30.592  0.00  0.00    +0.379 N 
ATOM     24  C   UNL     1      -4.888  11.003  30.442  0.00  0.00    -0.096 C 
ATOM     25  H   UNL     1      -6.914  11.539  30.513  0.00  0.00    -0.082 HD
ATOM     26  C   UNL     1      -5.866  12.746  31.938  0.00  0.00    -0.064 C 
ATOM     27  C   UNL     1      -6.983  13.822  32.044  0.00  0.00    +0.066 C 
ENDBRANCH  19  20
ENDBRANCH  18  19
ENDBRANCH  14  15
ENDBRANCH  12  13
TORSDOF 6
ENDMDL
MODEL 3
REMARK VINA RESULT:      -8.1      3.946     12.918
REMARK  Name = C:\Users\Docking\Desktop\test protocol\1iep_ligandH.pdb
REMARK  8 active torsions:
REMARK  status: ('A' for Active; 'I' for Inactive)
REMARK    1  A    between atoms: _5  and  _11
REMARK    2  A    between atoms: _19  and  _21
REMARK    3  A    between atoms: _22  and  _66
REMARK    4  A    between atoms: _27  and  _30
REMARK    5  A    between atoms: _32  and  _33
REMARK    6  A    between atoms: _38  and  _43
REMARK    7  A    between atoms: _43  and  _46
REMARK    8  A    between atoms: _53  and  _55
REMARK                            x       y       z     vdW  Elec       q    Type
REMARK                         _______ _______ _______ _____ _____    ______ ____
ROOT
ATOM     10  C   UNL     1     -10.316  24.020  25.280  0.00  0.00    +0.038 A 
ATOM     11  C   UNL     1     -10.203  22.882  26.119  0.00  0.00    +0.047 A 
ATOM     12  C   UNL     1      -9.768  21.598  25.591  0.00  0.00    +0.035 A 
ATOM     32  C   UNL     1      -9.454  21.510  24.204  0.00  0.00    +0.024 A 
ATOM     33  C   UNL     1      -9.565  22.656  23.336  0.00  0.00    +0.007 A 
ATOM     34  C   UNL     1      -9.995  23.924  23.850  0.00  0.00    -0.029 A 
ATOM     35  C   UNL     1     -10.102  25.118  22.873  0.00  0.00    +0.045 C 
ENDROOT
BRANCH  10   9
ATOM      4  C   UNL     1     -13.714  27.251  26.305  0.00  0.00    +0.077 A 
ATOM      5  C   UNL     1     -14.729  26.480  25.648  0.00  0.00    +0.048 A 
ATOM      6  C   UNL     1     -14.334  25.261  25.052  0.00  0.00    +0.116 A 
ATOM      7  N   UNL     1     -13.019  24.854  25.115  0.00  0.00    -0.223 NA
ATOM      8  C   UNL     1     -12.065  25.622  25.756  0.00  0.00    +0.220 A 
ATOM      9  N   UNL     1     -10.738  25.228  25.839  0.00  0.00    -0.283 N 
ATOM     36  H   UNL     1     -10.063  25.827  26.314  0.00  0.00    +0.155 HD
ATOM     37  N   UNL     1     -12.417  26.791  26.332  0.00  0.00    -0.214 NA
BRANCH   4   3
ATOM      1  C   UNL     1     -13.589  30.239  28.827  0.00  0.00    +0.020 A 
ATOM      2  C   UNL     1     -13.301  28.964  28.211  0.00  0.00    +0.013 A 
ATOM      3  C   UNL     1     -13.976  28.559  26.985  0.00  0.00    +0.019 A 
ATOM     38  C   UNL     1     -14.945  29.475  26.402  0.00  0.00    +0.120 A 
ATOM     39  N   UNL     1     -15.204  30.696  27.018  0.00  0.00    -0.263 NA
ATOM     40  C   UNL     1     -14.561  31.095  28.200  0.00  0.00    +0.111 A 
ENDBRANCH   4   3
ENDBRANCH  10   9
BRANCH  12  13
ATOM     13  N   UNL     1      -9.643  20.407  26.394  0.00  0.00    -0.281 N 
ATOM     14  C   UNL     1      -8.483  19.734  26.742  0.00  0.00    +0.248 C 
ATOM     30  O   UNL     1      -7.389  19.934  26.237  0.00  0.00    -0.270 OA
ATOM     31  H   UNL     1     -10.514  20.012  26.747  0.00  0.00    +0.155 HD
BRANCH  14  15
ATOM     15  C   UNL     1      -8.552  18.674  27.795  0.00  0.00    +0.037 A 
ATOM     16  C   UNL     1      -9.751  17.850  27.965  0.00  0.00    +0.013 A 
ATOM     17  C   UNL     1      -9.798  16.847  28.999  0.00  0.00    +0.005 A 
ATOM     18  C   UNL     1      -8.639  16.661  29.870  0.00  0.00    -0.033 A 
ATOM     28  C   UNL     1      -7.461  17.489  29.675  0.00  0.00    +0.005 A 
ATOM     29  C   UNL     1      -7.412  18.474  28.663  0.00  0.00    +0.013 A 
BRANCH  18  19
ATOM     19  C   UNL     1      -8.609  15.629  31.013  0.00  0.00    +0.119 C 
BRANCH  19  20
ATOM     20  N   UNL     1      -9.526  15.861  32.168  0.00  0.00    -0.302 NA
ATOM     21  C   UNL     1      -8.940  15.334  33.481  0.00  0.00    +0.066 C 
ATOM     22  C   UNL     1      -9.903  15.605  34.683  0.00  0.00    -0.064 C 
ATOM     23  N   UNL     1     -11.261  14.961  34.400  0.00  0.00    +0.379 N 
ATOM     24  C   UNL     1     -12.151  15.164  35.553  0.00  0.00    -0.096 C 
ATOM     25  H   UNL     1     -11.099  13.864  34.286  0.00  0.00    -0.082 HD
ATOM     26  C   UNL     1     -11.850  15.478  33.094  0.00  0.00    -0.064 C 
ATOM     27  C   UNL     1     -10.873  15.230  31.911  0.00  0.00    +0.066 C 
ENDBRANCH  19  20
ENDBRANCH  18  19
ENDBRANCH  14  15
ENDBRANCH  12  13
TORSDOF 6
ENDMDL
MODEL 4
REMARK VINA RESULT:      -8.1     13.388     20.458
REMARK  Name = C:\Users\Docking\Desktop\test protocol\1iep_ligandH.pdb
REMARK  8 active torsions:
REMARK  status: ('A' for Active; 'I' for Inactive)
REMARK    1  A    between atoms: _5  and  _11
REMARK    2  A    between atoms: _19  and  _21
REMARK    3  A    between atoms: _22  and  _66
REMARK    4  A    between atoms: _27  and  _30
REMARK    5  A    between atoms: _32  and  _33
REMARK    6  A    between atoms: _38  and  _43
REMARK    7  A    between atoms: _43  and  _46
REMARK    8  A    between atoms: _53  and  _55
REMARK                            x       y       z     vdW  Elec       q    Type
REMARK                         _______ _______ _______ _____ _____    ______ ____
ROOT
ATOM     10  C   UNL     1      -5.165  13.180  30.198  0.00  0.00    +0.038 A 
ATOM     11  C   UNL     1      -3.913  12.761  30.716  0.00  0.00    +0.047 A 
ATOM     12  C   UNL     1      -2.750  12.622  29.853  0.00  0.00    +0.035 A 
ATOM     32  C   UNL     1      -2.897  12.922  28.467  0.00  0.00    +0.024 A 
ATOM     33  C   UNL     1      -4.163  13.348  27.924  0.00  0.00    +0.007 A 
ATOM     34  C   UNL     1      -5.314  13.484  28.770  0.00  0.00    -0.029 A 
ATOM     35  C   UNL     1      -6.647  13.939  28.132  0.00  0.00    +0.045 C 
ENDROOT
BRANCH  10   9
ATOM      4  C   UNL     1      -8.093  15.763  32.989  0.00  0.00    +0.077 A 
ATOM      5  C   UNL     1      -7.389  16.980  32.704  0.00  0.00    +0.048 A 
ATOM      6  C   UNL     1      -6.274  16.897  31.839  0.00  0.00    +0.116 A 
ATOM      7  N   UNL     1      -5.901  15.682  31.306  0.00  0.00    -0.223 NA
ATOM      8  C   UNL     1      -6.601  14.528  31.603  0.00  0.00    +0.220 A 
ATOM      9  N   UNL     1      -6.248  13.297  31.072  0.00  0.00    -0.283 N 
ATOM     36  H   UNL     1      -6.786  12.467  31.322  0.00  0.00    +0.155 HD
ATOM     37  N   UNL     1      -7.668  14.580  32.427  0.00  0.00    -0.214 NA
BRANCH   4   3
ATOM      1  C   UNL     1     -10.864  14.450  35.418  0.00  0.00    +0.020 A 
ATOM      2  C   UNL     1      -9.697  14.468  34.566  0.00  0.00    +0.013 A 
ATOM      3  C   UNL     1      -9.293  15.689  33.882  0.00  0.00    +0.019 A 
ATOM     38  C   UNL     1     -10.097  16.885  34.082  0.00  0.00    +0.120 A 
ATOM     39  N   UNL     1     -11.217  16.838  34.907  0.00  0.00    -0.263 NA
ATOM     40  C   UNL     1     -11.616  15.667  35.569  0.00  0.00    +0.111 A 
ENDBRANCH   4   3
ENDBRANCH  10   9
BRANCH  12  13
ATOM     13  N   UNL     1      -1.455  12.193  30.321  0.00  0.00    -0.281 N 
ATOM     14  C   UNL     1      -0.739  11.072  29.935  0.00  0.00    +0.248 C 
ATOM     30  O   UNL     1      -1.201  10.148  29.281  0.00  0.00    -0.270 OA
ATOM     31  H   UNL     1      -1.013  12.788  31.022  0.00  0.00    +0.155 HD
BRANCH  14  15
ATOM     15  C   UNL     1       0.693  10.952  30.347  0.00  0.00    +0.037 A 
ATOM     16  C   UNL     1       1.113   9.983  31.362  0.00  0.00    +0.013 A 
ATOM     17  C   UNL     1       2.498   9.900  31.753  0.00  0.00    +0.005 A 
ATOM     18  C   UNL     1       3.473  10.789  31.127  0.00  0.00    -0.033 A 
ATOM     28  C   UNL     1       3.030  11.738  30.119  0.00  0.00    +0.005 A 
ATOM     29  C   UNL     1       1.673  11.823  29.734  0.00  0.00    +0.013 A 
BRANCH  18  19
ATOM     19  C   UNL     1       4.968  10.785  31.498  0.00  0.00    +0.119 C 
BRANCH  19  20
ATOM     20  N   UNL     1       5.359  11.466  32.768  0.00  0.00    -0.302 NA
ATOM     21  C   UNL     1       5.590  12.967  32.567  0.00  0.00    +0.066 C 
ATOM     22  C   UNL     1       5.977  13.668  33.910  0.00  0.00    -0.064 C 
ATOM     23  N   UNL     1       7.225  13.001  34.489  0.00  0.00    +0.379 N 
ATOM     24  C   UNL     1       7.625  13.695  35.722  0.00  0.00    -0.096 C 
ATOM     25  H   UNL     1       8.049  13.124  33.749  0.00  0.00    -0.082 HD
ATOM     26  C   UNL     1       7.005  11.508  34.690  0.00  0.00    -0.064 C 
ATOM     27  C   UNL     1       6.593  10.826  33.355  0.00  0.00    +0.066 C 
ENDBRANCH  19  20
ENDBRANCH  18  19
ENDBRANCH  14  15
ENDBRANCH  12  13
TORSDOF 6
ENDMDL
MODEL 5
REMARK VINA RESULT:      -8.0      4.909     10.586
REMARK  Name = C:\Users\Docking\Desktop\test protocol\1iep_ligandH.pdb
REMARK  8 active torsions:
REMARK  status: ('A' for Active; 'I' for Inactive)
REMARK    1  A    between atoms: _5  and  _11
REMARK    2  A    between atoms: _19  and  _21
REMARK    3  A    between atoms: _22  and  _66
REMARK    4  A    between atoms: _27  and  _30
REMARK    5  A    between atoms: _32  and  _33
REMARK    6  A    between atoms: _38  and  _43
REMARK    7  A    between atoms: _43  and  _46
REMARK    8  A    between atoms: _53  and  _55
REMARK                            x       y       z     vdW  Elec       q    Type
REMARK                         _______ _______ _______ _____ _____    ______ ____
ROOT
ATOM     10  C   UNL     1      -5.641  16.206  30.602  0.00  0.00    +0.038 A 
ATOM     11  C   UNL     1      -6.120  16.998  29.527  0.00  0.00    +0.047 A 
ATOM     12  C   UNL     1      -7.316  17.813  29.667  0.00  0.00    +0.035 A 
ATOM     32  C   UNL     1      -8.000  17.800  30.918  0.00  0.00    +0.024 A 
ATOM     33  C   UNL     1      -7.528  17.001  32.021  0.00  0.00    +0.007 A 
ATOM     34  C   UNL     1      -6.349  16.193  31.888  0.00  0.00    -0.029 A 
ATOM     35  C   UNL     1      -5.893  15.350  33.102  0.00  0.00    +0.045 C 
ENDROOT
BRANCH  10   9
ATOM      4  C   UNL     1      -3.419  12.075  29.585  0.00  0.00    +0.077 A 
ATOM      5  C   UNL     1      -4.662  11.372  29.445  0.00  0.00    +0.048 A 
ATOM      6  C   UNL     1      -5.850  12.109  29.651  0.00  0.00    +0.116 A 
ATOM      7  N   UNL     1      -5.788  13.448  29.971  0.00  0.00    -0.223 NA
ATOM      8  C   UNL     1      -4.573  14.095  30.099  0.00  0.00    +0.220 A 
ATOM      9  N   UNL     1      -4.487  15.442  30.413  0.00  0.00    -0.283 N 
ATOM     36  H   UNL     1      -3.571  15.881  30.506  0.00  0.00    +0.155 HD
ATOM     37  N   UNL     1      -3.424  13.413  29.910  0.00  0.00    -0.214 NA
BRANCH   4   3
ATOM      1  C   UNL     1       0.416  11.537  29.031  0.00  0.00    +0.020 A 
ATOM      2  C   UNL     1      -0.854  12.203  29.209  0.00  0.00    +0.013 A 
ATOM      3  C   UNL     1      -2.079  11.436  29.396  0.00  0.00    +0.019 A 
ATOM     38  C   UNL     1      -1.984   9.984  29.398  0.00  0.00    +0.120 A 
ATOM     39  N   UNL     1      -0.748   9.369  29.223  0.00  0.00    -0.263 NA
ATOM     40  C   UNL     1       0.437  10.098  29.041  0.00  0.00    +0.111 A 
ENDBRANCH   4   3
ENDBRANCH  10   9
BRANCH  12  13
ATOM     13  N   UNL     1      -7.854  18.630  28.608  0.00  0.00    -0.281 N 
ATOM     14  C   UNL     1      -8.793  18.277  27.652  0.00  0.00    +0.248 C 
ATOM     30  O   UNL     1      -9.157  17.131  27.432  0.00  0.00    -0.270 OA
ATOM     31  H   UNL     1      -7.499  19.585  28.556  0.00  0.00    +0.155 HD
BRANCH  14  15
ATOM     15  C   UNL     1      -9.405  19.349  26.811  0.00  0.00    +0.037 A 
ATOM     16  C   UNL     1     -10.824  19.313  26.447  0.00  0.00    +0.013 A 
ATOM     17  C   UNL     1     -11.385  20.351  25.620  0.00  0.00    +0.005 A 
ATOM     18  C   UNL     1     -10.527  21.437  25.151  0.00  0.00    -0.033 A 
ATOM     28  C   UNL     1      -9.124  21.451  25.532  0.00  0.00    +0.005 A 
ATOM     29  C   UNL     1      -8.570  20.435  26.341  0.00  0.00    +0.013 A 
BRANCH  18  19
ATOM     19  C   UNL     1     -11.036  22.575  24.248  0.00  0.00    +0.119 C 
BRANCH  19  20
ATOM     20  N   UNL     1     -12.159  23.411  24.767  0.00  0.00    -0.302 NA
ATOM     21  C   UNL     1     -12.679  24.394  23.715  0.00  0.00    +0.066 C 
ATOM     22  C   UNL     1     -13.869  25.244  24.268  0.00  0.00    -0.064 C 
ATOM     23  N   UNL     1     -13.418  25.987  25.527  0.00  0.00    +0.379 N 
ATOM     24  C   UNL     1     -14.517  26.833  26.017  0.00  0.00    -0.096 C 
ATOM     25  H   UNL     1     -12.576  26.659  25.240  0.00  0.00    -0.082 HD
ATOM     26  C   UNL     1     -12.897  25.017  26.578  0.00  0.00    -0.064 C 
ATOM     27  C   UNL     1     -11.735  24.157  26.009  0.00  0.00    +0.066 C 
ENDBRANCH  19  20
ENDBRANCH  18  19
ENDBRANCH  14  15
ENDBRANCH  12  13
TORSDOF 6
ENDMDL
