MODEL 1
REMARK VINA RESULT:      -7.7      0.000      0.000
REMARK  Name = C:\Users\Docking\Desktop\test protocol\1iep_ligandH.pdb
REMARK  8 active torsions:
REMARK  status: ('A' for Active; 'I' for Inactive)
REMARK    1  A    between atoms: _5  and  _11
REMARK    2  A    between atoms: _19  and  _21
REMARK    3  A    between atoms: _22  and  _66
REMARK    4  A    between atoms: _27  and  _30
REMARK    5  A    between atoms: _32  and  _33
REMARK    6  A    between atoms: _38  and  _43
REMARK    7  A    between atoms: _43  and  _46
REMARK    8  A    between atoms: _53  and  _55
REMARK                            x       y       z     vdW  Elec       q    Type
REMARK                         _______ _______ _______ _____ _____    ______ ____
ROOT
ATOM     10  C   UNL     1      42.732  19.957  23.612  0.00  0.00    +0.038 A 
ATOM     11  C   UNL     1      42.587  21.253  23.055  0.00  0.00    +0.047 A 
ATOM     12  C   UNL     1      41.276  21.865  22.906  0.00  0.00    +0.035 A 
ATOM     32  C   UNL     1      40.134  21.130  23.338  0.00  0.00    +0.024 A 
ATOM     33  C   UNL     1      40.263  19.811  23.906  0.00  0.00    +0.007 A 
ATOM     34  C   UNL     1      41.554  19.201  24.053  0.00  0.00    -0.029 A 
ATOM     35  C   UNL     1      41.632  17.782  24.663  0.00  0.00    +0.045 C 
ENDROOT
BRANCH  10   9
ATOM      4  C   UNL     1      46.427  17.407  21.913  0.00  0.00    +0.077 A 
ATOM      5  C   UNL     1      45.732  17.102  20.695  0.00  0.00    +0.048 A 
ATOM      6  C   UNL     1      44.424  17.614  20.548  0.00  0.00    +0.116 A 
ATOM      7  N   UNL     1      43.861  18.374  21.551  0.00  0.00    -0.223 NA
ATOM      8  C   UNL     1      44.558  18.649  22.714  0.00  0.00    +0.220 A 
ATOM      9  N   UNL     1      44.015  19.417  23.732  0.00  0.00    -0.283 N 
ATOM     36  H   UNL     1      44.558  19.591  24.577  0.00  0.00    +0.155 HD
ATOM     37  N   UNL     1      45.808  18.170  22.879  0.00  0.00    -0.214 NA
BRANCH   4   3
ATOM      1  C   UNL     1      49.560  15.138  22.490  0.00  0.00    +0.020 A 
ATOM      2  C   UNL     1      48.204  15.536  22.192  0.00  0.00    +0.013 A 
ATOM      3  C   UNL     1      47.817  16.941  22.215  0.00  0.00    +0.019 A 
ATOM     38  C   UNL     1      48.835  17.926  22.546  0.00  0.00    +0.120 A 
ATOM     39  N   UNL     1      50.133  17.514  22.830  0.00  0.00    -0.263 NA
ATOM     40  C   UNL     1      50.516  16.165  22.813  0.00  0.00    +0.111 A 
ENDBRANCH   4   3
ENDBRANCH  10   9
BRANCH  12  13
ATOM     13  N   UNL     1      41.065  23.174  22.340  0.00  0.00    -0.281 N 
ATOM     14  C   UNL     1      40.370  23.502  21.187  0.00  0.00    +0.248 C 
ATOM     30  O   UNL     1      40.003  22.693  20.348  0.00  0.00    -0.270 OA
ATOM     31  H   UNL     1      41.479  23.954  22.851  0.00  0.00    +0.155 HD
BRANCH  14  15
ATOM     15  C   UNL     1      40.050  24.937  20.921  0.00  0.00    +0.037 A 
ATOM     16  C   UNL     1      40.721  25.680  19.851  0.00  0.00    +0.013 A 
ATOM     17  C   UNL     1      40.406  27.068  19.626  0.00  0.00    +0.005 A 
ATOM     18  C   UNL     1      39.412  27.723  20.473  0.00  0.00    -0.033 A 
ATOM     28  C   UNL     1      38.758  26.962  21.524  0.00  0.00    +0.005 A 
ATOM     29  C   UNL     1      39.065  25.601  21.748  0.00  0.00    +0.013 A 
BRANCH  18  19
ATOM     19  C   UNL     1      39.028  29.207  20.319  0.00  0.00    +0.119 C 
BRANCH  19  20
ATOM     20  N   UNL     1      39.513  30.151  21.369  0.00  0.00    -0.302 NA
ATOM     21  C   UNL     1      38.358  30.787  22.147  0.00  0.00    +0.066 C 
ATOM     22  C   UNL     1      38.884  31.755  23.257  0.00  0.00    -0.064 C 
ATOM     23  N   UNL     1      39.762  32.831  22.617  0.00  0.00    +0.379 N 
ATOM     24  C   UNL     1      40.211  33.776  23.649  0.00  0.00    -0.096 C 
ATOM     25  H   UNL     1      39.130  33.396  21.892  0.00  0.00    -0.082 HD
ATOM     26  C   UNL     1      40.912  32.208  21.838  0.00  0.00    -0.064 C 
ATOM     27  C   UNL     1      40.380  31.225  20.758  0.00  0.00    +0.066 C 
ENDBRANCH  19  20
ENDBRANCH  18  19
ENDBRANCH  14  15
ENDBRANCH  12  13
TORSDOF 6
ENDMDL
MODEL 2
REMARK VINA RESULT:      -7.6      1.671      2.104
REMARK  Name = C:\Users\Docking\Desktop\test protocol\1iep_ligandH.pdb
REMARK  8 active torsions:
REMARK  status: ('A' for Active; 'I' for Inactive)
REMARK    1  A    between atoms: _5  and  _11
REMARK    2  A    between atoms: _19  and  _21
REMARK    3  A    between atoms: _22  and  _66
REMARK    4  A    between atoms: _27  and  _30
REMARK    5  A    between atoms: _32  and  _33
REMARK    6  A    between atoms: _38  and  _43
REMARK    7  A    between atoms: _43  and  _46
REMARK    8  A    between atoms: _53  and  _55
REMARK                            x       y       z     vdW  Elec       q    Type
REMARK                         _______ _______ _______ _____ _____    ______ ____
ROOT
ATOM     10  C   UNL     1      42.919  19.637  23.230  0.00  0.00    +0.038 A 
ATOM     11  C   UNL     1      42.748  20.855  22.524  0.00  0.00    +0.047 A 
ATOM     12  C   UNL     1      41.439  21.268  22.042  0.00  0.00    +0.035 A 
ATOM     32  C   UNL     1      40.325  20.416  22.299  0.00  0.00    +0.024 A 
ATOM     33  C   UNL     1      40.481  19.174  23.014  0.00  0.00    +0.007 A 
ATOM     34  C   UNL     1      41.770  18.761  23.490  0.00  0.00    -0.029 A 
ATOM     35  C   UNL     1      41.879  17.416  24.246  0.00  0.00    +0.045 C 
ENDROOT
BRANCH  10   9
ATOM      4  C   UNL     1      47.150  17.451  22.640  0.00  0.00    +0.077 A 
ATOM      5  C   UNL     1      46.771  16.934  21.356  0.00  0.00    +0.048 A 
ATOM      6  C   UNL     1      45.476  17.247  20.888  0.00  0.00    +0.116 A 
ATOM      7  N   UNL     1      44.631  18.022  21.653  0.00  0.00    -0.223 NA
ATOM      8  C   UNL     1      45.028  18.503  22.887  0.00  0.00    +0.220 A 
ATOM      9  N   UNL     1      44.198  19.290  23.671  0.00  0.00    -0.283 N 
ATOM     36  H   UNL     1      44.525  19.619  24.579  0.00  0.00    +0.155 HD
ATOM     37  N   UNL     1      46.259  18.216  23.358  0.00  0.00    -0.214 NA
BRANCH   4   3
ATOM      1  C   UNL     1      50.031  17.085  25.260  0.00  0.00    +0.020 A 
ATOM      2  C   UNL     1      48.721  17.330  24.703  0.00  0.00    +0.013 A 
ATOM      3  C   UNL     1      48.487  17.209  23.269  0.00  0.00    +0.019 A 
ATOM     38  C   UNL     1      49.608  16.833  22.421  0.00  0.00    +0.120 A 
ATOM     39  N   UNL     1      50.859  16.605  22.986  0.00  0.00    -0.263 NA
ATOM     40  C   UNL     1      51.097  16.721  24.364  0.00  0.00    +0.111 A 
ENDBRANCH   4   3
ENDBRANCH  10   9
BRANCH  12  13
ATOM     13  N   UNL     1      41.206  22.489  21.312  0.00  0.00    -0.281 N 
ATOM     14  C   UNL     1      39.992  23.096  21.033  0.00  0.00    +0.248 C 
ATOM     30  O   UNL     1      38.902  22.564  21.186  0.00  0.00    -0.270 OA
ATOM     31  H   UNL     1      42.036  22.964  20.958  0.00  0.00    +0.155 HD
BRANCH  14  15
ATOM     15  C   UNL     1      39.989  24.489  20.492  0.00  0.00    +0.037 A 
ATOM     16  C   UNL     1      40.897  24.887  19.413  0.00  0.00    +0.013 A 
ATOM     17  C   UNL     1      40.885  26.242  18.921  0.00  0.00    +0.005 A 
ATOM     18  C   UNL     1      39.959  27.209  19.507  0.00  0.00    -0.033 A 
ATOM     28  C   UNL     1      39.066  26.785  20.573  0.00  0.00    +0.005 A 
ATOM     29  C   UNL     1      39.075  25.459  21.058  0.00  0.00    +0.013 A 
BRANCH  18  19
ATOM     19  C   UNL     1      39.893  28.681  19.059  0.00  0.00    +0.119 C 
BRANCH  19  20
ATOM     20  N   UNL     1      41.068  29.546  19.377  0.00  0.00    -0.302 NA
ATOM     21  C   UNL     1      40.667  30.784  20.186  0.00  0.00    +0.066 C 
ATOM     22  C   UNL     1      41.911  31.666  20.529  0.00  0.00    -0.064 C 
ATOM     23  N   UNL     1      42.619  32.071  19.235  0.00  0.00    +0.379 N 
ATOM     24  C   UNL     1      43.756  32.948  19.551  0.00  0.00    -0.096 C 
ATOM     25  H   UNL     1      41.897  32.660  18.624  0.00  0.00    -0.082 HD
ATOM     26  C   UNL     1      43.019  30.846  18.424  0.00  0.00    -0.064 C 
ATOM     27  C   UNL     1      41.780  29.961  18.113  0.00  0.00    +0.066 C 
ENDBRANCH  19  20
ENDBRANCH  18  19
ENDBRANCH  14  15
ENDBRANCH  12  13
TORSDOF 6
ENDMDL
MODEL 3
REMARK VINA RESULT:      -7.5      1.912      2.470
REMARK  Name = C:\Users\Docking\Desktop\test protocol\1iep_ligandH.pdb
REMARK  8 active torsions:
REMARK  status: ('A' for Active; 'I' for Inactive)
REMARK    1  A    between atoms: _5  and  _11
REMARK    2  A    between atoms: _19  and  _21
REMARK    3  A    between atoms: _22  and  _66
REMARK    4  A    between atoms: _27  and  _30
REMARK    5  A    between atoms: _32  and  _33
REMARK    6  A    between atoms: _38  and  _43
REMARK    7  A    between atoms: _43  and  _46
REMARK    8  A    between atoms: _53  and  _55
REMARK                            x       y       z     vdW  Elec       q    Type
REMARK                         _______ _______ _______ _____ _____    ______ ____
ROOT
ATOM     10  C   UNL     1      42.322  20.272  24.047  0.00  0.00    +0.038 A 
ATOM     11  C   UNL     1      42.083  21.570  23.527  0.00  0.00    +0.047 A 
ATOM     12  C   UNL     1      40.742  22.133  23.498  0.00  0.00    +0.035 A 
ATOM     32  C   UNL     1      39.668  21.348  24.010  0.00  0.00    +0.024 A 
ATOM     33  C   UNL     1      39.893  20.027  24.541  0.00  0.00    +0.007 A 
ATOM     34  C   UNL     1      41.213  19.465  24.569  0.00  0.00    -0.029 A 
ATOM     35  C   UNL     1      41.394  18.040  25.144  0.00  0.00    +0.045 C 
ENDROOT
BRANCH  10   9
ATOM      4  C   UNL     1      45.902  17.756  22.074  0.00  0.00    +0.077 A 
ATOM      5  C   UNL     1      45.091  17.366  20.956  0.00  0.00    +0.048 A 
ATOM      6  C   UNL     1      43.756  17.829  20.930  0.00  0.00    +0.116 A 
ATOM      7  N   UNL     1      43.279  18.621  21.951  0.00  0.00    -0.223 NA
ATOM      8  C   UNL     1      44.086  18.977  23.016  0.00  0.00    +0.220 A 
ATOM      9  N   UNL     1      43.629  19.780  24.049  0.00  0.00    -0.283 N 
ATOM     36  H   UNL     1      44.254  20.014  24.820  0.00  0.00    +0.155 HD
ATOM     37  N   UNL     1      45.364  18.547  23.064  0.00  0.00    -0.214 NA
BRANCH   4   3
ATOM      1  C   UNL     1      49.175  15.627  22.315  0.00  0.00    +0.020 A 
ATOM      2  C   UNL     1      47.781  15.966  22.145  0.00  0.00    +0.013 A 
ATOM      3  C   UNL     1      47.333  17.350  22.242  0.00  0.00    +0.019 A 
ATOM     38  C   UNL     1      48.329  18.375  22.515  0.00  0.00    +0.120 A 
ATOM     39  N   UNL     1      49.665  18.018  22.676  0.00  0.00    -0.263 NA
ATOM     40  C   UNL     1      50.107  16.690  22.586  0.00  0.00    +0.111 A 
ENDBRANCH   4   3
ENDBRANCH  10   9
BRANCH  12  13
ATOM     13  N   UNL     1      40.437  23.442  22.976  0.00  0.00    -0.281 N 
ATOM     14  C   UNL     1      39.821  24.497  23.628  0.00  0.00    +0.248 C 
ATOM     30  O   UNL     1      39.242  24.404  24.700  0.00  0.00    -0.270 OA
ATOM     31  H   UNL     1      40.709  23.611  22.007  0.00  0.00    +0.155 HD
BRANCH  14  15
ATOM     15  C   UNL     1      39.837  25.849  22.990  0.00  0.00    +0.037 A 
ATOM     16  C   UNL     1      39.457  26.031  21.586  0.00  0.00    +0.013 A 
ATOM     17  C   UNL     1      39.498  27.343  20.991  0.00  0.00    +0.005 A 
ATOM     18  C   UNL     1      39.918  28.485  21.800  0.00  0.00    -0.033 A 
ATOM     28  C   UNL     1      40.284  28.276  23.192  0.00  0.00    +0.005 A 
ATOM     29  C   UNL     1      40.247  26.991  23.778  0.00  0.00    +0.013 A 
BRANCH  18  19
ATOM     19  C   UNL     1      40.012  29.917  21.242  0.00  0.00    +0.119 C 
BRANCH  19  20
ATOM     20  N   UNL     1      41.189  30.240  20.382  0.00  0.00    -0.302 NA
ATOM     21  C   UNL     1      41.705  31.661  20.625  0.00  0.00    +0.066 C 
ATOM     22  C   UNL     1      42.950  31.975  19.734  0.00  0.00    -0.064 C 
ATOM     23  N   UNL     1      42.584  31.776  18.262  0.00  0.00    +0.379 N 
ATOM     24  C   UNL     1      43.735  32.126  17.418  0.00  0.00    -0.096 C 
ATOM     25  H   UNL     1      41.759  32.486  18.020  0.00  0.00    -0.082 HD
ATOM     26  C   UNL     1      42.067  30.366  18.012  0.00  0.00    -0.064 C 
ATOM     27  C   UNL     1      40.848  30.055  18.924  0.00  0.00    +0.066 C 
ENDBRANCH  19  20
ENDBRANCH  18  19
ENDBRANCH  14  15
ENDBRANCH  12  13
TORSDOF 6
ENDMDL
MODEL 4
REMARK VINA RESULT:      -7.5      4.724      8.465
REMARK  Name = C:\Users\Docking\Desktop\test protocol\1iep_ligandH.pdb
REMARK  8 active torsions:
REMARK  status: ('A' for Active; 'I' for Inactive)
REMARK    1  A    between atoms: _5  and  _11
REMARK    2  A    between atoms: _19  and  _21
REMARK    3  A    between atoms: _22  and  _66
REMARK    4  A    between atoms: _27  and  _30
REMARK    5  A    between atoms: _32  and  _33
REMARK    6  A    between atoms: _38  and  _43
REMARK    7  A    between atoms: _43  and  _46
REMARK    8  A    between atoms: _53  and  _55
REMARK                            x       y       z     vdW  Elec       q    Type
REMARK                         _______ _______ _______ _____ _____    ______ ____
ROOT
ATOM     10  C   UNL     1      39.953  27.543  23.788  0.00  0.00    +0.038 A 
ATOM     11  C   UNL     1      40.570  28.231  22.712  0.00  0.00    +0.047 A 
ATOM     12  C   UNL     1      40.112  29.549  22.301  0.00  0.00    +0.035 A 
ATOM     32  C   UNL     1      39.025  30.138  23.010  0.00  0.00    +0.024 A 
ATOM     33  C   UNL     1      38.386  29.452  24.105  0.00  0.00    +0.007 A 
ATOM     34  C   UNL     1      38.832  28.151  24.514  0.00  0.00    -0.029 A 
ATOM     35  C   UNL     1      38.106  27.460  25.691  0.00  0.00    +0.045 C 
ENDROOT
BRANCH  10   9
ATOM      4  C   UNL     1      40.201  22.788  23.181  0.00  0.00    +0.077 A 
ATOM      5  C   UNL     1      39.274  22.820  22.087  0.00  0.00    +0.048 A 
ATOM      6  C   UNL     1      38.752  24.079  21.716  0.00  0.00    +0.116 A 
ATOM      7  N   UNL     1      39.134  25.215  22.395  0.00  0.00    -0.223 NA
ATOM      8  C   UNL     1      40.029  25.149  23.448  0.00  0.00    +0.220 A 
ATOM      9  N   UNL     1      40.434  26.280  24.140  0.00  0.00    -0.283 N 
ATOM     36  H   UNL     1      41.090  26.188  24.916  0.00  0.00    +0.155 HD
ATOM     37  N   UNL     1      40.541  23.958  23.822  0.00  0.00    -0.214 NA
BRANCH   4   3
ATOM      1  C   UNL     1      42.854  20.145  24.311  0.00  0.00    +0.020 A 
ATOM      2  C   UNL     1      42.286  21.377  23.814  0.00  0.00    +0.013 A 
ATOM      3  C   UNL     1      40.842  21.534  23.689  0.00  0.00    +0.019 A 
ATOM     38  C   UNL     1      39.995  20.417  24.080  0.00  0.00    +0.120 A 
ATOM     39  N   UNL     1      40.571  19.243  24.553  0.00  0.00    -0.263 NA
ATOM     40  C   UNL     1      41.959  19.079  24.676  0.00  0.00    +0.111 A 
ENDBRANCH   4   3
ENDBRANCH  10   9
BRANCH  12  13
ATOM     13  N   UNL     1      40.694  30.292  21.210  0.00  0.00    -0.281 N 
ATOM     14  C   UNL     1      42.032  30.575  20.990  0.00  0.00    +0.248 C 
ATOM     30  O   UNL     1      42.917  30.412  21.817  0.00  0.00    -0.270 OA
ATOM     31  H   UNL     1      40.039  30.654  20.516  0.00  0.00    +0.155 HD
BRANCH  14  15
ATOM     15  C   UNL     1      42.444  31.132  19.666  0.00  0.00    +0.037 A 
ATOM     16  C   UNL     1      42.449  30.301  18.460  0.00  0.00    +0.013 A 
ATOM     17  C   UNL     1      42.867  30.859  17.198  0.00  0.00    +0.005 A 
ATOM     18  C   UNL     1      43.283  32.258  17.137  0.00  0.00    -0.033 A 
ATOM     28  C   UNL     1      43.264  33.061  18.348  0.00  0.00    +0.005 A 
ATOM     29  C   UNL     1      42.855  32.517  19.586  0.00  0.00    +0.013 A 
BRANCH  18  19
ATOM     19  C   UNL     1      43.765  32.931  15.838  0.00  0.00    +0.119 C 
BRANCH  19  20
ATOM     20  N   UNL     1      43.181  34.263  15.501  0.00  0.00    -0.302 NA
ATOM     21  C   UNL     1      42.104  34.161  14.417  0.00  0.00    +0.066 C 
ATOM     22  C   UNL     1      41.488  35.560  14.093  0.00  0.00    -0.064 C 
ATOM     23  N   UNL     1      42.601  36.517  13.662  0.00  0.00    +0.379 N 
ATOM     24  C   UNL     1      42.017  37.817  13.300  0.00  0.00    -0.096 C 
ATOM     25  H   UNL     1      43.075  36.092  12.746  0.00  0.00    -0.082 HD
ATOM     26  C   UNL     1      43.677  36.622  14.732  0.00  0.00    -0.064 C 
ATOM     27  C   UNL     1      44.262  35.222  15.068  0.00  0.00    +0.066 C 
ENDBRANCH  19  20
ENDBRANCH  18  19
ENDBRANCH  14  15
ENDBRANCH  12  13
TORSDOF 6
ENDMDL
MODEL 5
REMARK VINA RESULT:      -7.4      5.986     11.224
REMARK  Name = C:\Users\Docking\Desktop\test protocol\1iep_ligandH.pdb
REMARK  8 active torsions:
REMARK  status: ('A' for Active; 'I' for Inactive)
REMARK    1  A    between atoms: _5  and  _11
REMARK    2  A    between atoms: _19  and  _21
REMARK    3  A    between atoms: _22  and  _66
REMARK    4  A    between atoms: _27  and  _30
REMARK    5  A    between atoms: _32  and  _33
REMARK    6  A    between atoms: _38  and  _43
REMARK    7  A    between atoms: _43  and  _46
REMARK    8  A    between atoms: _53  and  _55
REMARK                            x       y       z     vdW  Elec       q    Type
REMARK                         _______ _______ _______ _____ _____    ______ ____
ROOT
ATOM     10  C   UNL     1      52.043  12.780  22.247  0.00  0.00    +0.038 A 
ATOM     11  C   UNL     1      51.045  13.788  22.265  0.00  0.00    +0.047 A 
ATOM     12  C   UNL     1      49.632  13.447  22.320  0.00  0.00    +0.035 A 
ATOM     32  C   UNL     1      49.270  12.068  22.359  0.00  0.00    +0.024 A 
ATOM     33  C   UNL     1      50.272  11.031  22.341  0.00  0.00    +0.007 A 
ATOM     34  C   UNL     1      51.667  11.361  22.284  0.00  0.00    -0.029 A 
ATOM     35  C   UNL     1      52.697  10.208  22.261  0.00  0.00    +0.045 C 
ENDROOT
BRANCH  10   9
ATOM      4  C   UNL     1      55.723  15.513  23.671  0.00  0.00    +0.077 A 
ATOM      5  C   UNL     1      54.896  16.256  24.579  0.00  0.00    +0.048 A 
ATOM      6  C   UNL     1      53.528  15.908  24.644  0.00  0.00    +0.116 A 
ATOM      7  N   UNL     1      53.034  14.891  23.856  0.00  0.00    -0.223 NA
ATOM      8  C   UNL     1      53.858  14.196  22.990  0.00  0.00    +0.220 A 
ATOM      9  N   UNL     1      53.384  13.164  22.194  0.00  0.00    -0.283 N 
ATOM     36  H   UNL     1      54.023  12.680  21.563  0.00  0.00    +0.155 HD
ATOM     37  N   UNL     1      55.168  14.510  22.908  0.00  0.00    -0.214 NA
BRANCH   4   3
ATOM      1  C   UNL     1      59.336  16.964  24.038  0.00  0.00    +0.020 A 
ATOM      2  C   UNL     1      57.921  16.766  24.250  0.00  0.00    +0.013 A 
ATOM      3  C   UNL     1      57.188  15.760  23.492  0.00  0.00    +0.019 A 
ATOM     38  C   UNL     1      57.923  14.964  22.520  0.00  0.00    +0.120 A 
ATOM     39  N   UNL     1      59.286  15.178  22.337  0.00  0.00    -0.263 NA
ATOM     40  C   UNL     1      60.001  16.145  23.060  0.00  0.00    +0.111 A 
ENDBRANCH   4   3
ENDBRANCH  10   9
BRANCH  12  13
ATOM     13  N   UNL     1      48.574  14.426  22.331  0.00  0.00    -0.281 N 
ATOM     14  C   UNL     1      48.675  15.787  22.570  0.00  0.00    +0.248 C 
ATOM     30  O   UNL     1      49.668  16.337  23.023  0.00  0.00    -0.270 OA
ATOM     31  H   UNL     1      47.636  14.074  22.140  0.00  0.00    +0.155 HD
BRANCH  14  15
ATOM     15  C   UNL     1      47.499  16.661  22.276  0.00  0.00    +0.037 A 
ATOM     16  C   UNL     1      46.619  16.394  21.136  0.00  0.00    +0.013 A 
ATOM     17  C   UNL     1      45.501  17.263  20.866  0.00  0.00    +0.005 A 
ATOM     18  C   UNL     1      45.257  18.408  21.739  0.00  0.00    -0.033 A 
ATOM     28  C   UNL     1      46.144  18.648  22.866  0.00  0.00    +0.005 A 
ATOM     29  C   UNL     1      47.240  17.798  23.134  0.00  0.00    +0.013 A 
BRANCH  18  19
ATOM     19  C   UNL     1      44.101  19.401  21.514  0.00  0.00    +0.119 C 
BRANCH  19  20
ATOM     20  N   UNL     1      43.423  19.948  22.726  0.00  0.00    -0.302 NA
ATOM     21  C   UNL     1      42.558  18.895  23.425  0.00  0.00    +0.066 C 
ATOM     22  C   UNL     1      41.874  19.478  24.704  0.00  0.00    -0.064 C 
ATOM     23  N   UNL     1      41.036  20.699  24.320  0.00  0.00    +0.379 N 
ATOM     24  C   UNL     1      40.346  21.214  25.511  0.00  0.00    -0.096 C 
ATOM     25  H   UNL     1      40.258  20.360  23.597  0.00  0.00    -0.082 HD
ATOM     26  C   UNL     1      41.888  21.750  23.622  0.00  0.00    -0.064 C 
ATOM     27  C   UNL     1      42.587  21.152  22.369  0.00  0.00    +0.066 C 
ENDBRANCH  19  20
ENDBRANCH  18  19
ENDBRANCH  14  15
ENDBRANCH  12  13
TORSDOF 6
ENDMDL
