MODEL 1
REMARK VINA RESULT:      -9.1      0.000      0.000
REMARK  Name = C:\Users\Docking\Desktop\test protocol\1iep_ligandH.pdb
REMARK  8 active torsions:
REMARK  status: ('A' for Active; 'I' for Inactive)
REMARK    1  A    between atoms: _5  and  _11
REMARK    2  A    between atoms: _19  and  _21
REMARK    3  A    between atoms: _22  and  _66
REMARK    4  A    between atoms: _27  and  _30
REMARK    5  A    between atoms: _32  and  _33
REMARK    6  A    between atoms: _38  and  _43
REMARK    7  A    between atoms: _43  and  _46
REMARK    8  A    between atoms: _53  and  _55
REMARK                            x       y       z     vdW  Elec       q    Type
REMARK                         _______ _______ _______ _____ _____    ______ ____
ROOT
ATOM     10  C   UNL     1      20.457  25.714   4.666  0.00  0.00    +0.038 A 
ATOM     11  C   UNL     1      19.240  25.531   5.373  0.00  0.00    +0.047 A 
ATOM     12  C   UNL     1      18.767  24.202   5.726  0.00  0.00    +0.035 A 
ATOM     32  C   UNL     1      19.561  23.080   5.347  0.00  0.00    +0.024 A 
ATOM     33  C   UNL     1      20.799  23.247   4.628  0.00  0.00    +0.007 A 
ATOM     34  C   UNL     1      21.269  24.556   4.275  0.00  0.00    -0.029 A 
ATOM     35  C   UNL     1      22.601  24.675   3.498  0.00  0.00    +0.045 C 
ENDROOT
BRANCH  10   9
ATOM      4  C   UNL     1      21.175  29.285   1.542  0.00  0.00    +0.077 A 
ATOM      5  C   UNL     1      20.728  28.487   0.436  0.00  0.00    +0.048 A 
ATOM      6  C   UNL     1      20.329  27.161   0.714  0.00  0.00    +0.116 A 
ATOM      7  N   UNL     1      20.376  26.679   2.004  0.00  0.00    -0.223 NA
ATOM      8  C   UNL     1      20.814  27.474   3.046  0.00  0.00    +0.220 A 
ATOM      9  N   UNL     1      20.863  27.013   4.353  0.00  0.00    -0.283 N 
ATOM     36  H   UNL     1      21.199  27.628   5.093  0.00  0.00    +0.155 HD
ATOM     37  N   UNL     1      21.202  28.744   2.808  0.00  0.00    -0.214 NA
BRANCH   4   3
ATOM      1  C   UNL     1      22.366  32.701   0.054  0.00  0.00    +0.020 A 
ATOM      2  C   UNL     1      21.935  31.324   0.127  0.00  0.00    +0.013 A 
ATOM      3  C   UNL     1      21.626  30.707   1.410  0.00  0.00    +0.019 A 
ATOM     38  C   UNL     1      21.763  31.517   2.611  0.00  0.00    +0.120 A 
ATOM     39  N   UNL     1      22.182  32.840   2.511  0.00  0.00    -0.263 NA
ATOM     40  C   UNL     1      22.484  33.444   1.281  0.00  0.00    +0.111 A 
ENDBRANCH   4   3
ENDBRANCH  10   9
BRANCH  12  13
ATOM     13  N   UNL     1      17.536  23.954   6.435  0.00  0.00    -0.281 N 
ATOM     14  C   UNL     1      17.340  23.147   7.544  0.00  0.00    +0.248 C 
ATOM     30  O   UNL     1      18.157  22.343   7.967  0.00  0.00    -0.270 OA
ATOM     31  H   UNL     1      16.710  24.432   6.076  0.00  0.00    +0.155 HD
BRANCH  14  15
ATOM     15  C   UNL     1      16.042  23.236   8.280  0.00  0.00    +0.037 A 
ATOM     16  C   UNL     1      14.951  24.086   7.797  0.00  0.00    +0.013 A 
ATOM     17  C   UNL     1      13.715  24.166   8.536  0.00  0.00    +0.005 A 
ATOM     18  C   UNL     1      13.564  23.392   9.765  0.00  0.00    -0.033 A 
ATOM     28  C   UNL     1      14.661  22.552  10.219  0.00  0.00    +0.005 A 
ATOM     29  C   UNL     1      15.874  22.472   9.498  0.00  0.00    +0.013 A 
BRANCH  18  19
ATOM     19  C   UNL     1      12.289  23.433  10.628  0.00  0.00    +0.119 C 
BRANCH  19  20
ATOM     20  N   UNL     1      11.659  22.125  10.979  0.00  0.00    -0.302 NA
ATOM     21  C   UNL     1      10.590  21.712   9.963  0.00  0.00    +0.066 C 
ATOM     22  C   UNL     1       9.956  20.332  10.333  0.00  0.00    -0.064 C 
ATOM     23  N   UNL     1       9.365  20.406  11.742  0.00  0.00    +0.379 N 
ATOM     24  C   UNL     1       8.718  19.128  12.071  0.00  0.00    -0.096 C 
ATOM     25  H   UNL     1       8.576  21.193  11.736  0.00  0.00    -0.082 HD
ATOM     26  C   UNL     1      10.421  20.819  12.758  0.00  0.00    -0.064 C 
ATOM     27  C   UNL     1      11.065  22.178  12.365  0.00  0.00    +0.066 C 
ENDBRANCH  19  20
ENDBRANCH  18  19
ENDBRANCH  14  15
ENDBRANCH  12  13
TORSDOF 6
ENDMDL
MODEL 2
REMARK VINA RESULT:      -9.1      2.041      2.874
REMARK  Name = C:\Users\Docking\Desktop\test protocol\1iep_ligandH.pdb
REMARK  8 active torsions:
REMARK  status: ('A' for Active; 'I' for Inactive)
REMARK    1  A    between atoms: _5  and  _11
REMARK    2  A    between atoms: _19  and  _21
REMARK    3  A    between atoms: _22  and  _66
REMARK    4  A    between atoms: _27  and  _30
REMARK    5  A    between atoms: _32  and  _33
REMARK    6  A    between atoms: _38  and  _43
REMARK    7  A    between atoms: _43  and  _46
REMARK    8  A    between atoms: _53  and  _55
REMARK                            x       y       z     vdW  Elec       q    Type
REMARK                         _______ _______ _______ _____ _____    ______ ____
ROOT
ATOM     10  C   UNL     1      20.393  25.442   4.796  0.00  0.00    +0.038 A 
ATOM     11  C   UNL     1      19.122  25.314   5.414  0.00  0.00    +0.047 A 
ATOM     12  C   UNL     1      18.615  24.015   5.830  0.00  0.00    +0.035 A 
ATOM     32  C   UNL     1      19.431  22.868   5.604  0.00  0.00    +0.024 A 
ATOM     33  C   UNL     1      20.724  22.980   4.977  0.00  0.00    +0.007 A 
ATOM     34  C   UNL     1      21.228  24.258   4.562  0.00  0.00    -0.029 A 
ATOM     35  C   UNL     1      22.619  24.318   3.888  0.00  0.00    +0.045 C 
ENDROOT
BRANCH  10   9
ATOM      4  C   UNL     1      21.054  28.888   1.521  0.00  0.00    +0.077 A 
ATOM      5  C   UNL     1      20.507  28.077   0.471  0.00  0.00    +0.048 A 
ATOM      6  C   UNL     1      20.074  26.777   0.815  0.00  0.00    +0.116 A 
ATOM      7  N   UNL     1      20.183  26.331   2.114  0.00  0.00    -0.223 NA
ATOM      8  C   UNL     1      20.717  27.138   3.102  0.00  0.00    +0.220 A 
ATOM      9  N   UNL     1      20.830  26.713   4.417  0.00  0.00    -0.283 N 
ATOM     36  H   UNL     1      21.236  27.336   5.115  0.00  0.00    +0.155 HD
ATOM     37  N   UNL     1      21.140  28.383   2.799  0.00  0.00    -0.214 NA
BRANCH   4   3
ATOM      1  C   UNL     1      22.338  32.187  -0.142  0.00  0.00    +0.020 A 
ATOM      2  C   UNL     1      21.861  30.831   0.001  0.00  0.00    +0.013 A 
ATOM      3  C   UNL     1      21.552  30.285   1.316  0.00  0.00    +0.019 A 
ATOM     38  C   UNL     1      21.739  31.144   2.476  0.00  0.00    +0.120 A 
ATOM     39  N   UNL     1      22.202  32.445   2.308  0.00  0.00    -0.263 NA
ATOM     40  C   UNL     1      22.504  32.981   1.047  0.00  0.00    +0.111 A 
ENDBRANCH   4   3
ENDBRANCH  10   9
BRANCH  12  13
ATOM     13  N   UNL     1      17.330  23.823   6.454  0.00  0.00    -0.281 N 
ATOM     14  C   UNL     1      17.032  23.062   7.573  0.00  0.00    +0.248 C 
ATOM     30  O   UNL     1      17.796  22.256   8.084  0.00  0.00    -0.270 OA
ATOM     31  H   UNL     1      16.544  24.305   6.018  0.00  0.00    +0.155 HD
BRANCH  14  15
ATOM     15  C   UNL     1      15.687  23.207   8.207  0.00  0.00    +0.037 A 
ATOM     16  C   UNL     1      15.453  22.799   9.595  0.00  0.00    +0.013 A 
ATOM     17  C   UNL     1      14.141  22.934  10.177  0.00  0.00    +0.005 A 
ATOM     18  C   UNL     1      13.053  23.482   9.371  0.00  0.00    -0.033 A 
ATOM     28  C   UNL     1      13.314  23.883   7.999  0.00  0.00    +0.005 A 
ATOM     29  C   UNL     1      14.598  23.752   7.424  0.00  0.00    +0.013 A 
BRANCH  18  19
ATOM     19  C   UNL     1      11.616  23.642   9.904  0.00  0.00    +0.119 C 
BRANCH  19  20
ATOM     20  N   UNL     1      10.734  24.624   9.206  0.00  0.00    -0.302 NA
ATOM     21  C   UNL     1      11.216  26.065   9.396  0.00  0.00    +0.066 C 
ATOM     22  C   UNL     1      10.295  27.078   8.642  0.00  0.00    -0.064 C 
ATOM     23  N   UNL     1       8.855  26.919   9.134  0.00  0.00    +0.379 N 
ATOM     24  C   UNL     1       7.997  27.909   8.469  0.00  0.00    -0.096 C 
ATOM     25  H   UNL     1       8.846  27.142  10.227  0.00  0.00    -0.082 HD
ATOM     26  C   UNL     1       8.369  25.488   8.951  0.00  0.00    -0.064 C 
ATOM     27  C   UNL     1       9.308  24.488   9.681  0.00  0.00    +0.066 C 
ENDBRANCH  19  20
ENDBRANCH  18  19
ENDBRANCH  14  15
ENDBRANCH  12  13
TORSDOF 6
ENDMDL
MODEL 3
REMARK VINA RESULT:      -8.9      1.322      1.440
REMARK  Name = C:\Users\Docking\Desktop\test protocol\1iep_ligandH.pdb
REMARK  8 active torsions:
REMARK  status: ('A' for Active; 'I' for Inactive)
REMARK    1  A    between atoms: _5  and  _11
REMARK    2  A    between atoms: _19  and  _21
REMARK    3  A    between atoms: _22  and  _66
REMARK    4  A    between atoms: _27  and  _30
REMARK    5  A    between atoms: _32  and  _33
REMARK    6  A    between atoms: _38  and  _43
REMARK    7  A    between atoms: _43  and  _46
REMARK    8  A    between atoms: _53  and  _55
REMARK                            x       y       z     vdW  Elec       q    Type
REMARK                         _______ _______ _______ _____ _____    ______ ____
ROOT
ATOM     10  C   UNL     1      20.216  25.419   4.966  0.00  0.00    +0.038 A 
ATOM     11  C   UNL     1      18.907  25.380   5.511  0.00  0.00    +0.047 A 
ATOM     12  C   UNL     1      18.324  24.133   5.979  0.00  0.00    +0.035 A 
ATOM     32  C   UNL     1      19.103  22.944   5.880  0.00  0.00    +0.024 A 
ATOM     33  C   UNL     1      20.435  22.965   5.328  0.00  0.00    +0.007 A 
ATOM     34  C   UNL     1      21.015  24.192   4.862  0.00  0.00    -0.029 A 
ATOM     35  C   UNL     1      22.445  24.155   4.274  0.00  0.00    +0.045 C 
ENDROOT
BRANCH  10   9
ATOM      4  C   UNL     1      20.922  28.752   1.584  0.00  0.00    +0.077 A 
ATOM      5  C   UNL     1      20.238  27.974   0.591  0.00  0.00    +0.048 A 
ATOM      6  C   UNL     1      19.726  26.718   0.990  0.00  0.00    +0.116 A 
ATOM      7  N   UNL     1      19.891  26.284   2.287  0.00  0.00    -0.223 NA
ATOM      8  C   UNL     1      20.557  27.058   3.220  0.00  0.00    +0.220 A 
ATOM      9  N   UNL     1      20.727  26.645   4.532  0.00  0.00    -0.283 N 
ATOM     36  H   UNL     1      21.231  27.242   5.187  0.00  0.00    +0.155 HD
ATOM     37  N   UNL     1      21.056  28.260   2.863  0.00  0.00    -0.214 NA
BRANCH   4   3
ATOM      1  C   UNL     1      22.335  31.916  -0.230  0.00  0.00    +0.020 A 
ATOM      2  C   UNL     1      21.760  30.606  -0.027  0.00  0.00    +0.013 A 
ATOM      3  C   UNL     1      21.516  30.100   1.318  0.00  0.00    +0.019 A 
ATOM     38  C   UNL     1      21.867  30.951   2.444  0.00  0.00    +0.120 A 
ATOM     39  N   UNL     1      22.421  32.207   2.219  0.00  0.00    -0.263 NA
ATOM     40  C   UNL     1      22.662  32.704   0.929  0.00  0.00    +0.111 A 
ENDBRANCH   4   3
ENDBRANCH  10   9
BRANCH  12  13
ATOM     13  N   UNL     1      16.997  24.031   6.533  0.00  0.00    -0.281 N 
ATOM     14  C   UNL     1      15.952  23.231   6.100  0.00  0.00    +0.248 C 
ATOM     30  O   UNL     1      15.934  22.637   5.032  0.00  0.00    -0.270 OA
ATOM     31  H   UNL     1      16.805  24.619   7.344  0.00  0.00    +0.155 HD
BRANCH  14  15
ATOM     15  C   UNL     1      14.747  23.082   6.972  0.00  0.00    +0.037 A 
ATOM     16  C   UNL     1      13.661  22.165   6.617  0.00  0.00    +0.013 A 
ATOM     17  C   UNL     1      12.502  22.053   7.467  0.00  0.00    +0.005 A 
ATOM     18  C   UNL     1      12.425  22.859   8.683  0.00  0.00    -0.033 A 
ATOM     28  C   UNL     1      13.520  23.757   9.014  0.00  0.00    +0.005 A 
ATOM     29  C   UNL     1      14.656  23.870   8.182  0.00  0.00    +0.013 A 
BRANCH  18  19
ATOM     19  C   UNL     1      11.217  22.819   9.637  0.00  0.00    +0.119 C 
BRANCH  19  20
ATOM     20  N   UNL     1      10.900  21.511  10.284  0.00  0.00    -0.302 NA
ATOM     21  C   UNL     1       9.528  21.524  10.964  0.00  0.00    +0.066 C 
ATOM     22  C   UNL     1       9.203  20.141  11.616  0.00  0.00    -0.064 C 
ATOM     23  N   UNL     1      10.301  19.782  12.619  0.00  0.00    +0.379 N 
ATOM     24  C   UNL     1       9.968  18.510  13.276  0.00  0.00    -0.096 C 
ATOM     25  H   UNL     1      10.315  20.575  13.403  0.00  0.00    -0.082 HD
ATOM     26  C   UNL     1      11.669  19.769  11.952  0.00  0.00    -0.064 C 
ATOM     27  C   UNL     1      11.970  21.139  11.281  0.00  0.00    +0.066 C 
ENDBRANCH  19  20
ENDBRANCH  18  19
ENDBRANCH  14  15
ENDBRANCH  12  13
TORSDOF 6
ENDMDL
MODEL 4
REMARK VINA RESULT:      -8.7      6.657     12.411
REMARK  Name = C:\Users\Docking\Desktop\test protocol\1iep_ligandH.pdb
REMARK  8 active torsions:
REMARK  status: ('A' for Active; 'I' for Inactive)
REMARK    1  A    between atoms: _5  and  _11
REMARK    2  A    between atoms: _19  and  _21
REMARK    3  A    between atoms: _22  and  _66
REMARK    4  A    between atoms: _27  and  _30
REMARK    5  A    between atoms: _32  and  _33
REMARK    6  A    between atoms: _38  and  _43
REMARK    7  A    between atoms: _43  and  _46
REMARK    8  A    between atoms: _53  and  _55
REMARK                            x       y       z     vdW  Elec       q    Type
REMARK                         _______ _______ _______ _____ _____    ______ ____
ROOT
ATOM     10  C   UNL     1      25.884  35.327  -0.598  0.00  0.00    +0.038 A 
ATOM     11  C   UNL     1      25.099  34.161  -0.407  0.00  0.00    +0.047 A 
ATOM     12  C   UNL     1      24.547  33.831   0.898  0.00  0.00    +0.035 A 
ATOM     32  C   UNL     1      24.811  34.714   1.986  0.00  0.00    +0.024 A 
ATOM     33  C   UNL     1      25.607  35.903   1.809  0.00  0.00    +0.007 A 
ATOM     34  C   UNL     1      26.157  36.231   0.525  0.00  0.00    -0.029 A 
ATOM     35  C   UNL     1      27.009  37.515   0.396  0.00  0.00    +0.045 C 
ENDROOT
BRANCH  10   9
ATOM      4  C   UNL     1      29.028  34.579  -4.147  0.00  0.00    +0.077 A 
ATOM      5  C   UNL     1      29.739  33.591  -3.388  0.00  0.00    +0.048 A 
ATOM      6  C   UNL     1      29.268  33.310  -2.086  0.00  0.00    +0.116 A 
ATOM      7  N   UNL     1      28.167  33.972  -1.590  0.00  0.00    -0.223 NA
ATOM      8  C   UNL     1      27.504  34.921  -2.348  0.00  0.00    +0.220 A 
ATOM      9  N   UNL     1      26.390  35.594  -1.872  0.00  0.00    -0.283 N 
ATOM     36  H   UNL     1      25.934  36.292  -2.459  0.00  0.00    +0.155 HD
ATOM     37  N   UNL     1      27.936  35.209  -3.593  0.00  0.00    -0.214 NA
BRANCH   4   3
ATOM      1  C   UNL     1      28.979  36.218  -7.698  0.00  0.00    +0.020 A 
ATOM      2  C   UNL     1      28.572  35.857  -6.360  0.00  0.00    +0.013 A 
ATOM      3  C   UNL     1      29.402  34.985  -5.539  0.00  0.00    +0.019 A 
ATOM     38  C   UNL     1      30.648  34.491  -6.106  0.00  0.00    +0.120 A 
ATOM     39  N   UNL     1      31.014  34.855  -7.398  0.00  0.00    -0.263 NA
ATOM     40  C   UNL     1      30.222  35.693  -8.198  0.00  0.00    +0.111 A 
ENDBRANCH   4   3
ENDBRANCH  10   9
BRANCH  12  13
ATOM     13  N   UNL     1      23.750  32.657   1.154  0.00  0.00    -0.281 N 
ATOM     14  C   UNL     1      22.421  32.442   0.828  0.00  0.00    +0.248 C 
ATOM     30  O   UNL     1      21.651  33.315   0.454  0.00  0.00    -0.270 OA
ATOM     31  H   UNL     1      24.223  31.892   1.634  0.00  0.00    +0.155 HD
BRANCH  14  15
ATOM     15  C   UNL     1      21.862  31.061   0.948  0.00  0.00    +0.037 A 
ATOM     16  C   UNL     1      21.452  30.301  -0.235  0.00  0.00    +0.013 A 
ATOM     17  C   UNL     1      20.900  28.978  -0.090  0.00  0.00    +0.005 A 
ATOM     18  C   UNL     1      20.756  28.405   1.247  0.00  0.00    -0.033 A 
ATOM     28  C   UNL     1      21.176  29.179   2.403  0.00  0.00    +0.005 A 
ATOM     29  C   UNL     1      21.716  30.477   2.264  0.00  0.00    +0.013 A 
BRANCH  18  19
ATOM     19  C   UNL     1      20.158  27.008   1.498  0.00  0.00    +0.119 C 
BRANCH  19  20
ATOM     20  N   UNL     1      20.425  26.378   2.825  0.00  0.00    -0.302 NA
ATOM     21  C   UNL     1      21.419  25.218   2.721  0.00  0.00    +0.066 C 
ATOM     22  C   UNL     1      21.705  24.585   4.122  0.00  0.00    -0.064 C 
ATOM     23  N   UNL     1      20.389  24.116   4.744  0.00  0.00    +0.379 N 
ATOM     24  C   UNL     1      20.660  23.469   6.036  0.00  0.00    -0.096 C 
ATOM     25  H   UNL     1      19.949  23.348   4.066  0.00  0.00    -0.082 HD
ATOM     26  C   UNL     1      19.393  25.263   4.849  0.00  0.00    -0.064 C 
ATOM     27  C   UNL     1      19.139  25.904   3.456  0.00  0.00    +0.066 C 
ENDBRANCH  19  20
ENDBRANCH  18  19
ENDBRANCH  14  15
ENDBRANCH  12  13
TORSDOF 6
ENDMDL
MODEL 5
REMARK VINA RESULT:      -8.6      9.405     14.829
REMARK  Name = C:\Users\Docking\Desktop\test protocol\1iep_ligandH.pdb
REMARK  8 active torsions:
REMARK  status: ('A' for Active; 'I' for Inactive)
REMARK    1  A    between atoms: _5  and  _11
REMARK    2  A    between atoms: _19  and  _21
REMARK    3  A    between atoms: _22  and  _66
REMARK    4  A    between atoms: _27  and  _30
REMARK    5  A    between atoms: _32  and  _33
REMARK    6  A    between atoms: _38  and  _43
REMARK    7  A    between atoms: _43  and  _46
REMARK    8  A    between atoms: _53  and  _55
REMARK                            x       y       z     vdW  Elec       q    Type
REMARK                         _______ _______ _______ _____ _____    ______ ____
ROOT
ATOM     10  C   UNL     1       9.483  25.516   8.544  0.00  0.00    +0.038 A 
ATOM     11  C   UNL     1       8.130  25.931   8.448  0.00  0.00    +0.047 A 
ATOM     12  C   UNL     1       7.786  27.320   8.184  0.00  0.00    +0.035 A 
ATOM     32  C   UNL     1       8.845  28.259   8.020  0.00  0.00    +0.024 A 
ATOM     33  C   UNL     1      10.226  27.855   8.115  0.00  0.00    +0.007 A 
ATOM     34  C   UNL     1      10.572  26.487   8.377  0.00  0.00    -0.029 A 
ATOM     35  C   UNL     1      12.069  26.112   8.475  0.00  0.00    +0.045 C 
ENDROOT
BRANCH  10   9
ATOM      4  C   UNL     1      10.698  21.929  11.492  0.00  0.00    +0.077 A 
ATOM      5  C   UNL     1      10.824  22.815  12.614  0.00  0.00    +0.048 A 
ATOM      6  C   UNL     1      10.575  24.187  12.388  0.00  0.00    +0.116 A 
ATOM      7  N   UNL     1      10.226  24.630  11.130  0.00  0.00    -0.223 NA
ATOM      8  C   UNL     1      10.114  23.749  10.070  0.00  0.00    +0.220 A 
ATOM      9  N   UNL     1       9.757  24.171   8.799  0.00  0.00    -0.283 N 
ATOM     36  H   UNL     1       9.692  23.491   8.041  0.00  0.00    +0.155 HD
ATOM     37  N   UNL     1      10.348  22.434  10.260  0.00  0.00    -0.214 NA
BRANCH   4   3
ATOM      1  C   UNL     1      10.845  18.239  12.782  0.00  0.00    +0.020 A 
ATOM      2  C   UNL     1      10.606  19.664  12.756  0.00  0.00    +0.013 A 
ATOM      3  C   UNL     1      10.925  20.452  11.572  0.00  0.00    +0.019 A 
ATOM     38  C   UNL     1      11.489  19.762  10.421  0.00  0.00    +0.120 A 
ATOM     39  N   UNL     1      11.709  18.389  10.475  0.00  0.00    -0.263 NA
ATOM     40  C   UNL     1      11.408  17.621  11.610  0.00  0.00    +0.111 A 
ENDBRANCH   4   3
ENDBRANCH  10   9
BRANCH  12  13
ATOM     13  N   UNL     1       6.430  27.801   8.084  0.00  0.00    -0.281 N 
ATOM     14  C   UNL     1       5.483  27.485   7.124  0.00  0.00    +0.248 C 
ATOM     30  O   UNL     1       5.727  26.902   6.078  0.00  0.00    -0.270 OA
ATOM     31  H   UNL     1       6.133  28.454   8.810  0.00  0.00    +0.155 HD
BRANCH  14  15
ATOM     15  C   UNL     1       4.062  27.888   7.352  0.00  0.00    +0.037 A 
ATOM     16  C   UNL     1       3.653  29.294   7.303  0.00  0.00    +0.013 A 
ATOM     17  C   UNL     1       2.279  29.657   7.544  0.00  0.00    +0.005 A 
ATOM     18  C   UNL     1       1.303  28.610   7.835  0.00  0.00    -0.033 A 
ATOM     28  C   UNL     1       1.734  27.223   7.872  0.00  0.00    +0.005 A 
ATOM     29  C   UNL     1       3.080  26.863   7.638  0.00  0.00    +0.013 A 
BRANCH  18  19
ATOM     19  C   UNL     1      -0.181  28.907   8.125  0.00  0.00    +0.119 C 
BRANCH  19  20
ATOM     20  N   UNL     1      -0.583  29.046   9.556  0.00  0.00    -0.302 NA
ATOM     21  C   UNL     1      -1.395  27.842  10.044  0.00  0.00    +0.066 C 
ATOM     22  C   UNL     1      -1.788  27.993  11.549  0.00  0.00    -0.064 C 
ATOM     23  N   UNL     1      -2.575  29.291  11.740  0.00  0.00    +0.379 N 
ATOM     24  C   UNL     1      -2.996  29.407  13.144  0.00  0.00    -0.096 C 
ATOM     25  H   UNL     1      -3.496  29.223  11.115  0.00  0.00    -0.082 HD
ATOM     26  C   UNL     1      -1.776  30.492  11.256  0.00  0.00    -0.064 C 
ATOM     27  C   UNL     1      -1.365  30.319   9.767  0.00  0.00    +0.066 C 
ENDBRANCH  19  20
ENDBRANCH  18  19
ENDBRANCH  14  15
ENDBRANCH  12  13
TORSDOF 6
ENDMDL
