MODEL 1
REMARK VINA RESULT:      -6.7      0.000      0.000
REMARK  Name = C:\Users\Docking\Desktop\test protocol\1iep_ligandH.pdb
REMARK  8 active torsions:
REMARK  status: ('A' for Active; 'I' for Inactive)
REMARK    1  A    between atoms: _5  and  _11
REMARK    2  A    between atoms: _19  and  _21
REMARK    3  A    between atoms: _22  and  _66
REMARK    4  A    between atoms: _27  and  _30
REMARK    5  A    between atoms: _32  and  _33
REMARK    6  A    between atoms: _38  and  _43
REMARK    7  A    between atoms: _43  and  _46
REMARK    8  A    between atoms: _53  and  _55
REMARK                            x       y       z     vdW  Elec       q    Type
REMARK                         _______ _______ _______ _____ _____    ______ ____
ROOT
ATOM     10  C   UNL     1      31.866 -24.000 -24.706  0.00  0.00    +0.038 A 
ATOM     11  C   UNL     1      33.234 -24.223 -25.007  0.00  0.00    +0.047 A 
ATOM     12  C   UNL     1      33.779 -23.901 -26.317  0.00  0.00    +0.035 A 
ATOM     32  C   UNL     1      32.903 -23.349 -27.296  0.00  0.00    +0.024 A 
ATOM     33  C   UNL     1      31.510 -23.116 -27.007  0.00  0.00    +0.007 A 
ATOM     34  C   UNL     1      30.966 -23.434 -25.718  0.00  0.00    -0.029 A 
ATOM     35  C   UNL     1      29.463 -23.169 -25.467  0.00  0.00    +0.045 C 
ENDROOT
BRANCH  10   9
ATOM      4  C   UNL     1      31.278 -23.052 -20.038  0.00  0.00    +0.077 A 
ATOM      5  C   UNL     1      31.990 -21.811 -20.139  0.00  0.00    +0.048 A 
ATOM      6  C   UNL     1      32.498 -21.456 -21.409  0.00  0.00    +0.116 A 
ATOM      7  N   UNL     1      32.302 -22.288 -22.490  0.00  0.00    -0.223 NA
ATOM      8  C   UNL     1      31.612 -23.479 -22.358  0.00  0.00    +0.220 A 
ATOM      9  N   UNL     1      31.396 -24.328 -23.433  0.00  0.00    -0.283 N 
ATOM     36  H   UNL     1      30.889 -25.201 -23.292  0.00  0.00    +0.155 HD
ATOM     37  N   UNL     1      31.118 -23.841 -21.155  0.00  0.00    -0.214 NA
BRANCH   4   3
ATOM      1  C   UNL     1      30.053 -25.419 -17.174  0.00  0.00    +0.020 A 
ATOM      2  C   UNL     1      30.644 -24.978 -18.417  0.00  0.00    +0.013 A 
ATOM      3  C   UNL     1      30.678 -23.563 -18.765  0.00  0.00    +0.019 A 
ATOM     38  C   UNL     1      30.103 -22.612 -17.825  0.00  0.00    +0.120 A 
ATOM     39  N   UNL     1      29.540 -23.066 -16.636  0.00  0.00    -0.263 NA
ATOM     40  C   UNL     1      29.499 -24.425 -16.292  0.00  0.00    +0.111 A 
ENDBRANCH   4   3
ENDBRANCH  10   9
BRANCH  12  13
ATOM     13  N   UNL     1      35.158 -24.114 -26.682  0.00  0.00    -0.281 N 
ATOM     14  C   UNL     1      35.669 -25.046 -27.571  0.00  0.00    +0.248 C 
ATOM     30  O   UNL     1      35.035 -25.985 -28.027  0.00  0.00    -0.270 OA
ATOM     31  H   UNL     1      35.839 -23.503 -26.232  0.00  0.00    +0.155 HD
BRANCH  14  15
ATOM     15  C   UNL     1      37.095 -24.925 -28.003  0.00  0.00    +0.037 A 
ATOM     16  C   UNL     1      37.942 -26.109 -28.166  0.00  0.00    +0.013 A 
ATOM     17  C   UNL     1      39.319 -25.963 -28.568  0.00  0.00    +0.005 A 
ATOM     18  C   UNL     1      39.856 -24.627 -28.810  0.00  0.00    -0.033 A 
ATOM     28  C   UNL     1      38.992 -23.470 -28.646  0.00  0.00    +0.005 A 
ATOM     29  C   UNL     1      37.642 -23.609 -28.251  0.00  0.00    +0.013 A 
BRANCH  18  19
ATOM     19  C   UNL     1      41.319 -24.375 -29.221  0.00  0.00    +0.119 C 
BRANCH  19  20
ATOM     20  N   UNL     1      42.331 -24.284 -28.126  0.00  0.00    -0.302 NA
ATOM     21  C   UNL     1      42.857 -25.662 -27.714  0.00  0.00    +0.066 C 
ATOM     22  C   UNL     1      43.931 -25.546 -26.583  0.00  0.00    -0.064 C 
ATOM     23  N   UNL     1      43.327 -24.816 -25.383  0.00  0.00    +0.379 N 
ATOM     24  C   UNL     1      44.315 -24.756 -24.296  0.00  0.00    -0.096 C 
ATOM     25  H   UNL     1      42.462 -25.418 -25.021  0.00  0.00    -0.082 HD
ATOM     26  C   UNL     1      42.799 -23.446 -25.785  0.00  0.00    -0.064 C 
ATOM     27  C   UNL     1      41.754 -23.570 -26.929  0.00  0.00    +0.066 C 
ENDBRANCH  19  20
ENDBRANCH  18  19
ENDBRANCH  14  15
ENDBRANCH  12  13
TORSDOF 6
ENDMDL
MODEL 2
REMARK VINA RESULT:      -6.7      1.799      2.484
REMARK  Name = C:\Users\Docking\Desktop\test protocol\1iep_ligandH.pdb
REMARK  8 active torsions:
REMARK  status: ('A' for Active; 'I' for Inactive)
REMARK    1  A    between atoms: _5  and  _11
REMARK    2  A    between atoms: _19  and  _21
REMARK    3  A    between atoms: _22  and  _66
REMARK    4  A    between atoms: _27  and  _30
REMARK    5  A    between atoms: _32  and  _33
REMARK    6  A    between atoms: _38  and  _43
REMARK    7  A    between atoms: _43  and  _46
REMARK    8  A    between atoms: _53  and  _55
REMARK                            x       y       z     vdW  Elec       q    Type
REMARK                         _______ _______ _______ _____ _____    ______ ____
ROOT
ATOM     10  C   UNL     1      31.879 -23.748 -24.466  0.00  0.00    +0.038 A 
ATOM     11  C   UNL     1      33.155 -24.244 -24.836  0.00  0.00    +0.047 A 
ATOM     12  C   UNL     1      33.750 -23.909 -26.120  0.00  0.00    +0.035 A 
ATOM     32  C   UNL     1      33.018 -23.063 -27.003  0.00  0.00    +0.024 A 
ATOM     33  C   UNL     1      31.719 -22.551 -26.645  0.00  0.00    +0.007 A 
ATOM     34  C   UNL     1      31.126 -22.880 -25.380  0.00  0.00    -0.029 A 
ATOM     35  C   UNL     1      29.727 -22.308 -25.051  0.00  0.00    +0.045 C 
ENDROOT
BRANCH  10   9
ATOM      4  C   UNL     1      31.295 -23.018 -19.758  0.00  0.00    +0.077 A 
ATOM      5  C   UNL     1      32.125 -21.849 -19.777  0.00  0.00    +0.048 A 
ATOM      6  C   UNL     1      32.689 -21.472 -21.017  0.00  0.00    +0.116 A 
ATOM      7  N   UNL     1      32.435 -22.218 -22.147  0.00  0.00    -0.223 NA
ATOM      8  C   UNL     1      31.631 -23.342 -22.094  0.00  0.00    +0.220 A 
ATOM      9  N   UNL     1      31.355 -24.102 -23.221  0.00  0.00    -0.283 N 
ATOM     36  H   UNL     1      30.764 -24.928 -23.139  0.00  0.00    +0.155 HD
ATOM     37  N   UNL     1      31.082 -23.723 -20.922  0.00  0.00    -0.214 NA
BRANCH   4   3
ATOM      1  C   UNL     1      29.941 -25.409 -16.974  0.00  0.00    +0.020 A 
ATOM      2  C   UNL     1      30.601 -24.956 -18.177  0.00  0.00    +0.013 A 
ATOM      3  C   UNL     1      30.625 -23.541 -18.526  0.00  0.00    +0.019 A 
ATOM     38  C   UNL     1      29.968 -22.603 -17.629  0.00  0.00    +0.120 A 
ATOM     39  N   UNL     1      29.339 -23.068 -16.478  0.00  0.00    -0.263 NA
ATOM     40  C   UNL     1      29.307 -24.427 -16.133  0.00  0.00    +0.111 A 
ENDBRANCH   4   3
ENDBRANCH  10   9
BRANCH  12  13
ATOM     13  N   UNL     1      35.039 -24.390 -26.553  0.00  0.00    -0.281 N 
ATOM     14  C   UNL     1      35.360 -25.003 -27.753  0.00  0.00    +0.248 C 
ATOM     30  O   UNL     1      34.540 -25.427 -28.553  0.00  0.00    -0.270 OA
ATOM     31  H   UNL     1      35.808 -24.262 -25.895  0.00  0.00    +0.155 HD
BRANCH  14  15
ATOM     15  C   UNL     1      36.800 -25.186 -28.108  0.00  0.00    +0.037 A 
ATOM     16  C   UNL     1      37.325 -26.494 -28.506  0.00  0.00    +0.013 A 
ATOM     17  C   UNL     1      38.722 -26.646 -28.827  0.00  0.00    +0.005 A 
ATOM     18  C   UNL     1      39.604 -25.484 -28.752  0.00  0.00    -0.033 A 
ATOM     28  C   UNL     1      39.056 -24.197 -28.358  0.00  0.00    +0.005 A 
ATOM     29  C   UNL     1      37.688 -24.044 -28.042  0.00  0.00    +0.013 A 
BRANCH  18  19
ATOM     19  C   UNL     1      41.112 -25.558 -29.056  0.00  0.00    +0.119 C 
BRANCH  19  20
ATOM     20  N   UNL     1      41.653 -26.872 -29.518  0.00  0.00    -0.302 NA
ATOM     21  C   UNL     1      42.642 -27.470 -28.514  0.00  0.00    +0.066 C 
ATOM     22  C   UNL     1      43.181 -28.854 -29.002  0.00  0.00    -0.064 C 
ATOM     23  N   UNL     1      43.836 -28.689 -30.375  0.00  0.00    +0.379 N 
ATOM     24  C   UNL     1      44.394 -29.977 -30.811  0.00  0.00    -0.096 C 
ATOM     25  H   UNL     1      44.683 -27.973 -30.261  0.00  0.00    -0.082 HD
ATOM     26  C   UNL     1      42.859 -28.091 -31.378  0.00  0.00    -0.064 C 
ATOM     27  C   UNL     1      42.308 -26.730 -30.870  0.00  0.00    +0.066 C 
ENDBRANCH  19  20
ENDBRANCH  18  19
ENDBRANCH  14  15
ENDBRANCH  12  13
TORSDOF 6
ENDMDL
MODEL 3
REMARK VINA RESULT:      -6.4      2.433     12.389
REMARK  Name = C:\Users\Docking\Desktop\test protocol\1iep_ligandH.pdb
REMARK  8 active torsions:
REMARK  status: ('A' for Active; 'I' for Inactive)
REMARK    1  A    between atoms: _5  and  _11
REMARK    2  A    between atoms: _19  and  _21
REMARK    3  A    between atoms: _22  and  _66
REMARK    4  A    between atoms: _27  and  _30
REMARK    5  A    between atoms: _32  and  _33
REMARK    6  A    between atoms: _38  and  _43
REMARK    7  A    between atoms: _43  and  _46
REMARK    8  A    between atoms: _53  and  _55
REMARK                            x       y       z     vdW  Elec       q    Type
REMARK                         _______ _______ _______ _____ _____    ______ ____
ROOT
ATOM     10  C   UNL     1      33.706 -24.435 -27.004  0.00  0.00    +0.038 A 
ATOM     11  C   UNL     1      33.539 -24.546 -25.600  0.00  0.00    +0.047 A 
ATOM     12  C   UNL     1      32.326 -24.076 -24.948  0.00  0.00    +0.035 A 
ATOM     32  C   UNL     1      31.303 -23.502 -25.756  0.00  0.00    +0.024 A 
ATOM     33  C   UNL     1      31.457 -23.381 -27.185  0.00  0.00    +0.007 A 
ATOM     34  C   UNL     1      32.652 -23.840 -27.834  0.00  0.00    -0.029 A 
ATOM     35  C   UNL     1      32.766 -23.679 -29.367  0.00  0.00    +0.045 C 
ENDROOT
BRANCH  10   9
ATOM      4  C   UNL     1      38.348 -23.945 -28.125  0.00  0.00    +0.077 A 
ATOM      5  C   UNL     1      38.411 -22.636 -27.541  0.00  0.00    +0.048 A 
ATOM      6  C   UNL     1      37.225 -22.122 -26.969  0.00  0.00    +0.116 A 
ATOM      7  N   UNL     1      36.069 -22.870 -26.985  0.00  0.00    -0.223 NA
ATOM      8  C   UNL     1      36.041 -24.129 -27.558  0.00  0.00    +0.220 A 
ATOM      9  N   UNL     1      34.891 -24.902 -27.578  0.00  0.00    -0.283 N 
ATOM     36  H   UNL     1      34.910 -25.823 -28.016  0.00  0.00    +0.155 HD
ATOM     37  N   UNL     1      37.160 -24.641 -28.112  0.00  0.00    -0.214 NA
BRANCH   4   3
ATOM      1  C   UNL     1      41.028 -26.614 -29.119  0.00  0.00    +0.020 A 
ATOM      2  C   UNL     1      39.890 -26.004 -28.472  0.00  0.00    +0.013 A 
ATOM      3  C   UNL     1      39.517 -24.625 -28.765  0.00  0.00    +0.019 A 
ATOM     38  C   UNL     1      40.324 -23.887 -29.725  0.00  0.00    +0.120 A 
ATOM     39  N   UNL     1      41.416 -24.500 -30.331  0.00  0.00    -0.263 NA
ATOM     40  C   UNL     1      41.785 -25.826 -30.055  0.00  0.00    +0.111 A 
ENDBRANCH   4   3
ENDBRANCH  10   9
BRANCH  12  13
ATOM     13  N   UNL     1      32.103 -24.155 -23.525  0.00  0.00    -0.281 N 
ATOM     14  C   UNL     1      31.797 -23.123 -22.653  0.00  0.00    +0.248 C 
ATOM     30  O   UNL     1      31.879 -21.936 -22.931  0.00  0.00    -0.270 OA
ATOM     31  H   UNL     1      32.181 -25.084 -23.111  0.00  0.00    +0.155 HD
BRANCH  14  15
ATOM     15  C   UNL     1      31.349 -23.458 -21.267  0.00  0.00    +0.037 A 
ATOM     16  C   UNL     1      32.166 -23.114 -20.100  0.00  0.00    +0.013 A 
ATOM     17  C   UNL     1      31.718 -23.464 -18.776  0.00  0.00    +0.005 A 
ATOM     18  C   UNL     1      30.445 -24.161 -18.611  0.00  0.00    -0.033 A 
ATOM     28  C   UNL     1      29.652 -24.485 -19.785  0.00  0.00    +0.005 A 
ATOM     29  C   UNL     1      30.088 -24.145 -21.085  0.00  0.00    +0.013 A 
BRANCH  18  19
ATOM     19  C   UNL     1      29.899 -24.592 -17.237  0.00  0.00    +0.119 C 
BRANCH  19  20
ATOM     20  N   UNL     1      29.010 -23.629 -16.521  0.00  0.00    -0.302 NA
ATOM     21  C   UNL     1      27.574 -23.670 -17.051  0.00  0.00    +0.066 C 
ATOM     22  C   UNL     1      26.653 -22.672 -16.276  0.00  0.00    -0.064 C 
ATOM     23  N   UNL     1      27.230 -21.260 -16.385  0.00  0.00    +0.379 N 
ATOM     24  C   UNL     1      26.335 -20.310 -15.707  0.00  0.00    -0.096 C 
ATOM     25  H   UNL     1      27.255 -20.988 -17.466  0.00  0.00    -0.082 HD
ATOM     26  C   UNL     1      28.659 -21.210 -15.863  0.00  0.00    -0.064 C 
ATOM     27  C   UNL     1      29.559 -22.227 -16.620  0.00  0.00    +0.066 C 
ENDBRANCH  19  20
ENDBRANCH  18  19
ENDBRANCH  14  15
ENDBRANCH  12  13
TORSDOF 6
ENDMDL
MODEL 4
REMARK VINA RESULT:      -6.3     38.591     41.361
REMARK  Name = C:\Users\Docking\Desktop\test protocol\1iep_ligandH.pdb
REMARK  8 active torsions:
REMARK  status: ('A' for Active; 'I' for Inactive)
REMARK    1  A    between atoms: _5  and  _11
REMARK    2  A    between atoms: _19  and  _21
REMARK    3  A    between atoms: _22  and  _66
REMARK    4  A    between atoms: _27  and  _30
REMARK    5  A    between atoms: _32  and  _33
REMARK    6  A    between atoms: _38  and  _43
REMARK    7  A    between atoms: _43  and  _46
REMARK    8  A    between atoms: _53  and  _55
REMARK                            x       y       z     vdW  Elec       q    Type
REMARK                         _______ _______ _______ _____ _____    ______ ____
ROOT
ATOM     10  C   UNL     1      28.925 -28.794  13.113  0.00  0.00    +0.038 A 
ATOM     11  C   UNL     1      29.470 -27.631  13.715  0.00  0.00    +0.047 A 
ATOM     12  C   UNL     1      30.862 -27.581  14.133  0.00  0.00    +0.035 A 
ATOM     32  C   UNL     1      31.673 -28.733  13.919  0.00  0.00    +0.024 A 
ATOM     33  C   UNL     1      31.136 -29.925  13.310  0.00  0.00    +0.007 A 
ATOM     34  C   UNL     1      29.763 -29.981  12.898  0.00  0.00    -0.029 A 
ATOM     35  C   UNL     1      29.239 -31.286  12.256  0.00  0.00    +0.045 C 
ENDROOT
BRANCH  10   9
ATOM      4  C   UNL     1      24.240 -28.550  14.124  0.00  0.00    +0.077 A 
ATOM      5  C   UNL     1      24.488 -28.455  15.533  0.00  0.00    +0.048 A 
ATOM      6  C   UNL     1      25.836 -28.480  15.958  0.00  0.00    +0.116 A 
ATOM      7  N   UNL     1      26.851 -28.591  15.032  0.00  0.00    -0.223 NA
ATOM      8  C   UNL     1      26.576 -28.683  13.680  0.00  0.00    +0.220 A 
ATOM      9  N   UNL     1      27.582 -28.787  12.732  0.00  0.00    -0.283 N 
ATOM     36  H   UNL     1      27.338 -28.860  11.744  0.00  0.00    +0.155 HD
ATOM     37  N   UNL     1      25.298 -28.663  13.250  0.00  0.00    -0.214 NA
BRANCH   4   3
ATOM      1  C   UNL     1      20.355 -28.664  13.677  0.00  0.00    +0.020 A 
ATOM      2  C   UNL     1      21.654 -28.687  14.309  0.00  0.00    +0.013 A 
ATOM      3  C   UNL     1      22.870 -28.534  13.520  0.00  0.00    +0.019 A 
ATOM     38  C   UNL     1      22.735 -28.358  12.082  0.00  0.00    +0.120 A 
ATOM     39  N   UNL     1      21.471 -28.341  11.500  0.00  0.00    -0.263 NA
ATOM     40  C   UNL     1      20.294 -28.489  12.250  0.00  0.00    +0.111 A 
ENDBRANCH   4   3
ENDBRANCH  10   9
BRANCH  12  13
ATOM     13  N   UNL     1      31.468 -26.431  14.756  0.00  0.00    -0.281 N 
ATOM     14  C   UNL     1      31.369 -26.027  16.078  0.00  0.00    +0.248 C 
ATOM     30  O   UNL     1      30.566 -26.480  16.880  0.00  0.00    -0.270 OA
ATOM     31  H   UNL     1      32.039 -25.842  14.150  0.00  0.00    +0.155 HD
BRANCH  14  15
ATOM     15  C   UNL     1      32.284 -24.957  16.577  0.00  0.00    +0.037 A 
ATOM     16  C   UNL     1      33.359 -25.257  17.526  0.00  0.00    +0.013 A 
ATOM     17  C   UNL     1      34.217 -24.202  18.004  0.00  0.00    +0.005 A 
ATOM     18  C   UNL     1      34.005 -22.836  17.532  0.00  0.00    -0.033 A 
ATOM     28  C   UNL     1      32.934 -22.567  16.586  0.00  0.00    +0.005 A 
ATOM     29  C   UNL     1      32.091 -23.598  16.116  0.00  0.00    +0.013 A 
BRANCH  18  19
ATOM     19  C   UNL     1      34.859 -21.645  18.005  0.00  0.00    +0.119 C 
BRANCH  19  20
ATOM     20  N   UNL     1      34.164 -20.565  18.766  0.00  0.00    -0.302 NA
ATOM     21  C   UNL     1      35.046 -19.326  18.941  0.00  0.00    +0.066 C 
ATOM     22  C   UNL     1      34.295 -18.197  19.719  0.00  0.00    -0.064 C 
ATOM     23  N   UNL     1      33.840 -18.733  21.077  0.00  0.00    +0.379 N 
ATOM     24  C   UNL     1      33.185 -17.658  21.835  0.00  0.00    -0.096 C 
ATOM     25  H   UNL     1      34.752 -19.039  21.642  0.00  0.00    -0.082 HD
ATOM     26  C   UNL     1      32.964 -19.967  20.913  0.00  0.00    -0.064 C 
ATOM     27  C   UNL     1      33.710 -21.072  20.113  0.00  0.00    +0.066 C 
ENDBRANCH  19  20
ENDBRANCH  18  19
ENDBRANCH  14  15
ENDBRANCH  12  13
TORSDOF 6
ENDMDL
MODEL 5
REMARK VINA RESULT:      -6.3     14.534     19.509
REMARK  Name = C:\Users\Docking\Desktop\test protocol\1iep_ligandH.pdb
REMARK  8 active torsions:
REMARK  status: ('A' for Active; 'I' for Inactive)
REMARK    1  A    between atoms: _5  and  _11
REMARK    2  A    between atoms: _19  and  _21
REMARK    3  A    between atoms: _22  and  _66
REMARK    4  A    between atoms: _27  and  _30
REMARK    5  A    between atoms: _32  and  _33
REMARK    6  A    between atoms: _38  and  _43
REMARK    7  A    between atoms: _43  and  _46
REMARK    8  A    between atoms: _53  and  _55
REMARK                            x       y       z     vdW  Elec       q    Type
REMARK                         _______ _______ _______ _____ _____    ______ ____
ROOT
ATOM     10  C   UNL     1      36.920 -20.342  -7.580  0.00  0.00    +0.038 A 
ATOM     11  C   UNL     1      37.179 -21.736  -7.566  0.00  0.00    +0.047 A 
ATOM     12  C   UNL     1      37.735 -22.387  -6.391  0.00  0.00    +0.035 A 
ATOM     32  C   UNL     1      38.014 -21.588  -5.244  0.00  0.00    +0.024 A 
ATOM     33  C   UNL     1      37.759 -20.169  -5.241  0.00  0.00    +0.007 A 
ATOM     34  C   UNL     1      37.212 -19.521  -6.398  0.00  0.00    -0.029 A 
ATOM     35  C   UNL     1      36.964 -17.995  -6.341  0.00  0.00    +0.045 C 
ENDROOT
BRANCH  10   9
ATOM      4  C   UNL     1      37.374 -17.981 -11.734  0.00  0.00    +0.077 A 
ATOM      5  C   UNL     1      38.794 -17.855 -11.575  0.00  0.00    +0.048 A 
ATOM      6  C   UNL     1      39.368 -18.405 -10.407  0.00  0.00    +0.116 A 
ATOM      7  N   UNL     1      38.571 -19.032  -9.474  0.00  0.00    -0.223 NA
ATOM      8  C   UNL     1      37.205 -19.135  -9.657  0.00  0.00    +0.220 A 
ATOM      9  N   UNL     1      36.385 -19.769  -8.736  0.00  0.00    -0.283 N 
ATOM     36  H   UNL     1      35.381 -19.817  -8.904  0.00  0.00    +0.155 HD
ATOM     37  N   UNL     1      36.632 -18.617 -10.764  0.00  0.00    -0.214 NA
BRANCH   4   3
ATOM      1  C   UNL     1      35.942 -17.520 -15.345  0.00  0.00    +0.020 A 
ATOM      2  C   UNL     1      36.689 -18.068 -14.236  0.00  0.00    +0.013 A 
ATOM      3  C   UNL     1      36.622 -17.454 -12.916  0.00  0.00    +0.019 A 
ATOM     38  C   UNL     1      35.781 -16.278 -12.750  0.00  0.00    +0.120 A 
ATOM     39  N   UNL     1      35.074 -15.772 -13.836  0.00  0.00    -0.263 NA
ATOM     40  C   UNL     1      35.133 -16.353 -15.111  0.00  0.00    +0.111 A 
ENDBRANCH   4   3
ENDBRANCH  10   9
BRANCH  12  13
ATOM     13  N   UNL     1      38.026 -23.798  -6.321  0.00  0.00    -0.281 N 
ATOM     14  C   UNL     1      39.249 -24.425  -6.499  0.00  0.00    +0.248 C 
ATOM     30  O   UNL     1      40.243 -23.883  -6.957  0.00  0.00    -0.270 OA
ATOM     31  H   UNL     1      37.235 -24.408  -6.117  0.00  0.00    +0.155 HD
BRANCH  14  15
ATOM     15  C   UNL     1      39.382 -25.866  -6.126  0.00  0.00    +0.037 A 
ATOM     16  C   UNL     1      38.924 -26.929  -7.025  0.00  0.00    +0.013 A 
ATOM     17  C   UNL     1      39.048 -28.311  -6.634  0.00  0.00    +0.005 A 
ATOM     18  C   UNL     1      39.635 -28.638  -5.337  0.00  0.00    -0.033 A 
ATOM     28  C   UNL     1      40.086 -27.564  -4.467  0.00  0.00    +0.005 A 
ATOM     29  C   UNL     1      39.964 -26.208  -4.846  0.00  0.00    +0.013 A 
BRANCH  18  19
ATOM     19  C   UNL     1      39.788 -30.084  -4.829  0.00  0.00    +0.119 C 
BRANCH  19  20
ATOM     20  N   UNL     1      41.122 -30.482  -4.289  0.00  0.00    -0.302 NA
ATOM     21  C   UNL     1      41.639 -31.772  -4.931  0.00  0.00    +0.066 C 
ATOM     22  C   UNL     1      43.046 -32.162  -4.371  0.00  0.00    -0.064 C 
ATOM     23  N   UNL     1      42.965 -32.307  -2.851  0.00  0.00    +0.379 N 
ATOM     24  C   UNL     1      44.273 -32.730  -2.328  0.00  0.00    -0.096 C 
ATOM     25  H   UNL     1      42.233 -33.118  -2.627  0.00  0.00    -0.082 HD
ATOM     26  C   UNL     1      42.450 -31.029  -2.205  0.00  0.00    -0.064 C 
ATOM     27  C   UNL     1      41.064 -30.635  -2.789  0.00  0.00    +0.066 C 
ENDBRANCH  19  20
ENDBRANCH  18  19
ENDBRANCH  14  15
ENDBRANCH  12  13
TORSDOF 6
ENDMDL
