MODEL 1
REMARK VINA RESULT:      -8.4      0.000      0.000
REMARK  Name = C:\Users\Docking\Desktop\test protocol\1iep_ligandH.pdb
REMARK  8 active torsions:
REMARK  status: ('A' for Active; 'I' for Inactive)
REMARK    1  A    between atoms: _5  and  _11
REMARK    2  A    between atoms: _19  and  _21
REMARK    3  A    between atoms: _22  and  _66
REMARK    4  A    between atoms: _27  and  _30
REMARK    5  A    between atoms: _32  and  _33
REMARK    6  A    between atoms: _38  and  _43
REMARK    7  A    between atoms: _43  and  _46
REMARK    8  A    between atoms: _53  and  _55
REMARK                            x       y       z     vdW  Elec       q    Type
REMARK                         _______ _______ _______ _____ _____    ______ ____
ROOT
ATOM     10  C   UNL     1      10.807  23.575   8.594  0.00  0.00    +0.038 A 
ATOM     11  C   UNL     1      11.973  23.712   7.798  0.00  0.00    +0.047 A 
ATOM     12  C   UNL     1      13.210  23.036   8.154  0.00  0.00    +0.035 A 
ATOM     32  C   UNL     1      13.224  22.226   9.327  0.00  0.00    +0.024 A 
ATOM     33  C   UNL     1      12.048  22.076  10.148  0.00  0.00    +0.007 A 
ATOM     34  C   UNL     1      10.825  22.743   9.803  0.00  0.00    -0.029 A 
ATOM     35  C   UNL     1       9.597  22.551  10.723  0.00  0.00    +0.045 C 
ENDROOT
BRANCH  10   9
ATOM      4  C   UNL     1       7.915  27.406   8.643  0.00  0.00    +0.077 A 
ATOM      5  C   UNL     1       8.778  28.119   9.541  0.00  0.00    +0.048 A 
ATOM      6  C   UNL     1       9.952  27.462   9.972  0.00  0.00    +0.116 A 
ATOM      7  N   UNL     1      10.233  26.187   9.531  0.00  0.00    -0.223 NA
ATOM      8  C   UNL     1       9.379  25.527   8.667  0.00  0.00    +0.220 A 
ATOM      9  N   UNL     1       9.645  24.247   8.205  0.00  0.00    -0.283 N 
ATOM     36  H   UNL     1       8.986  23.791   7.575  0.00  0.00    +0.155 HD
ATOM     37  N   UNL     1       8.250  26.132   8.242  0.00  0.00    -0.214 NA
BRANCH   4   3
ATOM      1  C   UNL     1       5.001  29.851   7.731  0.00  0.00    +0.020 A 
ATOM      2  C   UNL     1       6.244  29.359   8.279  0.00  0.00    +0.013 A 
ATOM      3  C   UNL     1       6.639  27.968   8.097  0.00  0.00    +0.019 A 
ATOM     38  C   UNL     1       5.749  27.094   7.348  0.00  0.00    +0.120 A 
ATOM     39  N   UNL     1       4.558  27.596   6.832  0.00  0.00    -0.263 NA
ATOM     40  C   UNL     1       4.166  28.932   7.003  0.00  0.00    +0.111 A 
ENDBRANCH   4   3
ENDBRANCH  10   9
BRANCH  12  13
ATOM     13  N   UNL     1      14.428  23.144   7.389  0.00  0.00    -0.281 N 
ATOM     14  C   UNL     1      14.643  22.769   6.073  0.00  0.00    +0.248 C 
ATOM     30  O   UNL     1      13.875  22.083   5.416  0.00  0.00    -0.270 OA
ATOM     31  H   UNL     1      15.228  23.546   7.877  0.00  0.00    +0.155 HD
BRANCH  14  15
ATOM     15  C   UNL     1      15.900  23.208   5.394  0.00  0.00    +0.037 A 
ATOM     16  C   UNL     1      15.880  23.738   4.028  0.00  0.00    +0.013 A 
ATOM     17  C   UNL     1      17.109  24.138   3.390  0.00  0.00    +0.005 A 
ATOM     18  C   UNL     1      18.369  24.010   4.118  0.00  0.00    -0.033 A 
ATOM     28  C   UNL     1      18.359  23.485   5.474  0.00  0.00    +0.005 A 
ATOM     29  C   UNL     1      17.157  23.091   6.102  0.00  0.00    +0.013 A 
BRANCH  18  19
ATOM     19  C   UNL     1      19.730  24.392   3.508  0.00  0.00    +0.119 C 
BRANCH  19  20
ATOM     20  N   UNL     1      19.804  25.678   2.753  0.00  0.00    -0.302 NA
ATOM     21  C   UNL     1      21.209  25.942   2.203  0.00  0.00    +0.066 C 
ATOM     22  C   UNL     1      21.263  27.281   1.397  0.00  0.00    -0.064 C 
ATOM     23  N   UNL     1      20.807  28.432   2.295  0.00  0.00    +0.379 N 
ATOM     24  C   UNL     1      20.912  29.700   1.558  0.00  0.00    -0.096 C 
ATOM     25  H   UNL     1      21.509  28.485   3.160  0.00  0.00    -0.082 HD
ATOM     26  C   UNL     1      19.412  28.177   2.847  0.00  0.00    -0.064 C 
ATOM     27  C   UNL     1      19.362  26.830   3.622  0.00  0.00    +0.066 C 
ENDBRANCH  19  20
ENDBRANCH  18  19
ENDBRANCH  14  15
ENDBRANCH  12  13
TORSDOF 6
ENDMDL
MODEL 2
REMARK VINA RESULT:      -8.4      2.078     12.150
REMARK  Name = C:\Users\Docking\Desktop\test protocol\1iep_ligandH.pdb
REMARK  8 active torsions:
REMARK  status: ('A' for Active; 'I' for Inactive)
REMARK    1  A    between atoms: _5  and  _11
REMARK    2  A    between atoms: _19  and  _21
REMARK    3  A    between atoms: _22  and  _66
REMARK    4  A    between atoms: _27  and  _30
REMARK    5  A    between atoms: _32  and  _33
REMARK    6  A    between atoms: _38  and  _43
REMARK    7  A    between atoms: _43  and  _46
REMARK    8  A    between atoms: _53  and  _55
REMARK                            x       y       z     vdW  Elec       q    Type
REMARK                         _______ _______ _______ _____ _____    ______ ____
ROOT
ATOM     10  C   UNL     1      19.947  25.430   4.278  0.00  0.00    +0.038 A 
ATOM     11  C   UNL     1      18.619  25.270   4.749  0.00  0.00    +0.047 A 
ATOM     12  C   UNL     1      17.993  23.958   4.805  0.00  0.00    +0.035 A 
ATOM     32  C   UNL     1      18.751  22.829   4.377  0.00  0.00    +0.024 A 
ATOM     33  C   UNL     1      20.102  22.974   3.894  0.00  0.00    +0.007 A 
ATOM     34  C   UNL     1      20.723  24.266   3.834  0.00  0.00    -0.029 A 
ATOM     35  C   UNL     1      22.172  24.363   3.302  0.00  0.00    +0.045 C 
ENDROOT
BRANCH  10   9
ATOM      4  C   UNL     1      21.078  29.494   1.988  0.00  0.00    +0.077 A 
ATOM      5  C   UNL     1      20.551  29.009   0.745  0.00  0.00    +0.048 A 
ATOM      6  C   UNL     1      20.004  27.707   0.736  0.00  0.00    +0.116 A 
ATOM      7  N   UNL     1      19.990  26.953   1.889  0.00  0.00    -0.223 NA
ATOM      8  C   UNL     1      20.509  27.450   3.071  0.00  0.00    +0.220 A 
ATOM      9  N   UNL     1      20.498  26.713   4.246  0.00  0.00    -0.283 N 
ATOM     36  H   UNL     1      20.897  27.112   5.095  0.00  0.00    +0.155 HD
ATOM     37  N   UNL     1      21.038  28.691   3.106  0.00  0.00    -0.214 NA
BRANCH   4   3
ATOM      1  C   UNL     1      23.224  32.719   1.442  0.00  0.00    +0.020 A 
ATOM      2  C   UNL     1      22.667  31.402   1.232  0.00  0.00    +0.013 A 
ATOM      3  C   UNL     1      21.687  30.851   2.159  0.00  0.00    +0.019 A 
ATOM     38  C   UNL     1      21.287  31.665   3.297  0.00  0.00    +0.120 A 
ATOM     39  N   UNL     1      21.841  32.928   3.475  0.00  0.00    -0.263 NA
ATOM     40  C   UNL     1      22.787  33.468   2.590  0.00  0.00    +0.111 A 
ENDBRANCH   4   3
ENDBRANCH  10   9
BRANCH  12  13
ATOM     13  N   UNL     1      16.645  23.735   5.267  0.00  0.00    -0.281 N 
ATOM     14  C   UNL     1      16.235  23.062   6.406  0.00  0.00    +0.248 C 
ATOM     30  O   UNL     1      16.963  22.362   7.094  0.00  0.00    -0.270 OA
ATOM     31  H   UNL     1      15.903  24.120   4.682  0.00  0.00    +0.155 HD
BRANCH  14  15
ATOM     15  C   UNL     1      14.808  23.172   6.835  0.00  0.00    +0.037 A 
ATOM     16  C   UNL     1      14.345  22.582   8.094  0.00  0.00    +0.013 A 
ATOM     17  C   UNL     1      12.959  22.688   8.476  0.00  0.00    +0.005 A 
ATOM     18  C   UNL     1      12.025  23.388   7.597  0.00  0.00    -0.033 A 
ATOM     28  C   UNL     1      12.512  23.968   6.356  0.00  0.00    +0.005 A 
ATOM     29  C   UNL     1      13.870  23.866   5.978  0.00  0.00    +0.013 A 
BRANCH  18  19
ATOM     19  C   UNL     1      10.525  23.531   7.914  0.00  0.00    +0.119 C 
BRANCH  19  20
ATOM     20  N   UNL     1       9.978  24.916   8.025  0.00  0.00    -0.302 NA
ATOM     21  C   UNL     1      10.761  25.763   9.033  0.00  0.00    +0.066 C 
ATOM     22  C   UNL     1      10.190  27.215   9.121  0.00  0.00    -0.064 C 
ATOM     23  N   UNL     1       8.708  27.156   9.498  0.00  0.00    +0.379 N 
ATOM     24  C   UNL     1       8.183  28.522   9.638  0.00  0.00    -0.096 C 
ATOM     25  H   UNL     1       8.632  26.660  10.494  0.00  0.00    -0.082 HD
ATOM     26  C   UNL     1       7.923  26.314   8.502  0.00  0.00    -0.064 C 
ATOM     27  C   UNL     1       8.517  24.881   8.401  0.00  0.00    +0.066 C 
ENDBRANCH  19  20
ENDBRANCH  18  19
ENDBRANCH  14  15
ENDBRANCH  12  13
TORSDOF 6
ENDMDL
MODEL 3
REMARK VINA RESULT:      -8.1      1.982      2.744
REMARK  Name = C:\Users\Docking\Desktop\test protocol\1iep_ligandH.pdb
REMARK  8 active torsions:
REMARK  status: ('A' for Active; 'I' for Inactive)
REMARK    1  A    between atoms: _5  and  _11
REMARK    2  A    between atoms: _19  and  _21
REMARK    3  A    between atoms: _22  and  _66
REMARK    4  A    between atoms: _27  and  _30
REMARK    5  A    between atoms: _32  and  _33
REMARK    6  A    between atoms: _38  and  _43
REMARK    7  A    between atoms: _43  and  _46
REMARK    8  A    between atoms: _53  and  _55
REMARK                            x       y       z     vdW  Elec       q    Type
REMARK                         _______ _______ _______ _____ _____    ______ ____
ROOT
ATOM     10  C   UNL     1       9.839  22.728   8.998  0.00  0.00    +0.038 A 
ATOM     11  C   UNL     1      11.150  22.923   8.494  0.00  0.00    +0.047 A 
ATOM     12  C   UNL     1      12.250  22.063   8.902  0.00  0.00    +0.035 A 
ATOM     32  C   UNL     1      11.977  21.010   9.823  0.00  0.00    +0.024 A 
ATOM     33  C   UNL     1      10.651  20.797  10.347  0.00  0.00    +0.007 A 
ATOM     34  C   UNL     1       9.563  21.645   9.950  0.00  0.00    -0.029 A 
ATOM     35  C   UNL     1       8.163  21.374  10.548  0.00  0.00    +0.045 C 
ENDROOT
BRANCH  10   9
ATOM      4  C   UNL     1       7.837  27.075   8.645  0.00  0.00    +0.077 A 
ATOM      5  C   UNL     1       8.895  27.689   9.395  0.00  0.00    +0.048 A 
ATOM      6  C   UNL     1       9.932  26.849   9.860  0.00  0.00    +0.116 A 
ATOM      7  N   UNL     1       9.903  25.498   9.589  0.00  0.00    -0.223 NA
ATOM      8  C   UNL     1       8.867  24.939   8.864  0.00  0.00    +0.220 A 
ATOM      9  N   UNL     1       8.821  23.584   8.573  0.00  0.00    -0.283 N 
ATOM     36  H   UNL     1       8.036  23.208   8.042  0.00  0.00    +0.155 HD
ATOM     37  N   UNL     1       7.864  25.719   8.410  0.00  0.00    -0.214 NA
BRANCH   4   3
ATOM      1  C   UNL     1       5.224  29.887   7.891  0.00  0.00    +0.020 A 
ATOM      2  C   UNL     1       6.361  29.203   8.463  0.00  0.00    +0.013 A 
ATOM      3  C   UNL     1       6.672  27.830   8.084  0.00  0.00    +0.019 A 
ATOM     38  C   UNL     1       5.807  27.174   7.116  0.00  0.00    +0.120 A 
ATOM     39  N   UNL     1       4.718  27.857   6.583  0.00  0.00    -0.263 NA
ATOM     40  C   UNL     1       4.408  29.178   6.941  0.00  0.00    +0.111 A 
ENDBRANCH   4   3
ENDBRANCH  10   9
BRANCH  12  13
ATOM     13  N   UNL     1      13.603  22.218   8.430  0.00  0.00    -0.281 N 
ATOM     14  C   UNL     1      14.778  22.068   9.148  0.00  0.00    +0.248 C 
ATOM     30  O   UNL     1      14.838  21.986  10.366  0.00  0.00    -0.270 OA
ATOM     31  H   UNL     1      13.708  22.469   7.447  0.00  0.00    +0.155 HD
BRANCH  14  15
ATOM     15  C   UNL     1      16.075  22.017   8.408  0.00  0.00    +0.037 A 
ATOM     16  C   UNL     1      17.221  21.270   8.933  0.00  0.00    +0.013 A 
ATOM     17  C   UNL     1      18.466  21.251   8.207  0.00  0.00    +0.005 A 
ATOM     18  C   UNL     1      18.571  21.981   6.946  0.00  0.00    -0.033 A 
ATOM     28  C   UNL     1      17.418  22.710   6.446  0.00  0.00    +0.005 A 
ATOM     29  C   UNL     1      16.196  22.732   7.155  0.00  0.00    +0.013 A 
BRANCH  18  19
ATOM     19  C   UNL     1      19.867  22.033   6.115  0.00  0.00    +0.119 C 
BRANCH  19  20
ATOM     20  N   UNL     1      19.926  23.027   5.002  0.00  0.00    -0.302 NA
ATOM     21  C   UNL     1      19.945  22.350   3.628  0.00  0.00    +0.066 C 
ATOM     22  C   UNL     1      19.984  23.404   2.475  0.00  0.00    -0.064 C 
ATOM     23  N   UNL     1      21.208  24.305   2.652  0.00  0.00    +0.379 N 
ATOM     24  C   UNL     1      21.279  25.260   1.536  0.00  0.00    -0.096 C 
ATOM     25  H   UNL     1      22.114  23.657   2.601  0.00  0.00    -0.082 HD
ATOM     26  C   UNL     1      21.198  24.980   4.016  0.00  0.00    -0.064 C 
ATOM     27  C   UNL     1      21.130  23.924   5.155  0.00  0.00    +0.066 C 
ENDBRANCH  19  20
ENDBRANCH  18  19
ENDBRANCH  14  15
ENDBRANCH  12  13
TORSDOF 6
ENDMDL
MODEL 4
REMARK VINA RESULT:      -8.1      3.158      4.649
REMARK  Name = C:\Users\Docking\Desktop\test protocol\1iep_ligandH.pdb
REMARK  8 active torsions:
REMARK  status: ('A' for Active; 'I' for Inactive)
REMARK    1  A    between atoms: _5  and  _11
REMARK    2  A    between atoms: _19  and  _21
REMARK    3  A    between atoms: _22  and  _66
REMARK    4  A    between atoms: _27  and  _30
REMARK    5  A    between atoms: _32  and  _33
REMARK    6  A    between atoms: _38  and  _43
REMARK    7  A    between atoms: _43  and  _46
REMARK    8  A    between atoms: _53  and  _55
REMARK                            x       y       z     vdW  Elec       q    Type
REMARK                         _______ _______ _______ _____ _____    ______ ____
ROOT
ATOM     10  C   UNL     1      12.315  24.303   4.199  0.00  0.00    +0.038 A 
ATOM     11  C   UNL     1      13.680  24.684   4.251  0.00  0.00    +0.047 A 
ATOM     12  C   UNL     1      14.727  23.804   3.754  0.00  0.00    +0.035 A 
ATOM     32  C   UNL     1      14.347  22.543   3.208  0.00  0.00    +0.024 A 
ATOM     33  C   UNL     1      12.964  22.139   3.149  0.00  0.00    +0.007 A 
ATOM     34  C   UNL     1      11.928  23.002   3.639  0.00  0.00    -0.029 A 
ATOM     35  C   UNL     1      10.463  22.514   3.556  0.00  0.00    +0.045 C 
ENDROOT
BRANCH  10   9
ATOM      4  C   UNL     1       9.792  26.245   7.790  0.00  0.00    +0.077 A 
ATOM      5  C   UNL     1      10.427  25.409   8.767  0.00  0.00    +0.048 A 
ATOM      6  C   UNL     1      11.393  24.488   8.304  0.00  0.00    +0.116 A 
ATOM      7  N   UNL     1      11.693  24.416   6.961  0.00  0.00    -0.223 NA
ATOM      8  C   UNL     1      11.060  25.236   6.044  0.00  0.00    +0.220 A 
ATOM      9  N   UNL     1      11.352  25.187   4.690  0.00  0.00    -0.283 N 
ATOM     36  H   UNL     1      10.858  25.803   4.045  0.00  0.00    +0.155 HD
ATOM     37  N   UNL     1      10.133  26.123   6.461  0.00  0.00    -0.214 NA
BRANCH   4   3
ATOM      1  C   UNL     1       7.618  28.867   9.713  0.00  0.00    +0.020 A 
ATOM      2  C   UNL     1       8.638  27.881   9.442  0.00  0.00    +0.013 A 
ATOM      3  C   UNL     1       8.753  27.270   8.124  0.00  0.00    +0.019 A 
ATOM     38  C   UNL     1       7.813  27.683   7.093  0.00  0.00    +0.120 A 
ATOM     39  N   UNL     1       6.839  28.634   7.384  0.00  0.00    -0.263 NA
ATOM     40  C   UNL     1       6.718  29.227   8.649  0.00  0.00    +0.111 A 
ENDBRANCH   4   3
ENDBRANCH  10   9
BRANCH  12  13
ATOM     13  N   UNL     1      16.130  24.134   3.788  0.00  0.00    -0.281 N 
ATOM     14  C   UNL     1      17.044  23.866   4.794  0.00  0.00    +0.248 C 
ATOM     30  O   UNL     1      16.745  23.488   5.917  0.00  0.00    -0.270 OA
ATOM     31  H   UNL     1      16.494  24.625   2.971  0.00  0.00    +0.155 HD
BRANCH  14  15
ATOM     15  C   UNL     1      18.500  24.059   4.517  0.00  0.00    +0.037 A 
ATOM     16  C   UNL     1      19.125  25.380   4.624  0.00  0.00    +0.013 A 
ATOM     17  C   UNL     1      20.528  25.541   4.335  0.00  0.00    +0.005 A 
ATOM     18  C   UNL     1      21.316  24.377   3.937  0.00  0.00    -0.033 A 
ATOM     28  C   UNL     1      20.672  23.078   3.843  0.00  0.00    +0.005 A 
ATOM     29  C   UNL     1      19.297  22.916   4.125  0.00  0.00    +0.013 A 
BRANCH  18  19
ATOM     19  C   UNL     1      22.814  24.461   3.589  0.00  0.00    +0.119 C 
BRANCH  19  20
ATOM     20  N   UNL     1      23.357  23.433   2.651  0.00  0.00    -0.302 NA
ATOM     21  C   UNL     1      24.694  22.865   3.133  0.00  0.00    +0.066 C 
ATOM     22  C   UNL     1      25.236  21.775   2.151  0.00  0.00    -0.064 C 
ATOM     23  N   UNL     1      25.376  22.377   0.752  0.00  0.00    +0.379 N 
ATOM     24  C   UNL     1      25.940  21.372  -0.161  0.00  0.00    -0.096 C 
ATOM     25  H   UNL     1      26.103  23.220   0.818  0.00  0.00    -0.082 HD
ATOM     26  C   UNL     1      24.051  22.947   0.266  0.00  0.00    -0.064 C 
ATOM     27  C   UNL     1      23.507  24.008   1.264  0.00  0.00    +0.066 C 
ENDBRANCH  19  20
ENDBRANCH  18  19
ENDBRANCH  14  15
ENDBRANCH  12  13
TORSDOF 6
ENDMDL
MODEL 5
REMARK VINA RESULT:      -8.0      1.607      2.358
REMARK  Name = C:\Users\Docking\Desktop\test protocol\1iep_ligandH.pdb
REMARK  8 active torsions:
REMARK  status: ('A' for Active; 'I' for Inactive)
REMARK    1  A    between atoms: _5  and  _11
REMARK    2  A    between atoms: _19  and  _21
REMARK    3  A    between atoms: _22  and  _66
REMARK    4  A    between atoms: _27  and  _30
REMARK    5  A    between atoms: _32  and  _33
REMARK    6  A    between atoms: _38  and  _43
REMARK    7  A    between atoms: _43  and  _46
REMARK    8  A    between atoms: _53  and  _55
REMARK                            x       y       z     vdW  Elec       q    Type
REMARK                         _______ _______ _______ _____ _____    ______ ____
ROOT
ATOM     10  C   UNL     1      11.224  23.556   8.373  0.00  0.00    +0.038 A 
ATOM     11  C   UNL     1      12.329  23.781   7.513  0.00  0.00    +0.047 A 
ATOM     12  C   UNL     1      13.618  23.156   7.765  0.00  0.00    +0.035 A 
ATOM     32  C   UNL     1      13.745  22.305   8.902  0.00  0.00    +0.024 A 
ATOM     33  C   UNL     1      12.633  22.066   9.787  0.00  0.00    +0.007 A 
ATOM     34  C   UNL     1      11.359  22.682   9.545  0.00  0.00    -0.029 A 
ATOM     35  C   UNL     1      10.203  22.395  10.531  0.00  0.00    +0.045 C 
ENDROOT
BRANCH  10   9
ATOM      4  C   UNL     1       8.210  27.281   8.649  0.00  0.00    +0.077 A 
ATOM      5  C   UNL     1       9.122  28.035   9.461  0.00  0.00    +0.048 A 
ATOM      6  C   UNL     1      10.352  27.425   9.791  0.00  0.00    +0.116 A 
ATOM      7  N   UNL     1      10.640  26.156   9.338  0.00  0.00    -0.223 NA
ATOM      8  C   UNL     1       9.738  25.456   8.558  0.00  0.00    +0.220 A 
ATOM      9  N   UNL     1      10.009  24.182   8.084  0.00  0.00    -0.283 N 
ATOM     36  H   UNL     1       9.314  23.696   7.517  0.00  0.00    +0.155 HD
ATOM     37  N   UNL     1       8.555  26.016   8.229  0.00  0.00    -0.214 NA
BRANCH   4   3
ATOM      1  C   UNL     1       5.119  29.596   8.025  0.00  0.00    +0.020 A 
ATOM      2  C   UNL     1       6.421  29.154   8.468  0.00  0.00    +0.013 A 
ATOM      3  C   UNL     1       6.871  27.791   8.213  0.00  0.00    +0.019 A 
ATOM     38  C   UNL     1       5.973  26.894   7.502  0.00  0.00    +0.120 A 
ATOM     39  N   UNL     1       4.724  27.348   7.089  0.00  0.00    -0.263 NA
ATOM     40  C   UNL     1       4.279  28.656   7.330  0.00  0.00    +0.111 A 
ENDBRANCH   4   3
ENDBRANCH  10   9
BRANCH  12  13
ATOM     13  N   UNL     1      14.778  23.353   6.932  0.00  0.00    -0.281 N 
ATOM     14  C   UNL     1      14.907  23.094   5.577  0.00  0.00    +0.248 C 
ATOM     30  O   UNL     1      14.106  22.448   4.918  0.00  0.00    -0.270 OA
ATOM     31  H   UNL     1      15.604  23.730   7.397  0.00  0.00    +0.155 HD
BRANCH  14  15
ATOM     15  C   UNL     1      16.107  23.614   4.854  0.00  0.00    +0.037 A 
ATOM     16  C   UNL     1      16.016  24.078   3.467  0.00  0.00    +0.013 A 
ATOM     17  C   UNL     1      17.193  24.559   2.787  0.00  0.00    +0.005 A 
ATOM     18  C   UNL     1      18.471  24.580   3.494  0.00  0.00    -0.033 A 
ATOM     28  C   UNL     1      18.531  24.119   4.871  0.00  0.00    +0.005 A 
ATOM     29  C   UNL     1      17.381  23.646   5.541  0.00  0.00    +0.013 A 
BRANCH  18  19
ATOM     19  C   UNL     1      19.781  25.057   2.840  0.00  0.00    +0.119 C 
BRANCH  19  20
ATOM     20  N   UNL     1      20.892  24.065   2.733  0.00  0.00    -0.302 NA
ATOM     21  C   UNL     1      22.065  24.414   3.654  0.00  0.00    +0.066 C 
ATOM     22  C   UNL     1      23.209  23.354   3.545  0.00  0.00    -0.064 C 
ATOM     23  N   UNL     1      23.673  23.256   2.091  0.00  0.00    +0.379 N 
ATOM     24  C   UNL     1      24.788  22.302   1.995  0.00  0.00    -0.096 C 
ATOM     25  H   UNL     1      24.058  24.258   1.791  0.00  0.00    -0.082 HD
ATOM     26  C   UNL     1      22.513  22.912   1.168  0.00  0.00    -0.064 C 
ATOM     27  C   UNL     1      21.369  23.956   1.305  0.00  0.00    +0.066 C 
ENDBRANCH  19  20
ENDBRANCH  18  19
ENDBRANCH  14  15
ENDBRANCH  12  13
TORSDOF 6
ENDMDL
