MODEL 1
REMARK VINA RESULT:      -8.5      0.000      0.000
REMARK  Name = C:\Users\Docking\Desktop\test protocol\1iep_ligandH.pdb
REMARK  8 active torsions:
REMARK  status: ('A' for Active; 'I' for Inactive)
REMARK    1  A    between atoms: _5  and  _11
REMARK    2  A    between atoms: _19  and  _21
REMARK    3  A    between atoms: _22  and  _66
REMARK    4  A    between atoms: _27  and  _30
REMARK    5  A    between atoms: _32  and  _33
REMARK    6  A    between atoms: _38  and  _43
REMARK    7  A    between atoms: _43  and  _46
REMARK    8  A    between atoms: _53  and  _55
REMARK                            x       y       z     vdW  Elec       q    Type
REMARK                         _______ _______ _______ _____ _____    ______ ____
ROOT
ATOM     10  C   UNL     1       9.703  23.667   8.621  0.00  0.00    +0.038 A 
ATOM     11  C   UNL     1      10.962  23.789   7.980  0.00  0.00    +0.047 A 
ATOM     12  C   UNL     1      12.096  22.972   8.385  0.00  0.00    +0.035 A 
ATOM     32  C   UNL     1      11.910  22.038   9.446  0.00  0.00    +0.024 A 
ATOM     33  C   UNL     1      10.638  21.902  10.109  0.00  0.00    +0.007 A 
ATOM     34  C   UNL     1       9.517  22.707   9.716  0.00  0.00    -0.029 A 
ATOM     35  C   UNL     1       8.178  22.523  10.467  0.00  0.00    +0.045 C 
ENDROOT
BRANCH  10   9
ATOM      4  C   UNL     1       7.395  27.871   8.447  0.00  0.00    +0.077 A 
ATOM      5  C   UNL     1       8.355  28.502   9.306  0.00  0.00    +0.048 A 
ATOM      6  C   UNL     1       9.424  27.707   9.777  0.00  0.00    +0.116 A 
ATOM      7  N   UNL     1       9.516  26.382   9.409  0.00  0.00    -0.223 NA
ATOM      8  C   UNL     1       8.572  25.805   8.580  0.00  0.00    +0.220 A 
ATOM      9  N   UNL     1       8.649  24.476   8.192  0.00  0.00    -0.283 N 
ATOM     36  H   UNL     1       7.928  24.086   7.585  0.00  0.00    +0.155 HD
ATOM     37  N   UNL     1       7.541  26.542   8.119  0.00  0.00    -0.214 NA
BRANCH   4   3
ATOM      1  C   UNL     1       4.636  30.544   7.708  0.00  0.00    +0.020 A 
ATOM      2  C   UNL     1       5.787  29.904   8.302  0.00  0.00    +0.013 A 
ATOM      3  C   UNL     1       6.211  28.580   7.866  0.00  0.00    +0.019 A 
ATOM     38  C   UNL     1       5.443  27.926   6.816  0.00  0.00    +0.120 A 
ATOM     39  N   UNL     1       4.338  28.566   6.264  0.00  0.00    -0.263 NA
ATOM     40  C   UNL     1       3.920  29.840   6.677  0.00  0.00    +0.111 A 
ENDBRANCH   4   3
ENDBRANCH  10   9
BRANCH  12  13
ATOM     13  N   UNL     1      13.400  23.058   7.776  0.00  0.00    -0.281 N 
ATOM     14  C   UNL     1      13.757  22.732   6.477  0.00  0.00    +0.248 C 
ATOM     30  O   UNL     1      13.046  22.111   5.701  0.00  0.00    -0.270 OA
ATOM     31  H   UNL     1      14.151  23.400   8.374  0.00  0.00    +0.155 HD
BRANCH  14  15
ATOM     15  C   UNL     1      15.103  23.141   5.974  0.00  0.00    +0.037 A 
ATOM     16  C   UNL     1      15.280  23.664   4.617  0.00  0.00    +0.013 A 
ATOM     17  C   UNL     1      16.592  24.036   4.151  0.00  0.00    +0.005 A 
ATOM     18  C   UNL     1      17.739  23.887   5.044  0.00  0.00    -0.033 A 
ATOM     28  C   UNL     1      17.534  23.371   6.387  0.00  0.00    +0.005 A 
ATOM     29  C   UNL     1      16.249  23.004   6.847  0.00  0.00    +0.013 A 
BRANCH  18  19
ATOM     19  C   UNL     1      19.178  24.239   4.624  0.00  0.00    +0.119 C 
BRANCH  19  20
ATOM     20  N   UNL     1      19.347  25.289   3.575  0.00  0.00    -0.302 NA
ATOM     21  C   UNL     1      20.703  25.186   2.872  0.00  0.00    +0.066 C 
ATOM     22  C   UNL     1      20.854  26.277   1.763  0.00  0.00    -0.064 C 
ATOM     23  N   UNL     1      20.671  27.662   2.386  0.00  0.00    +0.379 N 
ATOM     24  C   UNL     1      20.869  28.693   1.357  0.00  0.00    -0.096 C 
ATOM     25  H   UNL     1      21.467  27.794   3.155  0.00  0.00    -0.082 HD
ATOM     26  C   UNL     1      19.326  27.773   3.090  0.00  0.00    -0.064 C 
ATOM     27  C   UNL     1      19.175  26.665   4.170  0.00  0.00    +0.066 C 
ENDBRANCH  19  20
ENDBRANCH  18  19
ENDBRANCH  14  15
ENDBRANCH  12  13
TORSDOF 6
ENDMDL
MODEL 2
REMARK VINA RESULT:      -8.3      2.344     12.371
REMARK  Name = C:\Users\Docking\Desktop\test protocol\1iep_ligandH.pdb
REMARK  8 active torsions:
REMARK  status: ('A' for Active; 'I' for Inactive)
REMARK    1  A    between atoms: _5  and  _11
REMARK    2  A    between atoms: _19  and  _21
REMARK    3  A    between atoms: _22  and  _66
REMARK    4  A    between atoms: _27  and  _30
REMARK    5  A    between atoms: _32  and  _33
REMARK    6  A    between atoms: _38  and  _43
REMARK    7  A    between atoms: _43  and  _46
REMARK    8  A    between atoms: _53  and  _55
REMARK                            x       y       z     vdW  Elec       q    Type
REMARK                         _______ _______ _______ _____ _____    ______ ____
ROOT
ATOM     10  C   UNL     1      19.987  25.571   4.194  0.00  0.00    +0.038 A 
ATOM     11  C   UNL     1      18.667  25.415   4.689  0.00  0.00    +0.047 A 
ATOM     12  C   UNL     1      18.020  24.113   4.710  0.00  0.00    +0.035 A 
ATOM     32  C   UNL     1      18.747  22.989   4.221  0.00  0.00    +0.024 A 
ATOM     33  C   UNL     1      20.089  23.129   3.713  0.00  0.00    +0.007 A 
ATOM     34  C   UNL     1      20.732  24.412   3.687  0.00  0.00    -0.029 A 
ATOM     35  C   UNL     1      22.170  24.504   3.125  0.00  0.00    +0.045 C 
ENDROOT
BRANCH  10   9
ATOM      4  C   UNL     1      21.191  29.676   2.017  0.00  0.00    +0.077 A 
ATOM      5  C   UNL     1      20.657  29.235   0.761  0.00  0.00    +0.048 A 
ATOM      6  C   UNL     1      20.088  27.943   0.715  0.00  0.00    +0.116 A 
ATOM      7  N   UNL     1      20.060  27.158   1.848  0.00  0.00    -0.223 NA
ATOM      8  C   UNL     1      20.585  27.613   3.043  0.00  0.00    +0.220 A 
ATOM      9  N   UNL     1      20.560  26.845   4.197  0.00  0.00    -0.283 N 
ATOM     36  H   UNL     1      20.964  27.213   5.057  0.00  0.00    +0.155 HD
ATOM     37  N   UNL     1      21.135  28.843   3.113  0.00  0.00    -0.214 NA
BRANCH   4   3
ATOM      1  C   UNL     1      22.271  33.089   3.594  0.00  0.00    +0.020 A 
ATOM      2  C   UNL     1      21.638  31.799   3.442  0.00  0.00    +0.013 A 
ATOM      3  C   UNL     1      21.822  31.017   2.226  0.00  0.00    +0.019 A 
ATOM     38  C   UNL     1      22.660  31.574   1.174  0.00  0.00    +0.120 A 
ATOM     39  N   UNL     1      23.255  32.819   1.347  0.00  0.00    -0.263 NA
ATOM     40  C   UNL     1      23.084  33.581   2.513  0.00  0.00    +0.111 A 
ENDBRANCH   4   3
ENDBRANCH  10   9
BRANCH  12  13
ATOM     13  N   UNL     1      16.679  23.895   5.194  0.00  0.00    -0.281 N 
ATOM     14  C   UNL     1      16.287  23.244   6.352  0.00  0.00    +0.248 C 
ATOM     30  O   UNL     1      17.025  22.559   7.044  0.00  0.00    -0.270 OA
ATOM     31  H   UNL     1      15.928  24.267   4.612  0.00  0.00    +0.155 HD
BRANCH  14  15
ATOM     15  C   UNL     1      14.865  23.358   6.798  0.00  0.00    +0.037 A 
ATOM     16  C   UNL     1      14.445  22.899   8.125  0.00  0.00    +0.013 A 
ATOM     17  C   UNL     1      13.064  23.005   8.524  0.00  0.00    +0.005 A 
ATOM     18  C   UNL     1      12.092  23.575   7.594  0.00  0.00    -0.033 A 
ATOM     28  C   UNL     1      12.536  24.027   6.286  0.00  0.00    +0.005 A 
ATOM     29  C   UNL     1      13.889  23.924   5.891  0.00  0.00    +0.013 A 
BRANCH  18  19
ATOM     19  C   UNL     1      10.594  23.707   7.927  0.00  0.00    +0.119 C 
BRANCH  19  20
ATOM     20  N   UNL     1      10.028  25.087   7.997  0.00  0.00    -0.302 NA
ATOM     21  C   UNL     1      10.779  25.965   9.002  0.00  0.00    +0.066 C 
ATOM     22  C   UNL     1      10.188  27.412   9.045  0.00  0.00    -0.064 C 
ATOM     23  N   UNL     1       8.700  27.343   9.392  0.00  0.00    +0.379 N 
ATOM     24  C   UNL     1       8.155  28.704   9.491  0.00  0.00    -0.096 C 
ATOM     25  H   UNL     1       8.609  26.868  10.397  0.00  0.00    -0.082 HD
ATOM     26  C   UNL     1       7.947  26.469   8.399  0.00  0.00    -0.064 C 
ATOM     27  C   UNL     1       8.560  25.042   8.342  0.00  0.00    +0.066 C 
ENDBRANCH  19  20
ENDBRANCH  18  19
ENDBRANCH  14  15
ENDBRANCH  12  13
TORSDOF 6
ENDMDL
MODEL 3
REMARK VINA RESULT:      -8.1      1.393      2.087
REMARK  Name = C:\Users\Docking\Desktop\test protocol\1iep_ligandH.pdb
REMARK  8 active torsions:
REMARK  status: ('A' for Active; 'I' for Inactive)
REMARK    1  A    between atoms: _5  and  _11
REMARK    2  A    between atoms: _19  and  _21
REMARK    3  A    between atoms: _22  and  _66
REMARK    4  A    between atoms: _27  and  _30
REMARK    5  A    between atoms: _32  and  _33
REMARK    6  A    between atoms: _38  and  _43
REMARK    7  A    between atoms: _43  and  _46
REMARK    8  A    between atoms: _53  and  _55
REMARK                            x       y       z     vdW  Elec       q    Type
REMARK                         _______ _______ _______ _____ _____    ______ ____
ROOT
ATOM     10  C   UNL     1       9.620  23.954   8.467  0.00  0.00    +0.038 A 
ATOM     11  C   UNL     1      10.849  24.131   7.781  0.00  0.00    +0.047 A 
ATOM     12  C   UNL     1      12.032  23.369   8.148  0.00  0.00    +0.035 A 
ATOM     32  C   UNL     1      11.928  22.433   9.217  0.00  0.00    +0.024 A 
ATOM     33  C   UNL     1      10.687  22.241   9.926  0.00  0.00    +0.007 A 
ATOM     34  C   UNL     1       9.517  22.991   9.570  0.00  0.00    -0.029 A 
ATOM     35  C   UNL     1       8.215  22.749  10.369  0.00  0.00    +0.045 C 
ENDROOT
BRANCH  10   9
ATOM      4  C   UNL     1       7.118  28.049   8.357  0.00  0.00    +0.077 A 
ATOM      5  C   UNL     1       8.080  28.728   9.176  0.00  0.00    +0.048 A 
ATOM      6  C   UNL     1       9.201  27.985   9.611  0.00  0.00    +0.116 A 
ATOM      7  N   UNL     1       9.340  26.663   9.247  0.00  0.00    -0.223 NA
ATOM      8  C   UNL     1       8.392  26.038   8.457  0.00  0.00    +0.220 A 
ATOM      9  N   UNL     1       8.515  24.712   8.072  0.00  0.00    -0.283 N 
ATOM     36  H   UNL     1       7.791  24.285   7.495  0.00  0.00    +0.155 HD
ATOM     37  N   UNL     1       7.312  26.725   8.030  0.00  0.00    -0.214 NA
BRANCH   4   3
ATOM      1  C   UNL     1       4.336  30.671   7.530  0.00  0.00    +0.020 A 
ATOM      2  C   UNL     1       5.542  30.092   8.076  0.00  0.00    +0.013 A 
ATOM      3  C   UNL     1       5.883  28.699   7.816  0.00  0.00    +0.019 A 
ATOM     38  C   UNL     1       4.976  27.914   6.993  0.00  0.00    +0.120 A 
ATOM     39  N   UNL     1       3.821  28.498   6.481  0.00  0.00    -0.263 NA
ATOM     40  C   UNL     1       3.482  29.837   6.726  0.00  0.00    +0.111 A 
ENDBRANCH   4   3
ENDBRANCH  10   9
BRANCH  12  13
ATOM     13  N   UNL     1      13.309  23.512   7.493  0.00  0.00    -0.281 N 
ATOM     14  C   UNL     1      13.827  22.747   6.461  0.00  0.00    +0.248 C 
ATOM     30  O   UNL     1      13.357  21.683   6.086  0.00  0.00    -0.270 OA
ATOM     31  H   UNL     1      13.903  24.270   7.831  0.00  0.00    +0.155 HD
BRANCH  14  15
ATOM     15  C   UNL     1      15.053  23.225   5.753  0.00  0.00    +0.037 A 
ATOM     16  C   UNL     1      16.377  23.127   6.373  0.00  0.00    +0.013 A 
ATOM     17  C   UNL     1      17.541  23.612   5.675  0.00  0.00    +0.005 A 
ATOM     18  C   UNL     1      17.386  24.198   4.346  0.00  0.00    -0.033 A 
ATOM     28  C   UNL     1      16.062  24.279   3.752  0.00  0.00    +0.005 A 
ATOM     29  C   UNL     1      14.919  23.806   4.433  0.00  0.00    +0.013 A 
BRANCH  18  19
ATOM     19  C   UNL     1      18.570  24.760   3.537  0.00  0.00    +0.119 C 
BRANCH  19  20
ATOM     20  N   UNL     1      19.885  24.065   3.676  0.00  0.00    -0.302 NA
ATOM     21  C   UNL     1      20.939  24.957   4.338  0.00  0.00    +0.066 C 
ATOM     22  C   UNL     1      22.301  24.206   4.496  0.00  0.00    -0.064 C 
ATOM     23  N   UNL     1      22.780  23.729   3.123  0.00  0.00    +0.379 N 
ATOM     24  C   UNL     1      24.089  23.074   3.261  0.00  0.00    -0.096 C 
ATOM     25  H   UNL     1      22.918  24.631   2.482  0.00  0.00    -0.082 HD
ATOM     26  C   UNL     1      21.736  22.844   2.457  0.00  0.00    -0.064 C 
ATOM     27  C   UNL     1      20.378  23.590   2.331  0.00  0.00    +0.066 C 
ENDBRANCH  19  20
ENDBRANCH  18  19
ENDBRANCH  14  15
ENDBRANCH  12  13
TORSDOF 6
ENDMDL
MODEL 4
REMARK VINA RESULT:      -8.1      3.136      4.698
REMARK  Name = C:\Users\Docking\Desktop\test protocol\1iep_ligandH.pdb
REMARK  8 active torsions:
REMARK  status: ('A' for Active; 'I' for Inactive)
REMARK    1  A    between atoms: _5  and  _11
REMARK    2  A    between atoms: _19  and  _21
REMARK    3  A    between atoms: _22  and  _66
REMARK    4  A    between atoms: _27  and  _30
REMARK    5  A    between atoms: _32  and  _33
REMARK    6  A    between atoms: _38  and  _43
REMARK    7  A    between atoms: _43  and  _46
REMARK    8  A    between atoms: _53  and  _55
REMARK                            x       y       z     vdW  Elec       q    Type
REMARK                         _______ _______ _______ _____ _____    ______ ____
ROOT
ATOM     10  C   UNL     1      12.095  24.538   4.289  0.00  0.00    +0.038 A 
ATOM     11  C   UNL     1      13.467  24.881   4.389  0.00  0.00    +0.047 A 
ATOM     12  C   UNL     1      14.506  23.974   3.925  0.00  0.00    +0.035 A 
ATOM     32  C   UNL     1      14.110  22.727   3.360  0.00  0.00    +0.024 A 
ATOM     33  C   UNL     1      12.720  22.361   3.251  0.00  0.00    +0.007 A 
ATOM     34  C   UNL     1      11.691  23.251   3.710  0.00  0.00    -0.029 A 
ATOM     35  C   UNL     1      10.217  22.804   3.574  0.00  0.00    +0.045 C 
ENDROOT
BRANCH  10   9
ATOM      4  C   UNL     1       9.626  26.656   7.818  0.00  0.00    +0.077 A 
ATOM      5  C   UNL     1      10.275  25.866   8.825  0.00  0.00    +0.048 A 
ATOM      6  C   UNL     1      11.232  24.922   8.393  0.00  0.00    +0.116 A 
ATOM      7  N   UNL     1      11.513  24.785   7.051  0.00  0.00    -0.223 NA
ATOM      8  C   UNL     1      10.868  25.561   6.105  0.00  0.00    +0.220 A 
ATOM      9  N   UNL     1      11.140  25.446   4.750  0.00  0.00    -0.283 N 
ATOM     36  H   UNL     1      10.637  26.032   4.084  0.00  0.00    +0.155 HD
ATOM     37  N   UNL     1       9.948  26.469   6.492  0.00  0.00    -0.214 NA
BRANCH   4   3
ATOM      1  C   UNL     1       7.413  29.293   9.675  0.00  0.00    +0.020 A 
ATOM      2  C   UNL     1       8.425  28.289   9.439  0.00  0.00    +0.013 A 
ATOM      3  C   UNL     1       8.594  27.698   8.118  0.00  0.00    +0.019 A 
ATOM     38  C   UNL     1       7.715  28.148   7.048  0.00  0.00    +0.120 A 
ATOM     39  N   UNL     1       6.749  29.115   7.306  0.00  0.00    -0.263 NA
ATOM     40  C   UNL     1       6.576  29.690   8.574  0.00  0.00    +0.111 A 
ENDBRANCH   4   3
ENDBRANCH  10   9
BRANCH  12  13
ATOM     13  N   UNL     1      15.916  24.265   4.008  0.00  0.00    -0.281 N 
ATOM     14  C   UNL     1      16.807  23.881   4.996  0.00  0.00    +0.248 C 
ATOM     30  O   UNL     1      16.482  23.406   6.074  0.00  0.00    -0.270 OA
ATOM     31  H   UNL     1      16.303  24.822   3.246  0.00  0.00    +0.155 HD
BRANCH  14  15
ATOM     15  C   UNL     1      18.271  24.064   4.758  0.00  0.00    +0.037 A 
ATOM     16  C   UNL     1      18.855  25.398   4.602  0.00  0.00    +0.013 A 
ATOM     17  C   UNL     1      20.268  25.546   4.357  0.00  0.00    +0.005 A 
ATOM     18  C   UNL     1      21.107  24.353   4.267  0.00  0.00    -0.033 A 
ATOM     28  C   UNL     1      20.503  23.042   4.431  0.00  0.00    +0.005 A 
ATOM     29  C   UNL     1      19.118  22.893   4.671  0.00  0.00    +0.013 A 
BRANCH  18  19
ATOM     19  C   UNL     1      22.621  24.415   3.987  0.00  0.00    +0.119 C 
BRANCH  19  20
ATOM     20  N   UNL     1      23.162  23.485   2.951  0.00  0.00    -0.302 NA
ATOM     21  C   UNL     1      24.413  22.748   3.439  0.00  0.00    +0.066 C 
ATOM     22  C   UNL     1      24.953  21.763   2.352  0.00  0.00    -0.064 C 
ATOM     23  N   UNL     1      25.249  22.538   1.067  0.00  0.00    +0.379 N 
ATOM     24  C   UNL     1      25.812  21.625   0.062  0.00  0.00    -0.096 C 
ATOM     25  H   UNL     1      26.026  23.302   1.304  0.00  0.00    -0.082 HD
ATOM     26  C   UNL     1      24.011  23.277   0.576  0.00  0.00    -0.064 C 
ATOM     27  C   UNL     1      23.465  24.231   1.675  0.00  0.00    +0.066 C 
ENDBRANCH  19  20
ENDBRANCH  18  19
ENDBRANCH  14  15
ENDBRANCH  12  13
TORSDOF 6
ENDMDL
MODEL 5
REMARK VINA RESULT:      -8.0      1.329      1.692
REMARK  Name = C:\Users\Docking\Desktop\test protocol\1iep_ligandH.pdb
REMARK  8 active torsions:
REMARK  status: ('A' for Active; 'I' for Inactive)
REMARK    1  A    between atoms: _5  and  _11
REMARK    2  A    between atoms: _19  and  _21
REMARK    3  A    between atoms: _22  and  _66
REMARK    4  A    between atoms: _27  and  _30
REMARK    5  A    between atoms: _32  and  _33
REMARK    6  A    between atoms: _38  and  _43
REMARK    7  A    between atoms: _43  and  _46
REMARK    8  A    between atoms: _53  and  _55
REMARK                            x       y       z     vdW  Elec       q    Type
REMARK                         _______ _______ _______ _____ _____    ______ ____
ROOT
ATOM     10  C   UNL     1      10.320  23.367   8.899  0.00  0.00    +0.038 A 
ATOM     11  C   UNL     1      11.576  23.562   8.270  0.00  0.00    +0.047 A 
ATOM     12  C   UNL     1      12.743  22.788   8.665  0.00  0.00    +0.035 A 
ATOM     32  C   UNL     1      12.593  21.822   9.702  0.00  0.00    +0.024 A 
ATOM     33  C   UNL     1      11.324  21.612  10.352  0.00  0.00    +0.007 A 
ATOM     34  C   UNL     1      10.170  22.374   9.969  0.00  0.00    -0.029 A 
ATOM     35  C   UNL     1       8.836  22.111  10.705  0.00  0.00    +0.045 C 
ENDROOT
BRANCH  10   9
ATOM      4  C   UNL     1       7.891  27.503   8.695  0.00  0.00    +0.077 A 
ATOM      5  C   UNL     1       8.856  28.178   9.515  0.00  0.00    +0.048 A 
ATOM      6  C   UNL     1       9.959  27.423   9.974  0.00  0.00    +0.116 A 
ATOM      7  N   UNL     1      10.078  26.094   9.633  0.00  0.00    -0.223 NA
ATOM      8  C   UNL     1       9.129  25.472   8.842  0.00  0.00    +0.220 A 
ATOM      9  N   UNL     1       9.233  24.138   8.480  0.00  0.00    -0.283 N 
ATOM     36  H   UNL     1       8.508  23.715   7.902  0.00  0.00    +0.155 HD
ATOM     37  N   UNL     1       8.066  26.171   8.392  0.00  0.00    -0.214 NA
BRANCH   4   3
ATOM      1  C   UNL     1       5.134  30.143   7.845  0.00  0.00    +0.020 A 
ATOM      2  C   UNL     1       6.321  29.551   8.416  0.00  0.00    +0.013 A 
ATOM      3  C   UNL     1       6.673  28.165   8.131  0.00  0.00    +0.019 A 
ATOM     38  C   UNL     1       5.797  27.401   7.256  0.00  0.00    +0.120 A 
ATOM     39  N   UNL     1       4.659  27.998   6.722  0.00  0.00    -0.263 NA
ATOM     40  C   UNL     1       4.309  29.330   6.991  0.00  0.00    +0.111 A 
ENDBRANCH   4   3
ENDBRANCH  10   9
BRANCH  12  13
ATOM     13  N   UNL     1      14.046  22.947   8.068  0.00  0.00    -0.281 N 
ATOM     14  C   UNL     1      15.254  22.437   8.513  0.00  0.00    +0.248 C 
ATOM     30  O   UNL     1      15.431  21.941   9.616  0.00  0.00    -0.270 OA
ATOM     31  H   UNL     1      14.082  23.504   7.214  0.00  0.00    +0.155 HD
BRANCH  14  15
ATOM     15  C   UNL     1      16.442  22.500   7.608  0.00  0.00    +0.037 A 
ATOM     16  C   UNL     1      17.716  21.881   7.982  0.00  0.00    +0.013 A 
ATOM     17  C   UNL     1      18.851  21.971   7.098  0.00  0.00    +0.005 A 
ATOM     18  C   UNL     1      18.716  22.683   5.829  0.00  0.00    -0.033 A 
ATOM     28  C   UNL     1      17.439  23.283   5.481  0.00  0.00    +0.005 A 
ATOM     29  C   UNL     1      16.324  23.197   6.345  0.00  0.00    +0.013 A 
BRANCH  18  19
ATOM     19  C   UNL     1      19.880  22.847   4.834  0.00  0.00    +0.119 C 
BRANCH  19  20
ATOM     20  N   UNL     1      19.910  24.096   4.017  0.00  0.00    -0.302 NA
ATOM     21  C   UNL     1      20.583  23.879   2.659  0.00  0.00    +0.066 C 
ATOM     22  C   UNL     1      20.586  25.191   1.809  0.00  0.00    -0.064 C 
ATOM     23  N   UNL     1      21.291  26.301   2.591  0.00  0.00    +0.379 N 
ATOM     24  C   UNL     1      21.346  27.520   1.771  0.00  0.00    -0.096 C 
ATOM     25  H   UNL     1      22.339  25.970   2.777  0.00  0.00    -0.082 HD
ATOM     26  C   UNL     1      20.630  26.522   3.944  0.00  0.00    -0.064 C 
ATOM     27  C   UNL     1      20.605  25.205   4.769  0.00  0.00    +0.066 C 
ENDBRANCH  19  20
ENDBRANCH  18  19
ENDBRANCH  14  15
ENDBRANCH  12  13
TORSDOF 6
ENDMDL
