MODEL 1
REMARK VINA RESULT:      -8.0      0.000      0.000
REMARK  Name = C:\Users\Docking\Desktop\test protocol\1iep_ligandH.pdb
REMARK  8 active torsions:
REMARK  status: ('A' for Active; 'I' for Inactive)
REMARK    1  A    between atoms: _5  and  _11
REMARK    2  A    between atoms: _19  and  _21
REMARK    3  A    between atoms: _22  and  _66
REMARK    4  A    between atoms: _27  and  _30
REMARK    5  A    between atoms: _32  and  _33
REMARK    6  A    between atoms: _38  and  _43
REMARK    7  A    between atoms: _43  and  _46
REMARK    8  A    between atoms: _53  and  _55
REMARK                            x       y       z     vdW  Elec       q    Type
REMARK                         _______ _______ _______ _____ _____    ______ ____
ROOT
ATOM     10  C   UNL     1       9.205  25.856   8.143  0.00  0.00    +0.038 A 
ATOM     11  C   UNL     1       7.837  26.229   8.082  0.00  0.00    +0.047 A 
ATOM     12  C   UNL     1       7.442  27.624   7.970  0.00  0.00    +0.035 A 
ATOM     32  C   UNL     1       8.466  28.615   7.921  0.00  0.00    +0.024 A 
ATOM     33  C   UNL     1       9.861  28.253   7.983  0.00  0.00    +0.007 A 
ATOM     34  C   UNL     1      10.257  26.879   8.095  0.00  0.00    -0.029 A 
ATOM     35  C   UNL     1      11.766  26.550   8.164  0.00  0.00    +0.045 C 
ENDROOT
BRANCH  10   9
ATOM      4  C   UNL     1      10.608  22.025  10.671  0.00  0.00    +0.077 A 
ATOM      5  C   UNL     1      10.735  22.793  11.876  0.00  0.00    +0.048 A 
ATOM      6  C   UNL     1      10.437  24.172  11.801  0.00  0.00    +0.116 A 
ATOM      7  N   UNL     1      10.041  24.731  10.605  0.00  0.00    -0.223 NA
ATOM      8  C   UNL     1       9.931  23.962   9.461  0.00  0.00    +0.220 A 
ATOM      9  N   UNL     1       9.527  24.501   8.249  0.00  0.00    -0.283 N 
ATOM     36  H   UNL     1       9.465  23.902   7.426  0.00  0.00    +0.155 HD
ATOM     37  N   UNL     1      10.211  22.643   9.506  0.00  0.00    -0.214 NA
BRANCH   4   3
ATOM      1  C   UNL     1      10.521  18.169  11.321  0.00  0.00    +0.020 A 
ATOM      2  C   UNL     1      10.218  19.577  11.440  0.00  0.00    +0.013 A 
ATOM      3  C   UNL     1      10.885  20.556  10.591  0.00  0.00    +0.019 A 
ATOM     38  C   UNL     1      11.860  20.074   9.624  0.00  0.00    +0.120 A 
ATOM     39  N   UNL     1      12.132  18.713   9.534  0.00  0.00    -0.263 NA
ATOM     40  C   UNL     1      11.498  17.761  10.347  0.00  0.00    +0.111 A 
ENDBRANCH   4   3
ENDBRANCH  10   9
BRANCH  12  13
ATOM     13  N   UNL     1       6.070  28.064   7.913  0.00  0.00    -0.281 N 
ATOM     14  C   UNL     1       5.117  27.755   6.956  0.00  0.00    +0.248 C 
ATOM     30  O   UNL     1       5.361  27.222   5.884  0.00  0.00    -0.270 OA
ATOM     31  H   UNL     1       5.765  28.677   8.669  0.00  0.00    +0.155 HD
BRANCH  14  15
ATOM     15  C   UNL     1       3.687  28.100   7.224  0.00  0.00    +0.037 A 
ATOM     16  C   UNL     1       2.607  27.162   6.910  0.00  0.00    +0.013 A 
ATOM     17  C   UNL     1       1.236  27.527   7.163  0.00  0.00    +0.005 A 
ATOM     18  C   UNL     1       0.937  28.838   7.734  0.00  0.00    -0.033 A 
ATOM     28  C   UNL     1       2.028  29.747   8.041  0.00  0.00    +0.005 A 
ATOM     29  C   UNL     1       3.374  29.393   7.794  0.00  0.00    +0.013 A 
BRANCH  18  19
ATOM     19  C   UNL     1      -0.498  29.319   8.017  0.00  0.00    +0.119 C 
BRANCH  19  20
ATOM     20  N   UNL     1      -0.667  30.412   9.021  0.00  0.00    -0.302 NA
ATOM     21  C   UNL     1      -1.714  30.061  10.082  0.00  0.00    +0.066 C 
ATOM     22  C   UNL     1      -1.862  31.206  11.136  0.00  0.00    -0.064 C 
ATOM     23  N   UNL     1      -2.229  32.508  10.423  0.00  0.00    +0.379 N 
ATOM     24  C   UNL     1      -2.426  33.573  11.417  0.00  0.00    -0.096 C 
ATOM     25  H   UNL     1      -3.202  32.346   9.904  0.00  0.00    -0.082 HD
ATOM     26  C   UNL     1      -1.195  32.863   9.365  0.00  0.00    -0.064 C 
ATOM     27  C   UNL     1      -1.035  31.707   8.338  0.00  0.00    +0.066 C 
ENDBRANCH  19  20
ENDBRANCH  18  19
ENDBRANCH  14  15
ENDBRANCH  12  13
TORSDOF 6
ENDMDL
MODEL 2
REMARK VINA RESULT:      -7.9      7.596     15.161
REMARK  Name = C:\Users\Docking\Desktop\test protocol\1iep_ligandH.pdb
REMARK  8 active torsions:
REMARK  status: ('A' for Active; 'I' for Inactive)
REMARK    1  A    between atoms: _5  and  _11
REMARK    2  A    between atoms: _19  and  _21
REMARK    3  A    between atoms: _22  and  _66
REMARK    4  A    between atoms: _27  and  _30
REMARK    5  A    between atoms: _32  and  _33
REMARK    6  A    between atoms: _38  and  _43
REMARK    7  A    between atoms: _43  and  _46
REMARK    8  A    between atoms: _53  and  _55
REMARK                            x       y       z     vdW  Elec       q    Type
REMARK                         _______ _______ _______ _____ _____    ______ ____
ROOT
ATOM     10  C   UNL     1      12.583  23.230   7.682  0.00  0.00    +0.038 A 
ATOM     11  C   UNL     1      13.801  23.645   7.084  0.00  0.00    +0.047 A 
ATOM     12  C   UNL     1      15.077  23.094   7.514  0.00  0.00    +0.035 A 
ATOM     32  C   UNL     1      15.076  22.121   8.555  0.00  0.00    +0.024 A 
ATOM     33  C   UNL     1      13.848  21.688   9.175  0.00  0.00    +0.007 A 
ATOM     34  C   UNL     1      12.587  22.230   8.757  0.00  0.00    -0.029 A 
ATOM     35  C   UNL     1      11.302  21.735   9.461  0.00  0.00    +0.045 C 
ENDROOT
BRANCH  10   9
ATOM      4  C   UNL     1       9.379  26.799   7.519  0.00  0.00    +0.077 A 
ATOM      5  C   UNL     1      10.139  27.603   8.433  0.00  0.00    +0.048 A 
ATOM      6  C   UNL     1      11.345  27.058   8.928  0.00  0.00    +0.116 A 
ATOM      7  N   UNL     1      11.751  25.802   8.531  0.00  0.00    -0.223 NA
ATOM      8  C   UNL     1      10.994  25.053   7.649  0.00  0.00    +0.220 A 
ATOM      9  N   UNL     1      11.387  23.791   7.230  0.00  0.00    -0.283 N 
ATOM     36  H   UNL     1      10.797  23.268   6.584  0.00  0.00    +0.155 HD
ATOM     37  N   UNL     1       9.837  25.550   7.164  0.00  0.00    -0.214 NA
BRANCH   4   3
ATOM      1  C   UNL     1       5.686  28.006   7.060  0.00  0.00    +0.020 A 
ATOM      2  C   UNL     1       6.912  27.588   7.700  0.00  0.00    +0.013 A 
ATOM      3  C   UNL     1       8.084  27.238   6.908  0.00  0.00    +0.019 A 
ATOM     38  C   UNL     1       7.983  27.323   5.459  0.00  0.00    +0.120 A 
ATOM     39  N   UNL     1       6.789  27.728   4.870  0.00  0.00    -0.263 NA
ATOM     40  C   UNL     1       5.653  28.065   5.622  0.00  0.00    +0.111 A 
ENDBRANCH   4   3
ENDBRANCH  10   9
BRANCH  12  13
ATOM     13  N   UNL     1      16.345  23.483   6.949  0.00  0.00    -0.281 N 
ATOM     14  C   UNL     1      17.235  22.698   6.234  0.00  0.00    +0.248 C 
ATOM     30  O   UNL     1      17.173  21.480   6.154  0.00  0.00    -0.270 OA
ATOM     31  H   UNL     1      16.620  24.454   7.094  0.00  0.00    +0.155 HD
BRANCH  14  15
ATOM     15  C   UNL     1      18.365  23.361   5.515  0.00  0.00    +0.037 A 
ATOM     16  C   UNL     1      19.705  22.769   5.497  0.00  0.00    +0.013 A 
ATOM     17  C   UNL     1      20.782  23.438   4.810  0.00  0.00    +0.005 A 
ATOM     18  C   UNL     1      20.522  24.706   4.134  0.00  0.00    -0.033 A 
ATOM     28  C   UNL     1      19.182  25.268   4.163  0.00  0.00    +0.005 A 
ATOM     29  C   UNL     1      18.124  24.616   4.836  0.00  0.00    +0.013 A 
BRANCH  18  19
ATOM     19  C   UNL     1      21.615  25.499   3.394  0.00  0.00    +0.119 C 
BRANCH  19  20
ATOM     20  N   UNL     1      21.181  26.368   2.259  0.00  0.00    -0.302 NA
ATOM     21  C   UNL     1      21.964  26.072   0.977  0.00  0.00    +0.066 C 
ATOM     22  C   UNL     1      21.482  26.973  -0.205  0.00  0.00    -0.064 C 
ATOM     23  N   UNL     1      21.623  28.445   0.188  0.00  0.00    +0.379 N 
ATOM     24  C   UNL     1      21.225  29.296  -0.943  0.00  0.00    -0.096 C 
ATOM     25  H   UNL     1      22.702  28.638   0.394  0.00  0.00    -0.082 HD
ATOM     26  C   UNL     1      20.849  28.747   1.464  0.00  0.00    -0.064 C 
ATOM     27  C   UNL     1      21.316  27.825   2.625  0.00  0.00    +0.066 C 
ENDBRANCH  19  20
ENDBRANCH  18  19
ENDBRANCH  14  15
ENDBRANCH  12  13
TORSDOF 6
ENDMDL
MODEL 3
REMARK VINA RESULT:      -7.8     14.633     19.120
REMARK  Name = C:\Users\Docking\Desktop\test protocol\1iep_ligandH.pdb
REMARK  8 active torsions:
REMARK  status: ('A' for Active; 'I' for Inactive)
REMARK    1  A    between atoms: _5  and  _11
REMARK    2  A    between atoms: _19  and  _21
REMARK    3  A    between atoms: _22  and  _66
REMARK    4  A    between atoms: _27  and  _30
REMARK    5  A    between atoms: _32  and  _33
REMARK    6  A    between atoms: _38  and  _43
REMARK    7  A    between atoms: _43  and  _46
REMARK    8  A    between atoms: _53  and  _55
REMARK                            x       y       z     vdW  Elec       q    Type
REMARK                         _______ _______ _______ _____ _____    ______ ____
ROOT
ATOM     10  C   UNL     1      20.026  27.250   1.100  0.00  0.00    +0.038 A 
ATOM     11  C   UNL     1      20.638  28.456   1.527  0.00  0.00    +0.047 A 
ATOM     12  C   UNL     1      21.193  29.399   0.568  0.00  0.00    +0.035 A 
ATOM     32  C   UNL     1      21.106  29.081  -0.819  0.00  0.00    +0.024 A 
ATOM     33  C   UNL     1      20.488  27.859  -1.270  0.00  0.00    +0.007 A 
ATOM     34  C   UNL     1      19.941  26.925  -0.328  0.00  0.00    -0.029 A 
ATOM     35  C   UNL     1      19.296  25.627  -0.869  0.00  0.00    +0.045 C 
ENDROOT
BRANCH  10   9
ATOM      4  C   UNL     1      20.543  23.842   4.440  0.00  0.00    +0.077 A 
ATOM      5  C   UNL     1      21.960  23.766   4.228  0.00  0.00    +0.048 A 
ATOM      6  C   UNL     1      22.515  24.616   3.245  0.00  0.00    +0.116 A 
ATOM      7  N   UNL     1      21.704  25.474   2.534  0.00  0.00    -0.223 NA
ATOM      8  C   UNL     1      20.341  25.521   2.762  0.00  0.00    +0.220 A 
ATOM      9  N   UNL     1      19.509  26.382   2.064  0.00  0.00    -0.283 N 
ATOM     36  H   UNL     1      18.507  26.381   2.257  0.00  0.00    +0.155 HD
ATOM     37  N   UNL     1      19.787  24.719   3.695  0.00  0.00    -0.214 NA
BRANCH   4   3
ATOM      1  C   UNL     1      19.714  21.247   7.247  0.00  0.00    +0.020 A 
ATOM      2  C   UNL     1      20.469  22.024   6.292  0.00  0.00    +0.013 A 
ATOM      3  C   UNL     1      19.809  23.011   5.446  0.00  0.00    +0.019 A 
ATOM     38  C   UNL     1      18.372  23.189   5.594  0.00  0.00    +0.120 A 
ATOM     39  N   UNL     1      17.671  22.425   6.522  0.00  0.00    -0.263 NA
ATOM     40  C   UNL     1      18.295  21.472   7.340  0.00  0.00    +0.111 A 
ENDBRANCH   4   3
ENDBRANCH  10   9
BRANCH  12  13
ATOM     13  N   UNL     1      21.834  30.635   0.943  0.00  0.00    -0.281 N 
ATOM     14  C   UNL     1      22.232  31.039   2.207  0.00  0.00    +0.248 C 
ATOM     30  O   UNL     1      21.903  30.485   3.245  0.00  0.00    -0.270 OA
ATOM     31  H   UNL     1      22.016  31.292   0.184  0.00  0.00    +0.155 HD
BRANCH  14  15
ATOM     15  C   UNL     1      23.111  32.241   2.337  0.00  0.00    +0.037 A 
ATOM     16  C   UNL     1      23.405  32.829   3.646  0.00  0.00    +0.013 A 
ATOM     17  C   UNL     1      24.243  33.998   3.742  0.00  0.00    +0.005 A 
ATOM     18  C   UNL     1      24.794  34.586   2.524  0.00  0.00    -0.033 A 
ATOM     28  C   UNL     1      24.490  33.980   1.238  0.00  0.00    +0.005 A 
ATOM     29  C   UNL     1      23.669  32.834   1.140  0.00  0.00    +0.013 A 
BRANCH  18  19
ATOM     19  C   UNL     1      25.679  35.846   2.530  0.00  0.00    +0.119 C 
BRANCH  19  20
ATOM     20  N   UNL     1      25.037  37.132   2.937  0.00  0.00    -0.302 NA
ATOM     21  C   UNL     1      25.492  38.303   2.062  0.00  0.00    +0.066 C 
ATOM     22  C   UNL     1      24.793  39.636   2.487  0.00  0.00    -0.064 C 
ATOM     23  N   UNL     1      25.088  39.915   3.962  0.00  0.00    +0.379 N 
ATOM     24  C   UNL     1      24.481  41.197   4.350  0.00  0.00    -0.096 C 
ATOM     25  H   UNL     1      26.193  40.016   4.072  0.00  0.00    -0.082 HD
ATOM     26  C   UNL     1      24.642  38.754   4.839  0.00  0.00    -0.064 C 
ATOM     27  C   UNL     1      25.319  37.429   4.389  0.00  0.00    +0.066 C 
ENDBRANCH  19  20
ENDBRANCH  18  19
ENDBRANCH  14  15
ENDBRANCH  12  13
TORSDOF 6
ENDMDL
MODEL 4
REMARK VINA RESULT:      -7.8      9.866     14.367
REMARK  Name = C:\Users\Docking\Desktop\test protocol\1iep_ligandH.pdb
REMARK  8 active torsions:
REMARK  status: ('A' for Active; 'I' for Inactive)
REMARK    1  A    between atoms: _5  and  _11
REMARK    2  A    between atoms: _19  and  _21
REMARK    3  A    between atoms: _22  and  _66
REMARK    4  A    between atoms: _27  and  _30
REMARK    5  A    between atoms: _32  and  _33
REMARK    6  A    between atoms: _38  and  _43
REMARK    7  A    between atoms: _43  and  _46
REMARK    8  A    between atoms: _53  and  _55
REMARK                            x       y       z     vdW  Elec       q    Type
REMARK                         _______ _______ _______ _____ _____    ______ ____
ROOT
ATOM     10  C   UNL     1      20.247  25.914   3.313  0.00  0.00    +0.038 A 
ATOM     11  C   UNL     1      18.832  25.834   3.373  0.00  0.00    +0.047 A 
ATOM     12  C   UNL     1      18.139  24.580   3.123  0.00  0.00    +0.035 A 
ATOM     32  C   UNL     1      18.918  23.426   2.819  0.00  0.00    +0.024 A 
ATOM     33  C   UNL     1      20.357  23.490   2.754  0.00  0.00    +0.007 A 
ATOM     34  C   UNL     1      21.046  24.725   2.996  0.00  0.00    -0.029 A 
ATOM     35  C   UNL     1      22.590  24.737   2.906  0.00  0.00    +0.045 C 
ENDROOT
BRANCH  10   9
ATOM      4  C   UNL     1      21.902  30.185   1.878  0.00  0.00    +0.077 A 
ATOM      5  C   UNL     1      21.537  29.934   0.513  0.00  0.00    +0.048 A 
ATOM      6  C   UNL     1      20.932  28.691   0.222  0.00  0.00    +0.116 A 
ATOM      7  N   UNL     1      20.713  27.775   1.227  0.00  0.00    -0.223 NA
ATOM      8  C   UNL     1      21.079  28.048   2.533  0.00  0.00    +0.220 A 
ATOM      9  N   UNL     1      20.860  27.144   3.562  0.00  0.00    -0.283 N 
ATOM     36  H   UNL     1      21.151  27.380   4.510  0.00  0.00    +0.155 HD
ATOM     37  N   UNL     1      21.659  29.227   2.837  0.00  0.00    -0.214 NA
BRANCH   4   3
ATOM      1  C   UNL     1      23.872  32.806   4.010  0.00  0.00    +0.020 A 
ATOM      2  C   UNL     1      23.268  31.558   3.607  0.00  0.00    +0.013 A 
ATOM      3  C   UNL     1      22.546  31.453   2.345  0.00  0.00    +0.019 A 
ATOM     38  C   UNL     1      22.455  32.640   1.507  0.00  0.00    +0.120 A 
ATOM     39  N   UNL     1      23.046  33.829   1.923  0.00  0.00    -0.263 NA
ATOM     40  C   UNL     1      23.741  33.942   3.136  0.00  0.00    +0.111 A 
ENDBRANCH   4   3
ENDBRANCH  10   9
BRANCH  12  13
ATOM     13  N   UNL     1      16.704  24.439   3.161  0.00  0.00    -0.281 N 
ATOM     14  C   UNL     1      15.946  23.680   4.038  0.00  0.00    +0.248 C 
ATOM     30  O   UNL     1      16.402  22.833   4.792  0.00  0.00    -0.270 OA
ATOM     31  H   UNL     1      16.184  24.963   2.457  0.00  0.00    +0.155 HD
BRANCH  14  15
ATOM     15  C   UNL     1      14.465  23.880   4.071  0.00  0.00    +0.037 A 
ATOM     16  C   UNL     1      13.840  25.041   3.433  0.00  0.00    +0.013 A 
ATOM     17  C   UNL     1      12.411  25.219   3.494  0.00  0.00    +0.005 A 
ATOM     18  C   UNL     1      11.596  24.230   4.196  0.00  0.00    -0.033 A 
ATOM     28  C   UNL     1      12.241  23.084   4.815  0.00  0.00    +0.005 A 
ATOM     29  C   UNL     1      13.642  22.907   4.758  0.00  0.00    +0.013 A 
BRANCH  18  19
ATOM     19  C   UNL     1      10.066  24.350   4.329  0.00  0.00    +0.119 C 
BRANCH  19  20
ATOM     20  N   UNL     1       9.542  25.228   5.417  0.00  0.00    -0.302 NA
ATOM     21  C   UNL     1       9.244  26.645   4.917  0.00  0.00    +0.066 C 
ATOM     22  C   UNL     1       8.675  27.544   6.062  0.00  0.00    -0.064 C 
ATOM     23  N   UNL     1       9.670  27.578   7.223  0.00  0.00    +0.379 N 
ATOM     24  C   UNL     1       9.164  28.469   8.277  0.00  0.00    -0.096 C 
ATOM     25  H   UNL     1      10.622  28.013   6.840  0.00  0.00    -0.082 HD
ATOM     26  C   UNL     1       9.974  26.173   7.724  0.00  0.00    -0.064 C 
ATOM     27  C   UNL     1      10.511  25.279   6.572  0.00  0.00    +0.066 C 
ENDBRANCH  19  20
ENDBRANCH  18  19
ENDBRANCH  14  15
ENDBRANCH  12  13
TORSDOF 6
ENDMDL
MODEL 5
REMARK VINA RESULT:      -7.8      8.216     16.108
REMARK  Name = C:\Users\Docking\Desktop\test protocol\1iep_ligandH.pdb
REMARK  8 active torsions:
REMARK  status: ('A' for Active; 'I' for Inactive)
REMARK    1  A    between atoms: _5  and  _11
REMARK    2  A    between atoms: _19  and  _21
REMARK    3  A    between atoms: _22  and  _66
REMARK    4  A    between atoms: _27  and  _30
REMARK    5  A    between atoms: _32  and  _33
REMARK    6  A    between atoms: _38  and  _43
REMARK    7  A    between atoms: _43  and  _46
REMARK    8  A    between atoms: _53  and  _55
REMARK                            x       y       z     vdW  Elec       q    Type
REMARK                         _______ _______ _______ _____ _____    ______ ____
ROOT
ATOM     10  C   UNL     1      12.669  23.261   7.581  0.00  0.00    +0.038 A 
ATOM     11  C   UNL     1      13.891  23.668   6.988  0.00  0.00    +0.047 A 
ATOM     12  C   UNL     1      15.162  23.113   7.426  0.00  0.00    +0.035 A 
ATOM     32  C   UNL     1      15.151  22.142   8.470  0.00  0.00    +0.024 A 
ATOM     33  C   UNL     1      13.917  21.718   9.085  0.00  0.00    +0.007 A 
ATOM     34  C   UNL     1      12.661  22.264   8.658  0.00  0.00    -0.029 A 
ATOM     35  C   UNL     1      11.370  21.778   9.357  0.00  0.00    +0.045 C 
ENDROOT
BRANCH  10   9
ATOM      4  C   UNL     1       9.419  26.793   7.488  0.00  0.00    +0.077 A 
ATOM      5  C   UNL     1      10.142  27.563   8.459  0.00  0.00    +0.048 A 
ATOM      6  C   UNL     1      11.341  27.012   8.962  0.00  0.00    +0.116 A 
ATOM      7  N   UNL     1      11.777  25.781   8.520  0.00  0.00    -0.223 NA
ATOM      8  C   UNL     1      11.055  25.063   7.584  0.00  0.00    +0.220 A 
ATOM      9  N   UNL     1      11.478  23.828   7.120  0.00  0.00    -0.283 N 
ATOM     36  H   UNL     1      10.913  23.326   6.435  0.00  0.00    +0.155 HD
ATOM     37  N   UNL     1       9.905  25.568   7.089  0.00  0.00    -0.214 NA
BRANCH   4   3
ATOM      1  C   UNL     1       5.744  28.032   6.981  0.00  0.00    +0.020 A 
ATOM      2  C   UNL     1       6.958  27.604   7.637  0.00  0.00    +0.013 A 
ATOM      3  C   UNL     1       8.137  27.242   6.860  0.00  0.00    +0.019 A 
ATOM     38  C   UNL     1       8.053  27.326   5.409  0.00  0.00    +0.120 A 
ATOM     39  N   UNL     1       6.870  27.740   4.806  0.00  0.00    -0.263 NA
ATOM     40  C   UNL     1       5.729  28.089   5.543  0.00  0.00    +0.111 A 
ENDBRANCH   4   3
ENDBRANCH  10   9
BRANCH  12  13
ATOM     13  N   UNL     1      16.435  23.493   6.867  0.00  0.00    -0.281 N 
ATOM     14  C   UNL     1      17.198  22.803   5.939  0.00  0.00    +0.248 C 
ATOM     30  O   UNL     1      17.001  21.644   5.607  0.00  0.00    -0.270 OA
ATOM     31  H   UNL     1      16.821  24.379   7.195  0.00  0.00    +0.155 HD
BRANCH  14  15
ATOM     15  C   UNL     1      18.357  23.497   5.298  0.00  0.00    +0.037 A 
ATOM     16  C   UNL     1      18.170  24.715   4.506  0.00  0.00    +0.013 A 
ATOM     17  C   UNL     1      19.302  25.355   3.884  0.00  0.00    +0.005 A 
ATOM     18  C   UNL     1      20.633  24.777   4.054  0.00  0.00    -0.033 A 
ATOM     28  C   UNL     1      20.791  23.571   4.850  0.00  0.00    +0.005 A 
ATOM     29  C   UNL     1      19.683  22.941   5.460  0.00  0.00    +0.013 A 
BRANCH  18  19
ATOM     19  C   UNL     1      21.895  25.381   3.410  0.00  0.00    +0.119 C 
BRANCH  19  20
ATOM     20  N   UNL     1      22.400  24.735   2.161  0.00  0.00    -0.302 NA
ATOM     21  C   UNL     1      23.587  23.807   2.434  0.00  0.00    +0.066 C 
ATOM     22  C   UNL     1      24.089  23.123   1.121  0.00  0.00    -0.064 C 
ATOM     23  N   UNL     1      24.466  24.199   0.101  0.00  0.00    +0.379 N 
ATOM     24  C   UNL     1      24.993  23.560  -1.114  0.00  0.00    -0.096 C 
ATOM     25  H   UNL     1      25.285  24.812   0.543  0.00  0.00    -0.082 HD
ATOM     26  C   UNL     1      23.292  25.128  -0.174  0.00  0.00    -0.064 C 
ATOM     27  C   UNL     1      22.783  25.780   1.141  0.00  0.00    +0.066 C 
ENDBRANCH  19  20
ENDBRANCH  18  19
ENDBRANCH  14  15
ENDBRANCH  12  13
TORSDOF 6
ENDMDL
