MODEL 1
REMARK VINA RESULT:      -8.1      0.000      0.000
REMARK  Name = C:\Users\Docking\Desktop\test protocol\1iep_ligandH.pdb
REMARK  8 active torsions:
REMARK  status: ('A' for Active; 'I' for Inactive)
REMARK    1  A    between atoms: _5  and  _11
REMARK    2  A    between atoms: _19  and  _21
REMARK    3  A    between atoms: _22  and  _66
REMARK    4  A    between atoms: _27  and  _30
REMARK    5  A    between atoms: _32  and  _33
REMARK    6  A    between atoms: _38  and  _43
REMARK    7  A    between atoms: _43  and  _46
REMARK    8  A    between atoms: _53  and  _55
REMARK                            x       y       z     vdW  Elec       q    Type
REMARK                         _______ _______ _______ _____ _____    ______ ____
ROOT
ATOM     10  C   UNL     1       3.110  -5.271  14.011  0.00  0.00    +0.038 A 
ATOM     11  C   UNL     1       2.439  -5.877  15.104  0.00  0.00    +0.047 A 
ATOM     12  C   UNL     1       2.706  -7.257  15.480  0.00  0.00    +0.035 A 
ATOM     32  C   UNL     1       3.665  -7.990  14.721  0.00  0.00    +0.024 A 
ATOM     33  C   UNL     1       4.355  -7.390  13.607  0.00  0.00    +0.007 A 
ATOM     34  C   UNL     1       4.094  -6.030  13.230  0.00  0.00    -0.029 A 
ATOM     35  C   UNL     1       4.859  -5.441  12.022  0.00  0.00    +0.045 C 
ENDROOT
BRANCH  10   9
ATOM      4  C   UNL     1       0.430  -1.931  11.845  0.00  0.00    +0.077 A 
ATOM      5  C   UNL     1      -0.442  -2.917  11.272  0.00  0.00    +0.048 A 
ATOM      6  C   UNL     1      -0.161  -4.272  11.554  0.00  0.00    +0.116 A 
ATOM      7  N   UNL     1       0.913  -4.606  12.351  0.00  0.00    -0.223 NA
ATOM      8  C   UNL     1       1.734  -3.631  12.885  0.00  0.00    +0.220 A 
ATOM      9  N   UNL     1       2.815  -3.943  13.695  0.00  0.00    -0.283 N 
ATOM     36  H   UNL     1       3.402  -3.195  14.064  0.00  0.00    +0.155 HD
ATOM     37  N   UNL     1       1.489  -2.329  12.630  0.00  0.00    -0.214 NA
BRANCH   4   3
ATOM      1  C   UNL     1       0.153   1.601  10.187  0.00  0.00    +0.020 A 
ATOM      2  C   UNL     1       0.322   0.174  10.329  0.00  0.00    +0.013 A 
ATOM      3  C   UNL     1       0.262  -0.457  11.641  0.00  0.00    +0.019 A 
ATOM     38  C   UNL     1       0.026   0.392  12.799  0.00  0.00    +0.120 A 
ATOM     39  N   UNL     1      -0.132   1.764  12.632  0.00  0.00    -0.263 NA
ATOM     40  C   UNL     1      -0.074   2.383  11.375  0.00  0.00    +0.111 A 
ENDBRANCH   4   3
ENDBRANCH  10   9
BRANCH  12  13
ATOM     13  N   UNL     1       2.050  -7.927  16.575  0.00  0.00    -0.281 N 
ATOM     14  C   UNL     1       2.528  -8.130  17.859  0.00  0.00    +0.248 C 
ATOM     30  O   UNL     1       3.688  -7.951  18.201  0.00  0.00    -0.270 OA
ATOM     31  H   UNL     1       1.120  -8.298  16.379  0.00  0.00    +0.155 HD
BRANCH  14  15
ATOM     15  C   UNL     1       1.586  -8.616  18.912  0.00  0.00    +0.037 A 
ATOM     16  C   UNL     1       0.630  -9.692  18.639  0.00  0.00    +0.013 A 
ATOM     17  C   UNL     1      -0.279 -10.130  19.668  0.00  0.00    +0.005 A 
ATOM     18  C   UNL     1      -0.236  -9.492  20.981  0.00  0.00    -0.033 A 
ATOM     28  C   UNL     1       0.725  -8.430  21.227  0.00  0.00    +0.005 A 
ATOM     29  C   UNL     1       1.618  -7.997  20.220  0.00  0.00    +0.013 A 
BRANCH  18  19
ATOM     19  C   UNL     1      -1.184  -9.881  22.132  0.00  0.00    +0.119 C 
BRANCH  19  20
ATOM     20  N   UNL     1      -2.644  -9.651  21.922  0.00  0.00    -0.302 NA
ATOM     21  C   UNL     1      -3.118  -8.343  22.562  0.00  0.00    +0.066 C 
ATOM     22  C   UNL     1      -4.643  -8.107  22.314  0.00  0.00    -0.064 C 
ATOM     23  N   UNL     1      -5.436  -9.296  22.861  0.00  0.00    +0.379 N 
ATOM     24  C   UNL     1      -6.874  -9.051  22.681  0.00  0.00    -0.096 C 
ATOM     25  H   UNL     1      -5.237  -9.359  23.956  0.00  0.00    -0.082 HD
ATOM     26  C   UNL     1      -4.969 -10.601  22.231  0.00  0.00    -0.064 C 
ATOM     27  C   UNL     1      -3.446 -10.811  22.459  0.00  0.00    +0.066 C 
ENDBRANCH  19  20
ENDBRANCH  18  19
ENDBRANCH  14  15
ENDBRANCH  12  13
TORSDOF 6
ENDMDL
MODEL 2
REMARK VINA RESULT:      -7.7      2.345      2.747
REMARK  Name = C:\Users\Docking\Desktop\test protocol\1iep_ligandH.pdb
REMARK  8 active torsions:
REMARK  status: ('A' for Active; 'I' for Inactive)
REMARK    1  A    between atoms: _5  and  _11
REMARK    2  A    between atoms: _19  and  _21
REMARK    3  A    between atoms: _22  and  _66
REMARK    4  A    between atoms: _27  and  _30
REMARK    5  A    between atoms: _32  and  _33
REMARK    6  A    between atoms: _38  and  _43
REMARK    7  A    between atoms: _43  and  _46
REMARK    8  A    between atoms: _53  and  _55
REMARK                            x       y       z     vdW  Elec       q    Type
REMARK                         _______ _______ _______ _____ _____    ______ ____
ROOT
ATOM     10  C   UNL     1       4.058  -3.127  16.832  0.00  0.00    +0.038 A 
ATOM     11  C   UNL     1       3.214  -4.034  17.522  0.00  0.00    +0.047 A 
ATOM     12  C   UNL     1       3.753  -5.217  18.174  0.00  0.00    +0.035 A 
ATOM     32  C   UNL     1       5.159  -5.445  18.105  0.00  0.00    +0.024 A 
ATOM     33  C   UNL     1       6.031  -4.534  17.407  0.00  0.00    +0.007 A 
ATOM     34  C   UNL     1       5.505  -3.367  16.760  0.00  0.00    -0.029 A 
ATOM     35  C   UNL     1       6.486  -2.429  16.020  0.00  0.00    +0.045 C 
ENDROOT
BRANCH  10   9
ATOM      4  C   UNL     1       2.265  -0.835  13.015  0.00  0.00    +0.077 A 
ATOM      5  C   UNL     1       2.511  -1.955  12.153  0.00  0.00    +0.048 A 
ATOM      6  C   UNL     1       3.108  -3.099  12.729  0.00  0.00    +0.116 A 
ATOM      7  N   UNL     1       3.429  -3.111  14.069  0.00  0.00    -0.223 NA
ATOM      8  C   UNL     1       3.179  -2.014  14.873  0.00  0.00    +0.220 A 
ATOM      9  N   UNL     1       3.487  -2.007  16.225  0.00  0.00    -0.283 N 
ATOM     36  H   UNL     1       3.294  -1.175  16.781  0.00  0.00    +0.155 HD
ATOM     37  N   UNL     1       2.612  -0.909  14.346  0.00  0.00    -0.214 NA
BRANCH   4   3
ATOM      1  C   UNL     1      -0.360   1.891  12.025  0.00  0.00    +0.020 A 
ATOM      2  C   UNL     1       0.195   0.635  12.476  0.00  0.00    +0.013 A 
ATOM      3  C   UNL     1       1.637   0.444  12.555  0.00  0.00    +0.019 A 
ATOM     38  C   UNL     1       2.498   1.552  12.170  0.00  0.00    +0.120 A 
ATOM     39  N   UNL     1       1.935   2.749  11.738  0.00  0.00    -0.263 NA
ATOM     40  C   UNL     1       0.548   2.944  11.656  0.00  0.00    +0.111 A 
ENDBRANCH   4   3
ENDBRANCH  10   9
BRANCH  12  13
ATOM     13  N   UNL     1       2.944  -6.177  18.883  0.00  0.00    -0.281 N 
ATOM     14  C   UNL     1       2.834  -6.353  20.252  0.00  0.00    +0.248 C 
ATOM     30  O   UNL     1       3.583  -5.849  21.076  0.00  0.00    -0.270 OA
ATOM     31  H   UNL     1       2.384  -6.804  18.304  0.00  0.00    +0.155 HD
BRANCH  14  15
ATOM     15  C   UNL     1       1.744  -7.227  20.783  0.00  0.00    +0.037 A 
ATOM     16  C   UNL     1       1.383  -8.481  20.117  0.00  0.00    +0.013 A 
ATOM     17  C   UNL     1       0.316  -9.297  20.641  0.00  0.00    +0.005 A 
ATOM     18  C   UNL     1      -0.397  -8.861  21.839  0.00  0.00    -0.033 A 
ATOM     28  C   UNL     1      -0.015  -7.615  22.483  0.00  0.00    +0.005 A 
ATOM     29  C   UNL     1       1.030  -6.812  21.972  0.00  0.00    +0.013 A 
BRANCH  18  19
ATOM     19  C   UNL     1      -1.563  -9.657  22.455  0.00  0.00    +0.119 C 
BRANCH  19  20
ATOM     20  N   UNL     1      -2.934  -9.377  21.933  0.00  0.00    -0.302 NA
ATOM     21  C   UNL     1      -3.585  -8.185  22.639  0.00  0.00    +0.066 C 
ATOM     22  C   UNL     1      -5.009  -7.892  22.065  0.00  0.00    -0.064 C 
ATOM     23  N   UNL     1      -5.878  -9.143  22.202  0.00  0.00    +0.379 N 
ATOM     24  C   UNL     1      -7.236  -8.854  21.716  0.00  0.00    -0.096 C 
ATOM     25  H   UNL     1      -5.952  -9.387  23.287  0.00  0.00    -0.082 HD
ATOM     26  C   UNL     1      -5.237 -10.334  21.504  0.00  0.00    -0.064 C 
ATOM     27  C   UNL     1      -3.810 -10.599  22.062  0.00  0.00    +0.066 C 
ENDBRANCH  19  20
ENDBRANCH  18  19
ENDBRANCH  14  15
ENDBRANCH  12  13
TORSDOF 6
ENDMDL
MODEL 3
REMARK VINA RESULT:      -7.5      8.858     12.973
REMARK  Name = C:\Users\Docking\Desktop\test protocol\1iep_ligandH.pdb
REMARK  8 active torsions:
REMARK  status: ('A' for Active; 'I' for Inactive)
REMARK    1  A    between atoms: _5  and  _11
REMARK    2  A    between atoms: _19  and  _21
REMARK    3  A    between atoms: _22  and  _66
REMARK    4  A    between atoms: _27  and  _30
REMARK    5  A    between atoms: _32  and  _33
REMARK    6  A    between atoms: _38  and  _43
REMARK    7  A    between atoms: _43  and  _46
REMARK    8  A    between atoms: _53  and  _55
REMARK                            x       y       z     vdW  Elec       q    Type
REMARK                         _______ _______ _______ _____ _____    ______ ____
ROOT
ATOM     10  C   UNL     1       5.309  -0.872  22.419  0.00  0.00    +0.038 A 
ATOM     11  C   UNL     1       4.984  -0.916  21.040  0.00  0.00    +0.047 A 
ATOM     12  C   UNL     1       5.699  -1.793  20.126  0.00  0.00    +0.035 A 
ATOM     32  C   UNL     1       6.739  -2.613  20.652  0.00  0.00    +0.024 A 
ATOM     33  C   UNL     1       7.084  -2.580  22.051  0.00  0.00    +0.007 A 
ATOM     34  C   UNL     1       6.383  -1.716  22.957  0.00  0.00    -0.029 A 
ATOM     35  C   UNL     1       6.799  -1.717  24.447  0.00  0.00    +0.045 C 
ENDROOT
BRANCH  10   9
ATOM      4  C   UNL     1       4.830   3.227  24.872  0.00  0.00    +0.077 A 
ATOM      5  C   UNL     1       6.135   3.680  24.483  0.00  0.00    +0.048 A 
ATOM      6  C   UNL     1       6.900   2.826  23.657  0.00  0.00    +0.116 A 
ATOM      7  N   UNL     1       6.388   1.611  23.256  0.00  0.00    -0.223 NA
ATOM      8  C   UNL     1       5.127   1.203  23.650  0.00  0.00    +0.220 A 
ATOM      9  N   UNL     1       4.590  -0.011  23.252  0.00  0.00    -0.283 N 
ATOM     36  H   UNL     1       3.659  -0.279  23.570  0.00  0.00    +0.155 HD
ATOM     37  N   UNL     1       4.378   2.000  24.440  0.00  0.00    -0.214 NA
BRANCH   4   3
ATOM      1  C   UNL     1       1.638   4.986  26.290  0.00  0.00    +0.020 A 
ATOM      2  C   UNL     1       2.493   4.214  25.418  0.00  0.00    +0.013 A 
ATOM      3  C   UNL     1       3.901   4.017  25.739  0.00  0.00    +0.019 A 
ATOM     38  C   UNL     1       4.416   4.619  26.959  0.00  0.00    +0.120 A 
ATOM     39  N   UNL     1       3.570   5.359  27.779  0.00  0.00    -0.263 NA
ATOM     40  C   UNL     1       2.213   5.557  27.479  0.00  0.00    +0.111 A 
ENDBRANCH   4   3
ENDBRANCH  10   9
BRANCH  12  13
ATOM     13  N   UNL     1       5.419  -1.874  18.714  0.00  0.00    -0.281 N 
ATOM     14  C   UNL     1       4.630  -2.802  18.054  0.00  0.00    +0.248 C 
ATOM     30  O   UNL     1       4.214  -3.837  18.556  0.00  0.00    -0.270 OA
ATOM     31  H   UNL     1       5.855  -1.161  18.129  0.00  0.00    +0.155 HD
BRANCH  14  15
ATOM     15  C   UNL     1       4.260  -2.553  16.628  0.00  0.00    +0.037 A 
ATOM     16  C   UNL     1       3.394  -3.479  15.894  0.00  0.00    +0.013 A 
ATOM     17  C   UNL     1       3.067  -3.223  14.513  0.00  0.00    +0.005 A 
ATOM     18  C   UNL     1       3.605  -2.034  13.858  0.00  0.00    -0.033 A 
ATOM     28  C   UNL     1       4.457  -1.128  14.612  0.00  0.00    +0.005 A 
ATOM     29  C   UNL     1       4.781  -1.376  15.965  0.00  0.00    +0.013 A 
BRANCH  18  19
ATOM     19  C   UNL     1       3.326  -1.693  12.383  0.00  0.00    +0.119 C 
BRANCH  19  20
ATOM     20  N   UNL     1       2.358  -0.589  12.107  0.00  0.00    -0.302 NA
ATOM     21  C   UNL     1       1.304  -0.994  11.074  0.00  0.00    +0.066 C 
ATOM     22  C   UNL     1       0.287   0.165  10.815  0.00  0.00    -0.064 C 
ATOM     23  N   UNL     1       1.044   1.412  10.355  0.00  0.00    +0.379 N 
ATOM     24  C   UNL     1       0.086   2.486  10.055  0.00  0.00    -0.096 C 
ATOM     25  H   UNL     1       1.573   1.156   9.408  0.00  0.00    -0.082 HD
ATOM     26  C   UNL     1       2.097   1.820  11.376  0.00  0.00    -0.064 C 
ATOM     27  C   UNL     1       3.085   0.651  11.648  0.00  0.00    +0.066 C 
ENDBRANCH  19  20
ENDBRANCH  18  19
ENDBRANCH  14  15
ENDBRANCH  12  13
TORSDOF 6
ENDMDL
MODEL 4
REMARK VINA RESULT:      -7.4      7.506     10.978
REMARK  Name = C:\Users\Docking\Desktop\test protocol\1iep_ligandH.pdb
REMARK  8 active torsions:
REMARK  status: ('A' for Active; 'I' for Inactive)
REMARK    1  A    between atoms: _5  and  _11
REMARK    2  A    between atoms: _19  and  _21
REMARK    3  A    between atoms: _22  and  _66
REMARK    4  A    between atoms: _27  and  _30
REMARK    5  A    between atoms: _32  and  _33
REMARK    6  A    between atoms: _38  and  _43
REMARK    7  A    between atoms: _43  and  _46
REMARK    8  A    between atoms: _53  and  _55
REMARK                            x       y       z     vdW  Elec       q    Type
REMARK                         _______ _______ _______ _____ _____    ______ ____
ROOT
ATOM     10  C   UNL     1       2.716  -5.639  10.238  0.00  0.00    +0.038 A 
ATOM     11  C   UNL     1       1.954  -6.358   9.281  0.00  0.00    +0.047 A 
ATOM     12  C   UNL     1       1.960  -7.812   9.253  0.00  0.00    +0.035 A 
ATOM     32  C   UNL     1       2.751  -8.503  10.217  0.00  0.00    +0.024 A 
ATOM     33  C   UNL     1       3.532  -7.788  11.196  0.00  0.00    +0.007 A 
ATOM     34  C   UNL     1       3.532  -6.354  11.226  0.00  0.00    -0.029 A 
ATOM     35  C   UNL     1       4.393  -5.640  12.294  0.00  0.00    +0.045 C 
ENDROOT
BRANCH  10   9
ATOM      4  C   UNL     1       0.615  -1.454  11.291  0.00  0.00    +0.077 A 
ATOM      5  C   UNL     1      -0.505  -2.104  11.908  0.00  0.00    +0.048 A 
ATOM      6  C   UNL     1      -0.506  -3.517  11.927  0.00  0.00    +0.116 A 
ATOM      7  N   UNL     1       0.541  -4.217  11.368  0.00  0.00    -0.223 NA
ATOM      8  C   UNL     1       1.606  -3.559  10.780  0.00  0.00    +0.220 A 
ATOM      9  N   UNL     1       2.673  -4.243  10.219  0.00  0.00    -0.283 N 
ATOM     36  H   UNL     1       3.436  -3.721   9.788  0.00  0.00    +0.155 HD
ATOM     37  N   UNL     1       1.629  -2.211  10.748  0.00  0.00    -0.214 NA
BRANCH   4   3
ATOM      1  C   UNL     1       0.064   2.298  10.333  0.00  0.00    +0.020 A 
ATOM      2  C   UNL     1      -0.121   0.866  10.390  0.00  0.00    +0.013 A 
ATOM      3  C   UNL     1       0.763   0.033  11.196  0.00  0.00    +0.019 A 
ATOM     38  C   UNL     1       1.832   0.685  11.938  0.00  0.00    +0.120 A 
ATOM     39  N   UNL     1       1.986   2.065  11.862  0.00  0.00    -0.263 NA
ATOM     40  C   UNL     1       1.143   2.877  11.088  0.00  0.00    +0.111 A 
ENDBRANCH   4   3
ENDBRANCH  10   9
BRANCH  12  13
ATOM     13  N   UNL     1       1.214  -8.596   8.300  0.00  0.00    -0.281 N 
ATOM     14  C   UNL     1       0.043  -9.306   8.512  0.00  0.00    +0.248 C 
ATOM     30  O   UNL     1      -0.426  -9.551   9.614  0.00  0.00    -0.270 OA
ATOM     31  H   UNL     1       1.594  -8.631   7.354  0.00  0.00    +0.155 HD
BRANCH  14  15
ATOM     15  C   UNL     1      -0.706  -9.833   7.331  0.00  0.00    +0.037 A 
ATOM     16  C   UNL     1      -0.143  -9.760   5.980  0.00  0.00    +0.013 A 
ATOM     17  C   UNL     1      -0.894 -10.261   4.856  0.00  0.00    +0.005 A 
ATOM     18  C   UNL     1      -2.217 -10.840   5.079  0.00  0.00    -0.033 A 
ATOM     28  C   UNL     1      -2.749 -10.904   6.430  0.00  0.00    +0.005 A 
ATOM     29  C   UNL     1      -2.016 -10.413   7.534  0.00  0.00    +0.013 A 
BRANCH  18  19
ATOM     19  C   UNL     1      -3.097 -11.379   3.936  0.00  0.00    +0.119 C 
BRANCH  19  20
ATOM     20  N   UNL     1      -4.187 -10.489   3.435  0.00  0.00    -0.302 NA
ATOM     21  C   UNL     1      -3.875  -9.009   3.673  0.00  0.00    +0.066 C 
ATOM     22  C   UNL     1      -5.015  -8.092   3.122  0.00  0.00    -0.064 C 
ATOM     23  N   UNL     1      -6.340  -8.478   3.781  0.00  0.00    +0.379 N 
ATOM     24  C   UNL     1      -7.404  -7.580   3.309  0.00  0.00    -0.096 C 
ATOM     25  H   UNL     1      -6.229  -8.324   4.879  0.00  0.00    -0.082 HD
ATOM     26  C   UNL     1      -6.657  -9.950   3.552  0.00  0.00    -0.064 C 
ATOM     27  C   UNL     1      -5.504 -10.851   4.076  0.00  0.00    +0.066 C 
ENDBRANCH  19  20
ENDBRANCH  18  19
ENDBRANCH  14  15
ENDBRANCH  12  13
TORSDOF 6
ENDMDL
MODEL 5
REMARK VINA RESULT:      -7.4      9.011     12.678
REMARK  Name = C:\Users\Docking\Desktop\test protocol\1iep_ligandH.pdb
REMARK  8 active torsions:
REMARK  status: ('A' for Active; 'I' for Inactive)
REMARK    1  A    between atoms: _5  and  _11
REMARK    2  A    between atoms: _19  and  _21
REMARK    3  A    between atoms: _22  and  _66
REMARK    4  A    between atoms: _27  and  _30
REMARK    5  A    between atoms: _32  and  _33
REMARK    6  A    between atoms: _38  and  _43
REMARK    7  A    between atoms: _43  and  _46
REMARK    8  A    between atoms: _53  and  _55
REMARK                            x       y       z     vdW  Elec       q    Type
REMARK                         _______ _______ _______ _____ _____    ______ ____
ROOT
ATOM     10  C   UNL     1       4.794  -0.711  22.545  0.00  0.00    +0.038 A 
ATOM     11  C   UNL     1       4.423  -0.614  21.180  0.00  0.00    +0.047 A 
ATOM     12  C   UNL     1       4.968  -1.526  20.185  0.00  0.00    +0.035 A 
ATOM     32  C   UNL     1       5.886  -2.526  20.618  0.00  0.00    +0.024 A 
ATOM     33  C   UNL     1       6.276  -2.638  22.001  0.00  0.00    +0.007 A 
ATOM     34  C   UNL     1       5.744  -1.740  22.986  0.00  0.00    -0.029 A 
ATOM     35  C   UNL     1       6.201  -1.902  24.454  0.00  0.00    +0.045 C 
ENDROOT
BRANCH  10   9
ATOM      4  C   UNL     1       4.909   3.379  25.055  0.00  0.00    +0.077 A 
ATOM      5  C   UNL     1       6.193   3.737  24.524  0.00  0.00    +0.048 A 
ATOM      6  C   UNL     1       6.794   2.838  23.614  0.00  0.00    +0.116 A 
ATOM      7  N   UNL     1       6.148   1.671  23.267  0.00  0.00    -0.223 NA
ATOM      8  C   UNL     1       4.911   1.355  23.798  0.00  0.00    +0.220 A 
ATOM      9  N   UNL     1       4.241   0.191  23.457  0.00  0.00    -0.283 N 
ATOM     36  H   UNL     1       3.333  -0.010  23.876  0.00  0.00    +0.155 HD
ATOM     37  N   UNL     1       4.318   2.196  24.670  0.00  0.00    -0.214 NA
BRANCH   4   3
ATOM      1  C   UNL     1       3.950   5.559  28.158  0.00  0.00    +0.020 A 
ATOM      2  C   UNL     1       4.730   4.744  27.255  0.00  0.00    +0.013 A 
ATOM      3  C   UNL     1       4.146   4.227  26.024  0.00  0.00    +0.019 A 
ATOM     38  C   UNL     1       2.759   4.556  25.733  0.00  0.00    +0.120 A 
ATOM     39  N   UNL     1       2.031   5.342  26.622  0.00  0.00    -0.263 NA
ATOM     40  C   UNL     1       2.582   5.843  27.810  0.00  0.00    +0.111 A 
ENDBRANCH   4   3
ENDBRANCH  10   9
BRANCH  12  13
ATOM     13  N   UNL     1       4.634  -1.471  18.784  0.00  0.00    -0.281 N 
ATOM     14  C   UNL     1       5.494  -1.540  17.700  0.00  0.00    +0.248 C 
ATOM     30  O   UNL     1       6.710  -1.445  17.776  0.00  0.00    -0.270 OA
ATOM     31  H   UNL     1       3.643  -1.369  18.564  0.00  0.00    +0.155 HD
BRANCH  14  15
ATOM     15  C   UNL     1       4.919  -1.728  16.333  0.00  0.00    +0.037 A 
ATOM     16  C   UNL     1       3.872  -2.720  16.079  0.00  0.00    +0.013 A 
ATOM     17  C   UNL     1       3.347  -2.893  14.747  0.00  0.00    +0.005 A 
ATOM     18  C   UNL     1       3.869  -2.069  13.660  0.00  0.00    -0.033 A 
ATOM     28  C   UNL     1       4.905  -1.089  13.941  0.00  0.00    +0.005 A 
ATOM     29  C   UNL     1       5.422  -0.918  15.244  0.00  0.00    +0.013 A 
BRANCH  18  19
ATOM     19  C   UNL     1       3.383  -2.200  12.204  0.00  0.00    +0.119 C 
BRANCH  19  20
ATOM     20  N   UNL     1       2.433  -3.311  11.898  0.00  0.00    -0.302 NA
ATOM     21  C   UNL     1       3.156  -4.560  11.386  0.00  0.00    +0.066 C 
ATOM     22  C   UNL     1       2.149  -5.720  11.092  0.00  0.00    -0.064 C 
ATOM     23  N   UNL     1       1.108  -5.243  10.078  0.00  0.00    +0.379 N 
ATOM     24  C   UNL     1       0.195  -6.349   9.755  0.00  0.00    -0.096 C 
ATOM     25  H   UNL     1       1.649  -4.967   9.143  0.00  0.00    -0.082 HD
ATOM     26  C   UNL     1       0.387  -3.999  10.577  0.00  0.00    -0.064 C 
ATOM     27  C   UNL     1       1.398  -2.863  10.895  0.00  0.00    +0.066 C 
ENDBRANCH  19  20
ENDBRANCH  18  19
ENDBRANCH  14  15
ENDBRANCH  12  13
TORSDOF 6
ENDMDL
