MODEL 1
REMARK VINA RESULT:      -9.0      0.000      0.000
REMARK  Name = C:\Users\Docking\Desktop\test protocol\1iep_ligandH.pdb
REMARK  8 active torsions:
REMARK  status: ('A' for Active; 'I' for Inactive)
REMARK    1  A    between atoms: _5  and  _11
REMARK    2  A    between atoms: _19  and  _21
REMARK    3  A    between atoms: _22  and  _66
REMARK    4  A    between atoms: _27  and  _30
REMARK    5  A    between atoms: _32  and  _33
REMARK    6  A    between atoms: _38  and  _43
REMARK    7  A    between atoms: _43  and  _46
REMARK    8  A    between atoms: _53  and  _55
REMARK                            x       y       z     vdW  Elec       q    Type
REMARK                         _______ _______ _______ _____ _____    ______ ____
ROOT
ATOM     10  C   UNL     1     -16.652  34.739  27.898  0.00  0.00    +0.038 A 
ATOM     11  C   UNL     1     -16.364  34.126  26.652  0.00  0.00    +0.047 A 
ATOM     12  C   UNL     1     -17.375  34.030  25.610  0.00  0.00    +0.035 A 
ATOM     32  C   UNL     1     -18.667  34.571  25.871  0.00  0.00    +0.024 A 
ATOM     33  C   UNL     1     -18.977  35.196  27.132  0.00  0.00    +0.007 A 
ATOM     34  C   UNL     1     -17.985  35.292  28.165  0.00  0.00    -0.029 A 
ATOM     35  C   UNL     1     -18.375  35.967  29.501  0.00  0.00    +0.045 C 
ENDROOT
BRANCH  10   9
ATOM      4  C   UNL     1     -13.211  32.721  30.567  0.00  0.00    +0.077 A 
ATOM      5  C   UNL     1     -13.460  31.422  30.013  0.00  0.00    +0.048 A 
ATOM      6  C   UNL     1     -14.487  31.314  29.048  0.00  0.00    +0.116 A 
ATOM      7  N   UNL     1     -15.205  32.430  28.674  0.00  0.00    -0.223 NA
ATOM      8  C   UNL     1     -14.940  33.668  29.230  0.00  0.00    +0.220 A 
ATOM      9  N   UNL     1     -15.644  34.804  28.863  0.00  0.00    -0.283 N 
ATOM     36  H   UNL     1     -15.423  35.698  29.302  0.00  0.00    +0.155 HD
ATOM     37  N   UNL     1     -13.965  33.796  30.154  0.00  0.00    -0.214 NA
BRANCH   4   3
ATOM      1  C   UNL     1     -10.187  34.299  32.484  0.00  0.00    +0.020 A 
ATOM      2  C   UNL     1     -11.185  34.075  31.463  0.00  0.00    +0.013 A 
ATOM      3  C   UNL     1     -12.156  32.996  31.594  0.00  0.00    +0.019 A 
ATOM     38  C   UNL     1     -12.091  32.156  32.780  0.00  0.00    +0.120 A 
ATOM     39  N   UNL     1     -11.118  32.394  33.746  0.00  0.00    -0.263 NA
ATOM     40  C   UNL     1     -10.177  33.428  33.630  0.00  0.00    +0.111 A 
ENDBRANCH   4   3
ENDBRANCH  10   9
BRANCH  12  13
ATOM     13  N   UNL     1     -17.143  33.412  24.328  0.00  0.00    -0.281 N 
ATOM     14  C   UNL     1     -17.279  32.076  23.990  0.00  0.00    +0.248 C 
ATOM     30  O   UNL     1     -17.415  31.169  24.798  0.00  0.00    -0.270 OA
ATOM     31  H   UNL     1     -16.843  34.036  23.579  0.00  0.00    +0.155 HD
BRANCH  14  15
ATOM     15  C   UNL     1     -17.244  31.689  22.547  0.00  0.00    +0.037 A 
ATOM     16  C   UNL     1     -16.250  32.256  21.632  0.00  0.00    +0.013 A 
ATOM     17  C   UNL     1     -16.249  31.879  20.241  0.00  0.00    +0.005 A 
ATOM     18  C   UNL     1     -17.246  30.927  19.756  0.00  0.00    -0.033 A 
ATOM     28  C   UNL     1     -18.217  30.376  20.686  0.00  0.00    +0.005 A 
ATOM     29  C   UNL     1     -18.222  30.744  22.050  0.00  0.00    +0.013 A 
BRANCH  18  19
ATOM     19  C   UNL     1     -17.333  30.484  18.283  0.00  0.00    +0.119 C 
BRANCH  19  20
ATOM     20  N   UNL     1     -16.392  29.414  17.835  0.00  0.00    -0.302 NA
ATOM     21  C   UNL     1     -16.148  28.368  18.927  0.00  0.00    +0.066 C 
ATOM     22  C   UNL     1     -15.180  27.245  18.433  0.00  0.00    -0.064 C 
ATOM     23  N   UNL     1     -13.861  27.874  17.982  0.00  0.00    +0.379 N 
ATOM     24  C   UNL     1     -12.927  26.815  17.571  0.00  0.00    -0.096 C 
ATOM     25  H   UNL     1     -13.417  28.395  18.861  0.00  0.00    -0.082 HD
ATOM     26  C   UNL     1     -14.094  28.917  16.898  0.00  0.00    -0.064 C 
ATOM     27  C   UNL     1     -15.081  30.013  17.389  0.00  0.00    +0.066 C 
ENDBRANCH  19  20
ENDBRANCH  18  19
ENDBRANCH  14  15
ENDBRANCH  12  13
TORSDOF 6
ENDMDL
MODEL 2
REMARK VINA RESULT:      -8.8      8.337     13.224
REMARK  Name = C:\Users\Docking\Desktop\test protocol\1iep_ligandH.pdb
REMARK  8 active torsions:
REMARK  status: ('A' for Active; 'I' for Inactive)
REMARK    1  A    between atoms: _5  and  _11
REMARK    2  A    between atoms: _19  and  _21
REMARK    3  A    between atoms: _22  and  _66
REMARK    4  A    between atoms: _27  and  _30
REMARK    5  A    between atoms: _32  and  _33
REMARK    6  A    between atoms: _38  and  _43
REMARK    7  A    between atoms: _43  and  _46
REMARK    8  A    between atoms: _53  and  _55
REMARK                            x       y       z     vdW  Elec       q    Type
REMARK                         _______ _______ _______ _____ _____    ______ ____
ROOT
ATOM     10  C   UNL     1     -11.846  23.284  25.599  0.00  0.00    +0.038 A 
ATOM     11  C   UNL     1     -11.848  24.489  26.345  0.00  0.00    +0.047 A 
ATOM     12  C   UNL     1     -12.567  25.664  25.876  0.00  0.00    +0.035 A 
ATOM     32  C   UNL     1     -13.275  25.574  24.642  0.00  0.00    +0.024 A 
ATOM     33  C   UNL     1     -13.281  24.356  23.869  0.00  0.00    +0.007 A 
ATOM     34  C   UNL     1     -12.572  23.196  24.327  0.00  0.00    -0.029 A 
ATOM     35  C   UNL     1     -12.609  21.919  23.454  0.00  0.00    +0.045 C 
ENDROOT
BRANCH  10   9
ATOM      4  C   UNL     1      -7.966  20.462  25.749  0.00  0.00    +0.077 A 
ATOM      5  C   UNL     1      -7.301  21.221  24.730  0.00  0.00    +0.048 A 
ATOM      6  C   UNL     1      -7.995  22.327  24.188  0.00  0.00    +0.116 A 
ATOM      7  N   UNL     1      -9.258  22.640  24.639  0.00  0.00    -0.223 NA
ATOM      8  C   UNL     1      -9.872  21.885  25.622  0.00  0.00    +0.220 A 
ATOM      9  N   UNL     1     -11.139  22.187  26.097  0.00  0.00    -0.283 N 
ATOM     36  H   UNL     1     -11.560  21.601  26.818  0.00  0.00    +0.155 HD
ATOM     37  N   UNL     1      -9.231  20.824  26.155  0.00  0.00    -0.214 NA
BRANCH   4   3
ATOM      1  C   UNL     1      -7.415  17.376  28.089  0.00  0.00    +0.020 A 
ATOM      2  C   UNL     1      -8.042  18.522  27.473  0.00  0.00    +0.013 A 
ATOM      3  C   UNL     1      -7.362  19.268  26.422  0.00  0.00    +0.019 A 
ATOM     38  C   UNL     1      -6.037  18.825  26.014  0.00  0.00    +0.120 A 
ATOM     39  N   UNL     1      -5.457  17.719  26.627  0.00  0.00    -0.263 NA
ATOM     40  C   UNL     1      -6.101  16.994  27.641  0.00  0.00    +0.111 A 
ENDBRANCH   4   3
ENDBRANCH  10   9
BRANCH  12  13
ATOM     13  N   UNL     1     -12.599  26.918  26.587  0.00  0.00    -0.281 N 
ATOM     14  C   UNL     1     -13.702  27.573  27.109  0.00  0.00    +0.248 C 
ATOM     30  O   UNL     1     -14.862  27.283  26.855  0.00  0.00    -0.270 OA
ATOM     31  H   UNL     1     -11.699  27.378  26.722  0.00  0.00    +0.155 HD
BRANCH  14  15
ATOM     15  C   UNL     1     -13.486  28.726  28.035  0.00  0.00    +0.037 A 
ATOM     16  C   UNL     1     -13.786  28.619  29.465  0.00  0.00    +0.013 A 
ATOM     17  C   UNL     1     -13.584  29.751  30.333  0.00  0.00    +0.005 A 
ATOM     18  C   UNL     1     -13.079  31.002  29.773  0.00  0.00    -0.033 A 
ATOM     28  C   UNL     1     -12.785  31.079  28.351  0.00  0.00    +0.005 A 
ATOM     29  C   UNL     1     -12.982  29.971  27.497  0.00  0.00    +0.013 A 
BRANCH  18  19
ATOM     19  C   UNL     1     -12.853  32.268  30.621  0.00  0.00    +0.119 C 
BRANCH  19  20
ATOM     20  N   UNL     1     -14.067  32.993  31.102  0.00  0.00    -0.302 NA
ATOM     21  C   UNL     1     -14.843  33.642  29.952  0.00  0.00    +0.066 C 
ATOM     22  C   UNL     1     -16.121  34.377  30.471  0.00  0.00    -0.064 C 
ATOM     23  N   UNL     1     -15.717  35.424  31.510  0.00  0.00    +0.379 N 
ATOM     24  C   UNL     1     -16.910  36.157  31.958  0.00  0.00    -0.096 C 
ATOM     25  H   UNL     1     -15.040  36.154  31.009  0.00  0.00    -0.082 HD
ATOM     26  C   UNL     1     -14.943  34.788  32.656  0.00  0.00    -0.064 C 
ATOM     27  C   UNL     1     -13.690  34.035  32.126  0.00  0.00    +0.066 C 
ENDBRANCH  19  20
ENDBRANCH  18  19
ENDBRANCH  14  15
ENDBRANCH  12  13
TORSDOF 6
ENDMDL
MODEL 3
REMARK VINA RESULT:      -8.8      7.933     13.333
REMARK  Name = C:\Users\Docking\Desktop\test protocol\1iep_ligandH.pdb
REMARK  8 active torsions:
REMARK  status: ('A' for Active; 'I' for Inactive)
REMARK    1  A    between atoms: _5  and  _11
REMARK    2  A    between atoms: _19  and  _21
REMARK    3  A    between atoms: _22  and  _66
REMARK    4  A    between atoms: _27  and  _30
REMARK    5  A    between atoms: _32  and  _33
REMARK    6  A    between atoms: _38  and  _43
REMARK    7  A    between atoms: _43  and  _46
REMARK    8  A    between atoms: _53  and  _55
REMARK                            x       y       z     vdW  Elec       q    Type
REMARK                         _______ _______ _______ _____ _____    ______ ____
ROOT
ATOM     10  C   UNL     1     -12.147  23.602  25.706  0.00  0.00    +0.038 A 
ATOM     11  C   UNL     1     -12.064  24.717  26.579  0.00  0.00    +0.047 A 
ATOM     12  C   UNL     1     -12.775  25.953  26.290  0.00  0.00    +0.035 A 
ATOM     32  C   UNL     1     -13.563  26.018  25.104  0.00  0.00    +0.024 A 
ATOM     33  C   UNL     1     -13.657  24.894  24.205  0.00  0.00    +0.007 A 
ATOM     34  C   UNL     1     -12.956  23.673  24.484  0.00  0.00    -0.029 A 
ATOM     35  C   UNL     1     -13.088  22.503  23.482  0.00  0.00    +0.045 C 
ENDROOT
BRANCH  10   9
ATOM      4  C   UNL     1      -8.297  20.753  25.387  0.00  0.00    +0.077 A 
ATOM      5  C   UNL     1      -7.642  21.642  24.470  0.00  0.00    +0.048 A 
ATOM      6  C   UNL     1      -8.333  22.818  24.101  0.00  0.00    +0.116 A 
ATOM      7  N   UNL     1      -9.585  23.076  24.616  0.00  0.00    -0.223 NA
ATOM      8  C   UNL     1     -10.189  22.197  25.496  0.00  0.00    +0.220 A 
ATOM      9  N   UNL     1     -11.444  22.441  26.033  0.00  0.00    -0.283 N 
ATOM     36  H   UNL     1     -11.858  21.764  26.674  0.00  0.00    +0.155 HD
ATOM     37  N   UNL     1      -9.550  21.066  25.864  0.00  0.00    -0.214 NA
BRANCH   4   3
ATOM      1  C   UNL     1      -6.711  18.008  27.678  0.00  0.00    +0.020 A 
ATOM      2  C   UNL     1      -7.288  19.265  27.258  0.00  0.00    +0.013 A 
ATOM      3  C   UNL     1      -7.695  19.472  25.874  0.00  0.00    +0.019 A 
ATOM     38  C   UNL     1      -7.503  18.380  24.933  0.00  0.00    +0.120 A 
ATOM     39  N   UNL     1      -6.944  17.181  25.365  0.00  0.00    -0.263 NA
ATOM     40  C   UNL     1      -6.547  16.971  26.694  0.00  0.00    +0.111 A 
ENDBRANCH   4   3
ENDBRANCH  10   9
BRANCH  12  13
ATOM     13  N   UNL     1     -12.723  27.121  27.134  0.00  0.00    -0.281 N 
ATOM     14  C   UNL     1     -13.618  28.177  27.184  0.00  0.00    +0.248 C 
ATOM     30  O   UNL     1     -14.491  28.382  26.354  0.00  0.00    -0.270 OA
ATOM     31  H   UNL     1     -11.929  27.176  27.773  0.00  0.00    +0.155 HD
BRANCH  14  15
ATOM     15  C   UNL     1     -13.520  29.154  28.311  0.00  0.00    +0.037 A 
ATOM     16  C   UNL     1     -13.659  28.723  29.704  0.00  0.00    +0.013 A 
ATOM     17  C   UNL     1     -13.577  29.689  30.771  0.00  0.00    +0.005 A 
ATOM     18  C   UNL     1     -13.354  31.096  30.448  0.00  0.00    -0.033 A 
ATOM     28  C   UNL     1     -13.215  31.495  29.057  0.00  0.00    +0.005 A 
ATOM     29  C   UNL     1     -13.295  30.552  28.009  0.00  0.00    +0.013 A 
BRANCH  18  19
ATOM     19  C   UNL     1     -13.275  32.199  31.521  0.00  0.00    +0.119 C 
BRANCH  19  20
ATOM     20  N   UNL     1     -12.015  32.999  31.587  0.00  0.00    -0.302 NA
ATOM     21  C   UNL     1     -11.391  32.973  32.985  0.00  0.00    +0.066 C 
ATOM     22  C   UNL     1     -10.063  33.797  33.030  0.00  0.00    -0.064 C 
ATOM     23  N   UNL     1     -10.342  35.234  32.588  0.00  0.00    +0.379 N 
ATOM     24  C   UNL     1      -9.107  36.026  32.685  0.00  0.00    -0.096 C 
ATOM     25  H   UNL     1     -11.080  35.670  33.301  0.00  0.00    -0.082 HD
ATOM     26  C   UNL     1     -10.965  35.269  31.200  0.00  0.00    -0.064 C 
ATOM     27  C   UNL     1     -12.269  34.423  31.158  0.00  0.00    +0.066 C 
ENDBRANCH  19  20
ENDBRANCH  18  19
ENDBRANCH  14  15
ENDBRANCH  12  13
TORSDOF 6
ENDMDL
MODEL 4
REMARK VINA RESULT:      -8.7      1.751      3.005
REMARK  Name = C:\Users\Docking\Desktop\test protocol\1iep_ligandH.pdb
REMARK  8 active torsions:
REMARK  status: ('A' for Active; 'I' for Inactive)
REMARK    1  A    between atoms: _5  and  _11
REMARK    2  A    between atoms: _19  and  _21
REMARK    3  A    between atoms: _22  and  _66
REMARK    4  A    between atoms: _27  and  _30
REMARK    5  A    between atoms: _32  and  _33
REMARK    6  A    between atoms: _38  and  _43
REMARK    7  A    between atoms: _43  and  _46
REMARK    8  A    between atoms: _53  and  _55
REMARK                            x       y       z     vdW  Elec       q    Type
REMARK                         _______ _______ _______ _____ _____    ______ ____
ROOT
ATOM     10  C   UNL     1     -16.562  34.709  28.000  0.00  0.00    +0.038 A 
ATOM     11  C   UNL     1     -16.302  34.090  26.751  0.00  0.00    +0.047 A 
ATOM     12  C   UNL     1     -17.349  33.942  25.752  0.00  0.00    +0.035 A 
ATOM     32  C   UNL     1     -18.650  34.438  26.059  0.00  0.00    +0.024 A 
ATOM     33  C   UNL     1     -18.932  35.069  27.324  0.00  0.00    +0.007 A 
ATOM     34  C   UNL     1     -17.904  35.215  28.314  0.00  0.00    -0.029 A 
ATOM     35  C   UNL     1     -18.264  35.894  29.656  0.00  0.00    +0.045 C 
ENDROOT
BRANCH  10   9
ATOM      4  C   UNL     1     -13.104  32.817  30.739  0.00  0.00    +0.077 A 
ATOM      5  C   UNL     1     -13.418  31.482  30.318  0.00  0.00    +0.048 A 
ATOM      6  C   UNL     1     -14.482  31.325  29.401  0.00  0.00    +0.116 A 
ATOM      7  N   UNL     1     -15.172  32.428  28.945  0.00  0.00    -0.223 NA
ATOM      8  C   UNL     1     -14.844  33.701  29.373  0.00  0.00    +0.220 A 
ATOM      9  N   UNL     1     -15.519  34.825  28.923  0.00  0.00    -0.283 N 
ATOM     36  H   UNL     1     -15.252  35.746  29.268  0.00  0.00    +0.155 HD
ATOM     37  N   UNL     1     -13.833  33.877  30.250  0.00  0.00    -0.214 NA
BRANCH   4   3
ATOM      1  C   UNL     1     -10.720  32.773  33.840  0.00  0.00    +0.020 A 
ATOM      2  C   UNL     1     -11.796  32.416  32.945  0.00  0.00    +0.013 A 
ATOM      3  C   UNL     1     -12.005  33.146  31.701  0.00  0.00    +0.019 A 
ATOM     38  C   UNL     1     -11.099  34.241  31.390  0.00  0.00    +0.120 A 
ATOM     39  N   UNL     1     -10.072  34.564  32.271  0.00  0.00    -0.263 NA
ATOM     40  C   UNL     1      -9.863  33.869  33.472  0.00  0.00    +0.111 A 
ENDBRANCH   4   3
ENDBRANCH  10   9
BRANCH  12  13
ATOM     13  N   UNL     1     -17.146  33.315  24.470  0.00  0.00    -0.281 N 
ATOM     14  C   UNL     1     -17.282  31.975  24.146  0.00  0.00    +0.248 C 
ATOM     30  O   UNL     1     -17.391  31.074  24.964  0.00  0.00    -0.270 OA
ATOM     31  H   UNL     1     -16.870  33.934  23.708  0.00  0.00    +0.155 HD
BRANCH  14  15
ATOM     15  C   UNL     1     -17.281  31.576  22.705  0.00  0.00    +0.037 A 
ATOM     16  C   UNL     1     -18.198  30.551  22.200  0.00  0.00    +0.013 A 
ATOM     17  C   UNL     1     -18.164  30.174  20.809  0.00  0.00    +0.005 A 
ATOM     18  C   UNL     1     -17.211  30.823  19.913  0.00  0.00    -0.033 A 
ATOM     28  C   UNL     1     -16.316  31.841  20.440  0.00  0.00    +0.005 A 
ATOM     29  C   UNL     1     -16.345  32.213  21.803  0.00  0.00    +0.013 A 
BRANCH  18  19
ATOM     19  C   UNL     1     -17.091  30.468  18.419  0.00  0.00    +0.119 C 
BRANCH  19  20
ATOM     20  N   UNL     1     -17.476  31.521  17.433  0.00  0.00    -0.302 NA
ATOM     21  C   UNL     1     -18.823  32.163  17.775  0.00  0.00    +0.066 C 
ATOM     22  C   UNL     1     -19.200  33.278  16.746  0.00  0.00    -0.064 C 
ATOM     23  N   UNL     1     -19.228  32.681  15.338  0.00  0.00    +0.379 N 
ATOM     24  C   UNL     1     -19.638  33.713  14.375  0.00  0.00    -0.096 C 
ATOM     25  H   UNL     1     -20.002  31.879  15.326  0.00  0.00    -0.082 HD
ATOM     26  C   UNL     1     -17.893  32.037  14.991  0.00  0.00    -0.064 C 
ATOM     27  C   UNL     1     -17.513  30.952  16.036  0.00  0.00    +0.066 C 
ENDBRANCH  19  20
ENDBRANCH  18  19
ENDBRANCH  14  15
ENDBRANCH  12  13
TORSDOF 6
ENDMDL
MODEL 5
REMARK VINA RESULT:      -8.7      3.998      5.612
REMARK  Name = C:\Users\Docking\Desktop\test protocol\1iep_ligandH.pdb
REMARK  8 active torsions:
REMARK  status: ('A' for Active; 'I' for Inactive)
REMARK    1  A    between atoms: _5  and  _11
REMARK    2  A    between atoms: _19  and  _21
REMARK    3  A    between atoms: _22  and  _66
REMARK    4  A    between atoms: _27  and  _30
REMARK    5  A    between atoms: _32  and  _33
REMARK    6  A    between atoms: _38  and  _43
REMARK    7  A    between atoms: _43  and  _46
REMARK    8  A    between atoms: _53  and  _55
REMARK                            x       y       z     vdW  Elec       q    Type
REMARK                         _______ _______ _______ _____ _____    ______ ____
ROOT
ATOM     10  C   UNL     1     -13.964  31.431  28.934  0.00  0.00    +0.038 A 
ATOM     11  C   UNL     1     -14.502  32.002  27.752  0.00  0.00    +0.047 A 
ATOM     12  C   UNL     1     -15.616  31.379  27.055  0.00  0.00    +0.035 A 
ATOM     32  C   UNL     1     -16.160  30.176  27.591  0.00  0.00    +0.024 A 
ATOM     33  C   UNL     1     -15.625  29.581  28.791  0.00  0.00    +0.007 A 
ATOM     34  C   UNL     1     -14.525  30.190  29.482  0.00  0.00    -0.029 A 
ATOM     35  C   UNL     1     -13.987  29.505  30.760  0.00  0.00    +0.045 C 
ENDROOT
BRANCH  10   9
ATOM      4  C   UNL     1     -12.168  34.438  32.216  0.00  0.00    +0.077 A 
ATOM      5  C   UNL     1     -13.473  34.782  32.701  0.00  0.00    +0.048 A 
ATOM      6  C   UNL     1     -14.581  34.169  32.075  0.00  0.00    +0.116 A 
ATOM      7  N   UNL     1     -14.386  33.279  31.041  0.00  0.00    -0.223 NA
ATOM      8  C   UNL     1     -13.114  32.970  30.596  0.00  0.00    +0.220 A 
ATOM      9  N   UNL     1     -12.894  32.072  29.563  0.00  0.00    -0.283 N 
ATOM     36  H   UNL     1     -11.940  31.877  29.259  0.00  0.00    +0.155 HD
ATOM     37  N   UNL     1     -12.039  33.544  31.177  0.00  0.00    -0.214 NA
BRANCH   4   3
ATOM      1  C   UNL     1      -8.697  36.212  32.552  0.00  0.00    +0.020 A 
ATOM      2  C   UNL     1      -9.906  35.687  31.960  0.00  0.00    +0.013 A 
ATOM      3  C   UNL     1     -10.899  35.000  32.778  0.00  0.00    +0.019 A 
ATOM     38  C   UNL     1     -10.636  34.861  34.202  0.00  0.00    +0.120 A 
ATOM     39  N   UNL     1      -9.462  35.376  34.744  0.00  0.00    -0.263 NA
ATOM     40  C   UNL     1      -8.499  36.037  33.967  0.00  0.00    +0.111 A 
ENDBRANCH   4   3
ENDBRANCH  10   9
BRANCH  12  13
ATOM     13  N   UNL     1     -16.198  31.908  25.847  0.00  0.00    -0.281 N 
ATOM     14  C   UNL     1     -17.425  32.534  25.696  0.00  0.00    +0.248 C 
ATOM     30  O   UNL     1     -18.305  32.544  26.544  0.00  0.00    -0.270 OA
ATOM     31  H   UNL     1     -15.638  31.809  25.000  0.00  0.00    +0.155 HD
BRANCH  14  15
ATOM     15  C   UNL     1     -17.722  33.240  24.413  0.00  0.00    +0.037 A 
ATOM     16  C   UNL     1     -17.323  32.672  23.123  0.00  0.00    +0.013 A 
ATOM     17  C   UNL     1     -17.607  33.381  21.900  0.00  0.00    +0.005 A 
ATOM     18  C   UNL     1     -18.297  34.667  21.963  0.00  0.00    -0.033 A 
ATOM     28  C   UNL     1     -18.686  35.206  23.256  0.00  0.00    +0.005 A 
ATOM     29  C   UNL     1     -18.409  34.514  24.456  0.00  0.00    +0.013 A 
BRANCH  18  19
ATOM     19  C   UNL     1     -18.622  35.504  20.711  0.00  0.00    +0.119 C 
BRANCH  19  20
ATOM     20  N   UNL     1     -17.523  36.340  20.143  0.00  0.00    -0.302 NA
ATOM     21  C   UNL     1     -17.633  37.805  20.575  0.00  0.00    +0.066 C 
ATOM     22  C   UNL     1     -16.463  38.660  19.990  0.00  0.00    -0.064 C 
ATOM     23  N   UNL     1     -16.463  38.545  18.465  0.00  0.00    +0.379 N 
ATOM     24  C   UNL     1     -15.400  39.394  17.908  0.00  0.00    -0.096 C 
ATOM     25  H   UNL     1     -17.438  38.938  18.096  0.00  0.00    -0.082 HD
ATOM     26  C   UNL     1     -16.356  37.091  18.026  0.00  0.00    -0.064 C 
ATOM     27  C   UNL     1     -17.507  36.243  18.637  0.00  0.00    +0.066 C 
ENDBRANCH  19  20
ENDBRANCH  18  19
ENDBRANCH  14  15
ENDBRANCH  12  13
TORSDOF 6
ENDMDL
