MODEL 1
REMARK VINA RESULT:      -8.5      0.000      0.000
REMARK  Name = C:\Users\Docking\Desktop\test protocol\1iep_ligandH.pdb
REMARK  8 active torsions:
REMARK  status: ('A' for Active; 'I' for Inactive)
REMARK    1  A    between atoms: _5  and  _11
REMARK    2  A    between atoms: _19  and  _21
REMARK    3  A    between atoms: _22  and  _66
REMARK    4  A    between atoms: _27  and  _30
REMARK    5  A    between atoms: _32  and  _33
REMARK    6  A    between atoms: _38  and  _43
REMARK    7  A    between atoms: _43  and  _46
REMARK    8  A    between atoms: _53  and  _55
REMARK                            x       y       z     vdW  Elec       q    Type
REMARK                         _______ _______ _______ _____ _____    ______ ____
ROOT
ATOM     10  C   UNL     1      20.197  25.517   4.423  0.00  0.00    +0.038 A 
ATOM     11  C   UNL     1      18.856  25.354   4.854  0.00  0.00    +0.047 A 
ATOM     12  C   UNL     1      18.244  24.036   4.931  0.00  0.00    +0.035 A 
ATOM     32  C   UNL     1      19.030  22.905   4.564  0.00  0.00    +0.024 A 
ATOM     33  C   UNL     1      20.394  23.052   4.122  0.00  0.00    +0.007 A 
ATOM     34  C   UNL     1      21.002  24.350   4.042  0.00  0.00    -0.029 A 
ATOM     35  C   UNL     1      22.466  24.449   3.555  0.00  0.00    +0.045 C 
ENDROOT
BRANCH  10   9
ATOM      4  C   UNL     1      21.335  29.530   2.048  0.00  0.00    +0.077 A 
ATOM      5  C   UNL     1      20.844  29.005   0.807  0.00  0.00    +0.048 A 
ATOM      6  C   UNL     1      20.313  27.696   0.820  0.00  0.00    +0.116 A 
ATOM      7  N   UNL     1      20.280  26.974   1.994  0.00  0.00    -0.223 NA
ATOM      8  C   UNL     1      20.763  27.510   3.174  0.00  0.00    +0.220 A 
ATOM      9  N   UNL     1      20.733  26.805   4.368  0.00  0.00    -0.283 N 
ATOM     36  H   UNL     1      21.106  27.233   5.215  0.00  0.00    +0.155 HD
ATOM     37  N   UNL     1      21.277  28.758   3.187  0.00  0.00    -0.214 NA
BRANCH   4   3
ATOM      1  C   UNL     1      22.254  33.068   3.441  0.00  0.00    +0.020 A 
ATOM      2  C   UNL     1      21.661  31.754   3.347  0.00  0.00    +0.013 A 
ATOM      3  C   UNL     1      21.922  30.899   2.196  0.00  0.00    +0.019 A 
ATOM     38  C   UNL     1      22.796  31.408   1.149  0.00  0.00    +0.120 A 
ATOM     39  N   UNL     1      23.351  32.678   1.266  0.00  0.00    -0.263 NA
ATOM     40  C   UNL     1      23.105  33.510   2.368  0.00  0.00    +0.111 A 
ENDBRANCH   4   3
ENDBRANCH  10   9
BRANCH  12  13
ATOM     13  N   UNL     1      16.885  23.810   5.354  0.00  0.00    -0.281 N 
ATOM     14  C   UNL     1      16.442  23.075   6.442  0.00  0.00    +0.248 C 
ATOM     30  O   UNL     1      17.144  22.320   7.097  0.00  0.00    -0.270 OA
ATOM     31  H   UNL     1      16.160  24.245   4.782  0.00  0.00    +0.155 HD
BRANCH  14  15
ATOM     15  C   UNL     1      15.009  23.185   6.852  0.00  0.00    +0.037 A 
ATOM     16  C   UNL     1      14.009  23.787   5.967  0.00  0.00    +0.013 A 
ATOM     17  C   UNL     1      12.636  23.895   6.394  0.00  0.00    +0.005 A 
ATOM     18  C   UNL     1      12.256  23.398   7.714  0.00  0.00    -0.033 A 
ATOM     28  C   UNL     1      13.267  22.801   8.570  0.00  0.00    +0.005 A 
ATOM     29  C   UNL     1      14.614  22.694   8.155  0.00  0.00    +0.013 A 
BRANCH  18  19
ATOM     19  C   UNL     1      10.819  23.492   8.261  0.00  0.00    +0.119 C 
BRANCH  19  20
ATOM     20  N   UNL     1      10.130  24.812   8.151  0.00  0.00    -0.302 NA
ATOM     21  C   UNL     1      10.854  25.905   8.943  0.00  0.00    +0.066 C 
ATOM     22  C   UNL     1      10.132  27.285   8.798  0.00  0.00    -0.064 C 
ATOM     23  N   UNL     1       8.681  27.149   9.263  0.00  0.00    +0.379 N 
ATOM     24  C   UNL     1       8.017  28.458   9.183  0.00  0.00    -0.096 C 
ATOM     25  H   UNL     1       8.697  26.843  10.335  0.00  0.00    -0.082 HD
ATOM     26  C   UNL     1       7.955  26.063   8.483  0.00  0.00    -0.064 C 
ATOM     27  C   UNL     1       8.697  24.703   8.609  0.00  0.00    +0.066 C 
ENDBRANCH  19  20
ENDBRANCH  18  19
ENDBRANCH  14  15
ENDBRANCH  12  13
TORSDOF 6
ENDMDL
MODEL 2
REMARK VINA RESULT:      -8.0      2.332     12.398
REMARK  Name = C:\Users\Docking\Desktop\test protocol\1iep_ligandH.pdb
REMARK  8 active torsions:
REMARK  status: ('A' for Active; 'I' for Inactive)
REMARK    1  A    between atoms: _5  and  _11
REMARK    2  A    between atoms: _19  and  _21
REMARK    3  A    between atoms: _22  and  _66
REMARK    4  A    between atoms: _27  and  _30
REMARK    5  A    between atoms: _32  and  _33
REMARK    6  A    between atoms: _38  and  _43
REMARK    7  A    between atoms: _43  and  _46
REMARK    8  A    between atoms: _53  and  _55
REMARK                            x       y       z     vdW  Elec       q    Type
REMARK                         _______ _______ _______ _____ _____    ______ ____
ROOT
ATOM     10  C   UNL     1      10.120  23.581   8.701  0.00  0.00    +0.038 A 
ATOM     11  C   UNL     1      11.346  23.675   7.995  0.00  0.00    +0.047 A 
ATOM     12  C   UNL     1      12.550  23.022   8.486  0.00  0.00    +0.035 A 
ATOM     32  C   UNL     1      12.467  22.279   9.700  0.00  0.00    +0.024 A 
ATOM     33  C   UNL     1      11.229  22.174  10.431  0.00  0.00    +0.007 A 
ATOM     34  C   UNL     1      10.040  22.819   9.953  0.00  0.00    -0.029 A 
ATOM     35  C   UNL     1       8.742  22.678  10.782  0.00  0.00    +0.045 C 
ENDROOT
BRANCH  10   9
ATOM      4  C   UNL     1       7.344  27.459   8.156  0.00  0.00    +0.077 A 
ATOM      5  C   UNL     1       8.192  28.257   8.996  0.00  0.00    +0.048 A 
ATOM      6  C   UNL     1       9.328  27.629   9.554  0.00  0.00    +0.116 A 
ATOM      7  N   UNL     1       9.588  26.303   9.286  0.00  0.00    -0.223 NA
ATOM      8  C   UNL     1       8.749  25.562   8.473  0.00  0.00    +0.220 A 
ATOM      9  N   UNL     1       8.996  24.228   8.184  0.00  0.00    -0.283 N 
ATOM     36  H   UNL     1       8.349  23.714   7.586  0.00  0.00    +0.155 HD
ATOM     37  N   UNL     1       7.657  26.137   7.929  0.00  0.00    -0.214 NA
BRANCH   4   3
ATOM      1  C   UNL     1       4.091  29.491   7.391  0.00  0.00    +0.020 A 
ATOM      2  C   UNL     1       5.274  29.023   8.075  0.00  0.00    +0.013 A 
ATOM      3  C   UNL     1       6.109  27.980   7.491  0.00  0.00    +0.019 A 
ATOM     38  C   UNL     1       5.715  27.428   6.204  0.00  0.00    +0.120 A 
ATOM     39  N   UNL     1       4.569  27.897   5.569  0.00  0.00    -0.263 NA
ATOM     40  C   UNL     1       3.758  28.899   6.122  0.00  0.00    +0.111 A 
ENDBRANCH   4   3
ENDBRANCH  10   9
BRANCH  12  13
ATOM     13  N   UNL     1      13.825  23.088   7.816  0.00  0.00    -0.281 N 
ATOM     14  C   UNL     1      14.095  22.863   6.476  0.00  0.00    +0.248 C 
ATOM     30  O   UNL     1      13.310  22.359   5.688  0.00  0.00    -0.270 OA
ATOM     31  H   UNL     1      14.625  23.331   8.400  0.00  0.00    +0.155 HD
BRANCH  14  15
ATOM     15  C   UNL     1      15.438  23.240   5.938  0.00  0.00    +0.037 A 
ATOM     16  C   UNL     1      15.590  23.773   4.582  0.00  0.00    +0.013 A 
ATOM     17  C   UNL     1      16.899  24.112   4.081  0.00  0.00    +0.005 A 
ATOM     18  C   UNL     1      18.066  23.920   4.938  0.00  0.00    -0.033 A 
ATOM     28  C   UNL     1      17.885  23.395   6.281  0.00  0.00    +0.005 A 
ATOM     29  C   UNL     1      16.604  23.060   6.775  0.00  0.00    +0.013 A 
BRANCH  18  19
ATOM     19  C   UNL     1      19.502  24.236   4.479  0.00  0.00    +0.119 C 
BRANCH  19  20
ATOM     20  N   UNL     1      19.683  25.378   3.535  0.00  0.00    -0.302 NA
ATOM     21  C   UNL     1      21.052  25.347   2.851  0.00  0.00    +0.066 C 
ATOM     22  C   UNL     1      21.216  26.537   1.850  0.00  0.00    -0.064 C 
ATOM     23  N   UNL     1      21.013  27.858   2.595  0.00  0.00    +0.379 N 
ATOM     24  C   UNL     1      21.223  28.980   1.669  0.00  0.00    -0.096 C 
ATOM     25  H   UNL     1      21.794  27.922   3.388  0.00  0.00    -0.082 HD
ATOM     26  C   UNL     1      19.654  27.896   3.281  0.00  0.00    -0.064 C 
ATOM     27  C   UNL     1      19.491  26.693   4.251  0.00  0.00    +0.066 C 
ENDBRANCH  19  20
ENDBRANCH  18  19
ENDBRANCH  14  15
ENDBRANCH  12  13
TORSDOF 6
ENDMDL
MODEL 3
REMARK VINA RESULT:      -8.0      3.979      7.715
REMARK  Name = C:\Users\Docking\Desktop\test protocol\1iep_ligandH.pdb
REMARK  8 active torsions:
REMARK  status: ('A' for Active; 'I' for Inactive)
REMARK    1  A    between atoms: _5  and  _11
REMARK    2  A    between atoms: _19  and  _21
REMARK    3  A    between atoms: _22  and  _66
REMARK    4  A    between atoms: _27  and  _30
REMARK    5  A    between atoms: _32  and  _33
REMARK    6  A    between atoms: _38  and  _43
REMARK    7  A    between atoms: _43  and  _46
REMARK    8  A    between atoms: _53  and  _55
REMARK                            x       y       z     vdW  Elec       q    Type
REMARK                         _______ _______ _______ _____ _____    ______ ____
ROOT
ATOM     10  C   UNL     1      14.335  22.223   8.668  0.00  0.00    +0.038 A 
ATOM     11  C   UNL     1      13.308  23.193   8.545  0.00  0.00    +0.047 A 
ATOM     12  C   UNL     1      11.939  22.892   8.933  0.00  0.00    +0.035 A 
ATOM     32  C   UNL     1      11.652  21.593   9.446  0.00  0.00    +0.024 A 
ATOM     33  C   UNL     1      12.684  20.595   9.577  0.00  0.00    +0.007 A 
ATOM     34  C   UNL     1      14.036  20.885   9.193  0.00  0.00    -0.029 A 
ATOM     35  C   UNL     1      15.100  19.775   9.349  0.00  0.00    +0.045 C 
ENDROOT
BRANCH  10   9
ATOM      4  C   UNL     1      17.530  23.672   5.393  0.00  0.00    +0.077 A 
ATOM      5  C   UNL     1      16.536  23.725   4.360  0.00  0.00    +0.048 A 
ATOM      6  C   UNL     1      15.216  23.365   4.711  0.00  0.00    +0.116 A 
ATOM      7  N   UNL     1      14.923  22.982   6.002  0.00  0.00    -0.223 NA
ATOM      8  C   UNL     1      15.906  22.940   6.974  0.00  0.00    +0.220 A 
ATOM      9  N   UNL     1      15.633  22.566   8.280  0.00  0.00    -0.283 N 
ATOM     36  H   UNL     1      16.387  22.541   8.966  0.00  0.00    +0.155 HD
ATOM     37  N   UNL     1      17.175  23.278   6.663  0.00  0.00    -0.214 NA
BRANCH   4   3
ATOM      1  C   UNL     1      21.429  23.471   5.156  0.00  0.00    +0.020 A 
ATOM      2  C   UNL     1      20.057  23.078   5.378  0.00  0.00    +0.013 A 
ATOM      3  C   UNL     1      18.969  24.027   5.178  0.00  0.00    +0.019 A 
ATOM     38  C   UNL     1      19.306  25.376   4.750  0.00  0.00    +0.120 A 
ATOM     39  N   UNL     1      20.637  25.726   4.545  0.00  0.00    -0.263 NA
ATOM     40  C   UNL     1      21.693  24.822   4.736  0.00  0.00    +0.111 A 
ENDBRANCH   4   3
ENDBRANCH  10   9
BRANCH  12  13
ATOM     13  N   UNL     1      10.852  23.833   8.823  0.00  0.00    -0.281 N 
ATOM     14  C   UNL     1      10.532  24.869   9.686  0.00  0.00    +0.248 C 
ATOM     30  O   UNL     1      11.008  25.010  10.803  0.00  0.00    -0.270 OA
ATOM     31  H   UNL     1      10.245  23.723   8.011  0.00  0.00    +0.155 HD
BRANCH  14  15
ATOM     15  C   UNL     1       9.527  25.886   9.251  0.00  0.00    +0.037 A 
ATOM     16  C   UNL     1       9.683  27.302   9.594  0.00  0.00    +0.013 A 
ATOM     17  C   UNL     1       8.690  28.261   9.177  0.00  0.00    +0.005 A 
ATOM     18  C   UNL     1       7.533  27.805   8.410  0.00  0.00    -0.033 A 
ATOM     28  C   UNL     1       7.406  26.396   8.079  0.00  0.00    +0.005 A 
ATOM     29  C   UNL     1       8.377  25.453   8.488  0.00  0.00    +0.013 A 
BRANCH  18  19
ATOM     19  C   UNL     1       6.414  28.754   7.942  0.00  0.00    +0.119 C 
BRANCH  19  20
ATOM     20  N   UNL     1       5.064  28.159   7.711  0.00  0.00    -0.302 NA
ATOM     21  C   UNL     1       4.778  27.941   6.223  0.00  0.00    +0.066 C 
ATOM     22  C   UNL     1       3.371  27.297   6.001  0.00  0.00    -0.064 C 
ATOM     23  N   UNL     1       2.300  28.188   6.633  0.00  0.00    +0.379 N 
ATOM     24  C   UNL     1       0.971  27.614   6.377  0.00  0.00    -0.096 C 
ATOM     25  H   UNL     1       2.344  29.180   6.127  0.00  0.00    -0.082 HD
ATOM     26  C   UNL     1       2.578  28.411   8.113  0.00  0.00    -0.064 C 
ATOM     27  C   UNL     1       3.991  29.025   8.324  0.00  0.00    +0.066 C 
ENDBRANCH  19  20
ENDBRANCH  18  19
ENDBRANCH  14  15
ENDBRANCH  12  13
TORSDOF 6
ENDMDL
MODEL 4
REMARK VINA RESULT:      -7.9      2.108     11.843
REMARK  Name = C:\Users\Docking\Desktop\test protocol\1iep_ligandH.pdb
REMARK  8 active torsions:
REMARK  status: ('A' for Active; 'I' for Inactive)
REMARK    1  A    between atoms: _5  and  _11
REMARK    2  A    between atoms: _19  and  _21
REMARK    3  A    between atoms: _22  and  _66
REMARK    4  A    between atoms: _27  and  _30
REMARK    5  A    between atoms: _32  and  _33
REMARK    6  A    between atoms: _38  and  _43
REMARK    7  A    between atoms: _43  and  _46
REMARK    8  A    between atoms: _53  and  _55
REMARK                            x       y       z     vdW  Elec       q    Type
REMARK                         _______ _______ _______ _____ _____    ______ ____
ROOT
ATOM     10  C   UNL     1      12.247  23.214   8.464  0.00  0.00    +0.038 A 
ATOM     11  C   UNL     1      13.450  23.521   7.779  0.00  0.00    +0.047 A 
ATOM     12  C   UNL     1      14.719  22.942   8.191  0.00  0.00    +0.035 A 
ATOM     32  C   UNL     1      14.726  22.051   9.304  0.00  0.00    +0.024 A 
ATOM     33  C   UNL     1      13.512  21.729  10.012  0.00  0.00    +0.007 A 
ATOM     34  C   UNL     1      12.258  22.299   9.612  0.00  0.00    -0.029 A 
ATOM     35  C   UNL     1      10.989  21.923  10.412  0.00  0.00    +0.045 C 
ENDROOT
BRANCH  10   9
ATOM      4  C   UNL     1       9.163  26.886   8.247  0.00  0.00    +0.077 A 
ATOM      5  C   UNL     1       9.980  27.699   9.101  0.00  0.00    +0.048 A 
ATOM      6  C   UNL     1      11.182  27.133   9.581  0.00  0.00    +0.116 A 
ATOM      7  N   UNL     1      11.532  25.848   9.226  0.00  0.00    -0.223 NA
ATOM      8  C   UNL     1      10.721  25.090   8.402  0.00  0.00    +0.220 A 
ATOM      9  N   UNL     1      11.056  23.798   8.026  0.00  0.00    -0.283 N 
ATOM     36  H   UNL     1      10.427  23.269   7.422  0.00  0.00    +0.155 HD
ATOM     37  N   UNL     1       9.567  25.607   7.932  0.00  0.00    -0.214 NA
BRANCH   4   3
ATOM      1  C   UNL     1       5.721  28.670   7.732  0.00  0.00    +0.020 A 
ATOM      2  C   UNL     1       6.962  28.258   8.346  0.00  0.00    +0.013 A 
ATOM      3  C   UNL     1       7.866  27.344   7.658  0.00  0.00    +0.019 A 
ATOM     38  C   UNL     1       7.481  26.863   6.339  0.00  0.00    +0.120 A 
ATOM     39  N   UNL     1       6.278  27.276   5.774  0.00  0.00    -0.263 NA
ATOM     40  C   UNL     1       5.400  28.154   6.427  0.00  0.00    +0.111 A 
ENDBRANCH   4   3
ENDBRANCH  10   9
BRANCH  12  13
ATOM     13  N   UNL     1      15.974  23.222   7.539  0.00  0.00    -0.281 N 
ATOM     14  C   UNL     1      16.601  22.488   6.546  0.00  0.00    +0.248 C 
ATOM     30  O   UNL     1      16.279  21.356   6.216  0.00  0.00    -0.270 OA
ATOM     31  H   UNL     1      16.459  24.065   7.846  0.00  0.00    +0.155 HD
BRANCH  14  15
ATOM     15  C   UNL     1      17.763  23.092   5.825  0.00  0.00    +0.037 A 
ATOM     16  C   UNL     1      19.126  22.597   6.032  0.00  0.00    +0.013 A 
ATOM     17  C   UNL     1      20.231  23.209   5.336  0.00  0.00    +0.005 A 
ATOM     18  C   UNL     1      19.975  24.323   4.426  0.00  0.00    -0.033 A 
ATOM     28  C   UNL     1      18.612  24.790   4.235  0.00  0.00    +0.005 A 
ATOM     29  C   UNL     1      17.527  24.193   4.916  0.00  0.00    +0.013 A 
BRANCH  18  19
ATOM     19  C   UNL     1      21.096  25.049   3.658  0.00  0.00    +0.119 C 
BRANCH  19  20
ATOM     20  N   UNL     1      20.684  26.091   2.671  0.00  0.00    -0.302 NA
ATOM     21  C   UNL     1      21.492  26.005   1.373  0.00  0.00    +0.066 C 
ATOM     22  C   UNL     1      21.032  27.087   0.343  0.00  0.00    -0.064 C 
ATOM     23  N   UNL     1      21.166  28.475   0.973  0.00  0.00    +0.379 N 
ATOM     24  C   UNL     1      20.790  29.499  -0.013  0.00  0.00    -0.096 C 
ATOM     25  H   UNL     1      22.240  28.629   1.227  0.00  0.00    -0.082 HD
ATOM     26  C   UNL     1      20.368  28.569   2.265  0.00  0.00    -0.064 C 
ATOM     27  C   UNL     1      20.812  27.470   3.271  0.00  0.00    +0.066 C 
ENDBRANCH  19  20
ENDBRANCH  18  19
ENDBRANCH  14  15
ENDBRANCH  12  13
TORSDOF 6
ENDMDL
MODEL 5
REMARK VINA RESULT:      -7.9      3.942     12.885
REMARK  Name = C:\Users\Docking\Desktop\test protocol\1iep_ligandH.pdb
REMARK  8 active torsions:
REMARK  status: ('A' for Active; 'I' for Inactive)
REMARK    1  A    between atoms: _5  and  _11
REMARK    2  A    between atoms: _19  and  _21
REMARK    3  A    between atoms: _22  and  _66
REMARK    4  A    between atoms: _27  and  _30
REMARK    5  A    between atoms: _32  and  _33
REMARK    6  A    between atoms: _38  and  _43
REMARK    7  A    between atoms: _43  and  _46
REMARK    8  A    between atoms: _53  and  _55
REMARK                            x       y       z     vdW  Elec       q    Type
REMARK                         _______ _______ _______ _____ _____    ______ ____
ROOT
ATOM     10  C   UNL     1       9.942  23.831   8.570  0.00  0.00    +0.038 A 
ATOM     11  C   UNL     1      11.145  23.994   7.836  0.00  0.00    +0.047 A 
ATOM     12  C   UNL     1      12.392  23.400   8.294  0.00  0.00    +0.035 A 
ATOM     32  C   UNL     1      12.377  22.644   9.502  0.00  0.00    +0.024 A 
ATOM     33  C   UNL     1      11.163  22.470  10.261  0.00  0.00    +0.007 A 
ATOM     34  C   UNL     1       9.931  23.055   9.816  0.00  0.00    -0.029 A 
ATOM     35  C   UNL     1       8.662  22.840  10.674  0.00  0.00    +0.045 C 
ENDROOT
BRANCH  10   9
ATOM      4  C   UNL     1       6.967  27.569   8.107  0.00  0.00    +0.077 A 
ATOM      5  C   UNL     1       7.798  28.407   8.924  0.00  0.00    +0.048 A 
ATOM      6  C   UNL     1       8.979  27.835   9.449  0.00  0.00    +0.116 A 
ATOM      7  N   UNL     1       9.295  26.523   9.172  0.00  0.00    -0.223 NA
ATOM      8  C   UNL     1       8.471  25.742   8.383  0.00  0.00    +0.220 A 
ATOM      9  N   UNL     1       8.774  24.422   8.085  0.00  0.00    -0.283 N 
ATOM     36  H   UNL     1       8.136  23.877   7.505  0.00  0.00    +0.155 HD
ATOM     37  N   UNL     1       7.337  26.264   7.870  0.00  0.00    -0.214 NA
BRANCH   4   3
ATOM      1  C   UNL     1       4.101  29.828   6.699  0.00  0.00    +0.020 A 
ATOM      2  C   UNL     1       5.348  29.437   7.315  0.00  0.00    +0.013 A 
ATOM      3  C   UNL     1       5.690  28.029   7.477  0.00  0.00    +0.019 A 
ATOM     38  C   UNL     1       4.741  27.035   7.001  0.00  0.00    +0.120 A 
ATOM     39  N   UNL     1       3.547  27.441   6.413  0.00  0.00    -0.263 NA
ATOM     40  C   UNL     1       3.207  28.793   6.253  0.00  0.00    +0.111 A 
ENDBRANCH   4   3
ENDBRANCH  10   9
BRANCH  12  13
ATOM     13  N   UNL     1      13.645  23.538   7.595  0.00  0.00    -0.281 N 
ATOM     14  C   UNL     1      14.112  22.789   6.527  0.00  0.00    +0.248 C 
ATOM     30  O   UNL     1      13.611  21.742   6.146  0.00  0.00    -0.270 OA
ATOM     31  H   UNL     1      14.263  24.278   7.928  0.00  0.00    +0.155 HD
BRANCH  14  15
ATOM     15  C   UNL     1      15.319  23.265   5.785  0.00  0.00    +0.037 A 
ATOM     16  C   UNL     1      16.643  23.273   6.412  0.00  0.00    +0.013 A 
ATOM     17  C   UNL     1      17.788  23.752   5.678  0.00  0.00    +0.005 A 
ATOM     18  C   UNL     1      17.612  24.227   4.308  0.00  0.00    -0.033 A 
ATOM     28  C   UNL     1      16.288  24.203   3.708  0.00  0.00    +0.005 A 
ATOM     29  C   UNL     1      15.164  23.735   4.424  0.00  0.00    +0.013 A 
BRANCH  18  19
ATOM     19  C   UNL     1      18.774  24.776   3.458  0.00  0.00    +0.119 C 
BRANCH  19  20
ATOM     20  N   UNL     1      20.090  24.080   3.568  0.00  0.00    -0.302 NA
ATOM     21  C   UNL     1      21.048  24.808   4.516  0.00  0.00    +0.066 C 
ATOM     22  C   UNL     1      22.412  24.054   4.637  0.00  0.00    -0.064 C 
ATOM     23  N   UNL     1      23.034  23.905   3.248  0.00  0.00    +0.379 N 
ATOM     24  C   UNL     1      24.344  23.248   3.365  0.00  0.00    -0.096 C 
ATOM     25  H   UNL     1      23.204  24.930   2.843  0.00  0.00    -0.082 HD
ATOM     26  C   UNL     1      22.088  23.185   2.298  0.00  0.00    -0.064 C 
ATOM     27  C   UNL     1      20.725  23.926   2.208  0.00  0.00    +0.066 C 
ENDBRANCH  19  20
ENDBRANCH  18  19
ENDBRANCH  14  15
ENDBRANCH  12  13
TORSDOF 6
ENDMDL
