MODEL 1
REMARK VINA RESULT:      -8.7      0.000      0.000
REMARK  Name = C:\Users\Docking\Desktop\test protocol\1iep_ligandH.pdb
REMARK  8 active torsions:
REMARK  status: ('A' for Active; 'I' for Inactive)
REMARK    1  A    between atoms: _5  and  _11
REMARK    2  A    between atoms: _19  and  _21
REMARK    3  A    between atoms: _22  and  _66
REMARK    4  A    between atoms: _27  and  _30
REMARK    5  A    between atoms: _32  and  _33
REMARK    6  A    between atoms: _38  and  _43
REMARK    7  A    between atoms: _43  and  _46
REMARK    8  A    between atoms: _53  and  _55
REMARK                            x       y       z     vdW  Elec       q    Type
REMARK                         _______ _______ _______ _____ _____    ______ ____
ROOT
ATOM     10  C   UNL     1      14.767  23.064   8.590  0.00  0.00    +0.038 A 
ATOM     11  C   UNL     1      13.599  23.862   8.478  0.00  0.00    +0.047 A 
ATOM     12  C   UNL     1      12.349  23.460   9.103  0.00  0.00    +0.035 A 
ATOM     32  C   UNL     1      12.324  22.239   9.839  0.00  0.00    +0.024 A 
ATOM     33  C   UNL     1      13.501  21.415   9.963  0.00  0.00    +0.007 A 
ATOM     34  C   UNL     1      14.736  21.806   9.346  0.00  0.00    -0.029 A 
ATOM     35  C   UNL     1      15.965  20.880   9.506  0.00  0.00    +0.045 C 
ENDROOT
BRANCH  10   9
ATOM      4  C   UNL     1      17.812  23.145   4.882  0.00  0.00    +0.077 A 
ATOM      5  C   UNL     1      17.012  22.224   4.128  0.00  0.00    +0.048 A 
ATOM      6  C   UNL     1      15.828  21.747   4.733  0.00  0.00    +0.116 A 
ATOM      7  N   UNL     1      15.479  22.168   5.999  0.00  0.00    -0.223 NA
ATOM      8  C   UNL     1      16.275  23.056   6.699  0.00  0.00    +0.220 A 
ATOM      9  N   UNL     1      15.940  23.498   7.969  0.00  0.00    -0.283 N 
ATOM     36  H   UNL     1      16.557  24.148   8.456  0.00  0.00    +0.155 HD
ATOM     37  N   UNL     1      17.411  23.525   6.143  0.00  0.00    -0.214 NA
BRANCH   4   3
ATOM      1  C   UNL     1      21.575  24.151   4.518  0.00  0.00    +0.020 A 
ATOM      2  C   UNL     1      20.370  23.555   5.048  0.00  0.00    +0.013 A 
ATOM      3  C   UNL     1      19.090  23.741   4.377  0.00  0.00    +0.019 A 
ATOM     38  C   UNL     1      19.063  24.541   3.162  0.00  0.00    +0.120 A 
ATOM     39  N   UNL     1      20.239  25.104   2.676  0.00  0.00    -0.263 NA
ATOM     40  C   UNL     1      21.477  24.933   3.314  0.00  0.00    +0.111 A 
ENDBRANCH   4   3
ENDBRANCH  10   9
BRANCH  12  13
ATOM     13  N   UNL     1      11.130  24.225   9.016  0.00  0.00    -0.281 N 
ATOM     14  C   UNL     1      10.957  25.580   9.246  0.00  0.00    +0.248 C 
ATOM     30  O   UNL     1      11.790  26.303   9.773  0.00  0.00    -0.270 OA
ATOM     31  H   UNL     1      10.294  23.704   8.753  0.00  0.00    +0.155 HD
BRANCH  14  15
ATOM     15  C   UNL     1       9.668  26.221   8.847  0.00  0.00    +0.037 A 
ATOM     16  C   UNL     1       9.516  27.678   8.833  0.00  0.00    +0.013 A 
ATOM     17  C   UNL     1       8.256  28.271   8.460  0.00  0.00    +0.005 A 
ATOM     18  C   UNL     1       7.137  27.404   8.096  0.00  0.00    -0.033 A 
ATOM     28  C   UNL     1       7.317  25.962   8.114  0.00  0.00    +0.005 A 
ATOM     29  C   UNL     1       8.550  25.378   8.480  0.00  0.00    +0.013 A 
BRANCH  18  19
ATOM     19  C   UNL     1       5.750  27.949   7.706  0.00  0.00    +0.119 C 
BRANCH  19  20
ATOM     20  N   UNL     1       4.724  26.956   7.268  0.00  0.00    -0.302 NA
ATOM     21  C   UNL     1       4.614  26.878   5.743  0.00  0.00    +0.066 C 
ATOM     22  C   UNL     1       3.552  25.819   5.302  0.00  0.00    -0.064 C 
ATOM     23  N   UNL     1       2.200  26.166   5.925  0.00  0.00    +0.379 N 
ATOM     24  C   UNL     1       1.186  25.205   5.466  0.00  0.00    -0.096 C 
ATOM     25  H   UNL     1       1.904  27.174   5.552  0.00  0.00    -0.082 HD
ATOM     26  C   UNL     1       2.301  26.248   7.442  0.00  0.00    -0.064 C 
ATOM     27  C   UNL     1       3.379  27.282   7.869  0.00  0.00    +0.066 C 
ENDBRANCH  19  20
ENDBRANCH  18  19
ENDBRANCH  14  15
ENDBRANCH  12  13
TORSDOF 6
ENDMDL
MODEL 2
REMARK VINA RESULT:      -8.6      3.853      7.623
REMARK  Name = C:\Users\Docking\Desktop\test protocol\1iep_ligandH.pdb
REMARK  8 active torsions:
REMARK  status: ('A' for Active; 'I' for Inactive)
REMARK    1  A    between atoms: _5  and  _11
REMARK    2  A    between atoms: _19  and  _21
REMARK    3  A    between atoms: _22  and  _66
REMARK    4  A    between atoms: _27  and  _30
REMARK    5  A    between atoms: _32  and  _33
REMARK    6  A    between atoms: _38  and  _43
REMARK    7  A    between atoms: _43  and  _46
REMARK    8  A    between atoms: _53  and  _55
REMARK                            x       y       z     vdW  Elec       q    Type
REMARK                         _______ _______ _______ _____ _____    ______ ____
ROOT
ATOM     10  C   UNL     1      20.022  25.503   4.054  0.00  0.00    +0.038 A 
ATOM     11  C   UNL     1      18.759  25.316   4.671  0.00  0.00    +0.047 A 
ATOM     12  C   UNL     1      18.116  24.011   4.690  0.00  0.00    +0.035 A 
ATOM     32  C   UNL     1      18.790  22.917   4.074  0.00  0.00    +0.024 A 
ATOM     33  C   UNL     1      20.075  23.089   3.442  0.00  0.00    +0.007 A 
ATOM     34  C   UNL     1      20.712  24.374   3.417  0.00  0.00    -0.029 A 
ATOM     35  C   UNL     1      22.086  24.501   2.720  0.00  0.00    +0.045 C 
ENDROOT
BRANCH  10   9
ATOM      4  C   UNL     1      21.131  29.662   1.931  0.00  0.00    +0.077 A 
ATOM      5  C   UNL     1      20.546  29.251   0.687  0.00  0.00    +0.048 A 
ATOM      6  C   UNL     1      19.977  27.958   0.633  0.00  0.00    +0.116 A 
ATOM      7  N   UNL     1      19.997  27.147   1.746  0.00  0.00    -0.223 NA
ATOM      8  C   UNL     1      20.570  27.574   2.930  0.00  0.00    +0.220 A 
ATOM      9  N   UNL     1      20.593  26.777   4.065  0.00  0.00    -0.283 N 
ATOM     36  H   UNL     1      21.032  27.126   4.916  0.00  0.00    +0.155 HD
ATOM     37  N   UNL     1      21.121  28.803   3.007  0.00  0.00    -0.214 NA
BRANCH   4   3
ATOM      1  C   UNL     1      22.221  33.066   3.520  0.00  0.00    +0.020 A 
ATOM      2  C   UNL     1      21.582  31.780   3.362  0.00  0.00    +0.013 A 
ATOM      3  C   UNL     1      21.768  30.999   2.146  0.00  0.00    +0.019 A 
ATOM     38  C   UNL     1      22.615  31.553   1.100  0.00  0.00    +0.120 A 
ATOM     39  N   UNL     1      23.216  32.795   1.279  0.00  0.00    -0.263 NA
ATOM     40  C   UNL     1      23.043  33.556   2.445  0.00  0.00    +0.111 A 
ENDBRANCH   4   3
ENDBRANCH  10   9
BRANCH  12  13
ATOM     13  N   UNL     1      16.830  23.764   5.294  0.00  0.00    -0.281 N 
ATOM     14  C   UNL     1      16.558  23.078   6.467  0.00  0.00    +0.248 C 
ATOM     30  O   UNL     1      17.367  22.387   7.067  0.00  0.00    -0.270 OA
ATOM     31  H   UNL     1      16.023  24.139   4.796  0.00  0.00    +0.155 HD
BRANCH  14  15
ATOM     15  C   UNL     1      15.184  23.162   7.049  0.00  0.00    +0.037 A 
ATOM     16  C   UNL     1      13.996  23.200   6.193  0.00  0.00    +0.013 A 
ATOM     17  C   UNL     1      12.684  23.298   6.780  0.00  0.00    +0.005 A 
ATOM     18  C   UNL     1      12.552  23.356   8.234  0.00  0.00    -0.033 A 
ATOM     28  C   UNL     1      13.747  23.311   9.060  0.00  0.00    +0.005 A 
ATOM     29  C   UNL     1      15.035  23.217   8.488  0.00  0.00    +0.013 A 
BRANCH  18  19
ATOM     19  C   UNL     1      11.193  23.482   8.946  0.00  0.00    +0.119 C 
BRANCH  19  20
ATOM     20  N   UNL     1      10.341  24.656   8.591  0.00  0.00    -0.302 NA
ATOM     21  C   UNL     1      10.790  25.931   9.310  0.00  0.00    +0.066 C 
ATOM     22  C   UNL     1       9.902  27.154   8.909  0.00  0.00    -0.064 C 
ATOM     23  N   UNL     1       8.438  26.842   9.224  0.00  0.00    +0.379 N 
ATOM     24  C   UNL     1       7.607  28.012   8.902  0.00  0.00    -0.096 C 
ATOM     25  H   UNL     1       8.359  26.662  10.321  0.00  0.00    -0.082 HD
ATOM     26  C   UNL     1       7.984  25.574   8.514  0.00  0.00    -0.064 C 
ATOM     27  C   UNL     1       8.891  24.372   8.897  0.00  0.00    +0.066 C 
ENDBRANCH  19  20
ENDBRANCH  18  19
ENDBRANCH  14  15
ENDBRANCH  12  13
TORSDOF 6
ENDMDL
MODEL 3
REMARK VINA RESULT:      -8.3      2.341     13.026
REMARK  Name = C:\Users\Docking\Desktop\test protocol\1iep_ligandH.pdb
REMARK  8 active torsions:
REMARK  status: ('A' for Active; 'I' for Inactive)
REMARK    1  A    between atoms: _5  and  _11
REMARK    2  A    between atoms: _19  and  _21
REMARK    3  A    between atoms: _22  and  _66
REMARK    4  A    between atoms: _27  and  _30
REMARK    5  A    between atoms: _32  and  _33
REMARK    6  A    between atoms: _38  and  _43
REMARK    7  A    between atoms: _43  and  _46
REMARK    8  A    between atoms: _53  and  _55
REMARK                            x       y       z     vdW  Elec       q    Type
REMARK                         _______ _______ _______ _____ _____    ______ ____
ROOT
ATOM     10  C   UNL     1      12.504  23.380   8.587  0.00  0.00    +0.038 A 
ATOM     11  C   UNL     1      13.675  23.632   7.827  0.00  0.00    +0.047 A 
ATOM     12  C   UNL     1      14.981  23.188   8.288  0.00  0.00    +0.035 A 
ATOM     32  C   UNL     1      15.059  22.487   9.527  0.00  0.00    +0.024 A 
ATOM     33  C   UNL     1      13.879  22.223  10.312  0.00  0.00    +0.007 A 
ATOM     34  C   UNL     1      12.588  22.661   9.864  0.00  0.00    -0.029 A 
ATOM     35  C   UNL     1      11.358  22.355  10.750  0.00  0.00    +0.045 C 
ENDROOT
BRANCH  10   9
ATOM      4  C   UNL     1       9.044  26.686   8.226  0.00  0.00    +0.077 A 
ATOM      5  C   UNL     1       9.729  27.585   9.109  0.00  0.00    +0.048 A 
ATOM      6  C   UNL     1      10.966  27.156   9.641  0.00  0.00    +0.116 A 
ATOM      7  N   UNL     1      11.470  25.918   9.307  0.00  0.00    -0.223 NA
ATOM      8  C   UNL     1      10.783  25.074   8.453  0.00  0.00    +0.220 A 
ATOM      9  N   UNL     1      11.276  23.828   8.097  0.00  0.00    -0.283 N 
ATOM     36  H   UNL     1      10.735  23.233   7.470  0.00  0.00    +0.155 HD
ATOM     37  N   UNL     1       9.600  25.461   7.933  0.00  0.00    -0.214 NA
BRANCH   4   3
ATOM      1  C   UNL     1       5.420  28.013   7.589  0.00  0.00    +0.020 A 
ATOM      2  C   UNL     1       6.671  27.738   8.257  0.00  0.00    +0.013 A 
ATOM      3  C   UNL     1       7.729  26.998   7.581  0.00  0.00    +0.019 A 
ATOM     38  C   UNL     1       7.488  26.548   6.219  0.00  0.00    +0.120 A 
ATOM     39  N   UNL     1       6.272  26.826   5.601  0.00  0.00    -0.263 NA
ATOM     40  C   UNL     1       5.246  27.536   6.243  0.00  0.00    +0.111 A 
ENDBRANCH   4   3
ENDBRANCH  10   9
BRANCH  12  13
ATOM     13  N   UNL     1      16.206  23.423   7.563  0.00  0.00    -0.281 N 
ATOM     14  C   UNL     1      16.769  22.641   6.568  0.00  0.00    +0.248 C 
ATOM     30  O   UNL     1      16.413  21.504   6.298  0.00  0.00    -0.270 OA
ATOM     31  H   UNL     1      16.719  24.267   7.815  0.00  0.00    +0.155 HD
BRANCH  14  15
ATOM     15  C   UNL     1      17.902  23.198   5.768  0.00  0.00    +0.037 A 
ATOM     16  C   UNL     1      17.721  24.370   4.907  0.00  0.00    +0.013 A 
ATOM     17  C   UNL     1      18.826  24.876   4.132  0.00  0.00    +0.005 A 
ATOM     18  C   UNL     1      20.124  24.210   4.216  0.00  0.00    -0.033 A 
ATOM     28  C   UNL     1      20.277  23.052   5.081  0.00  0.00    +0.005 A 
ATOM     29  C   UNL     1      19.196  22.553   5.842  0.00  0.00    +0.013 A 
BRANCH  18  19
ATOM     19  C   UNL     1      21.352  24.669   3.408  0.00  0.00    +0.119 C 
BRANCH  19  20
ATOM     20  N   UNL     1      22.256  23.606   2.875  0.00  0.00    -0.302 NA
ATOM     21  C   UNL     1      23.650  23.666   3.506  0.00  0.00    +0.066 C 
ATOM     22  C   UNL     1      24.574  22.534   2.953  0.00  0.00    -0.064 C 
ATOM     23  N   UNL     1      24.664  22.649   1.430  0.00  0.00    +0.379 N 
ATOM     24  C   UNL     1      25.578  21.621   0.913  0.00  0.00    -0.096 C 
ATOM     25  H   UNL     1      25.104  23.645   1.192  0.00  0.00    -0.082 HD
ATOM     26  C   UNL     1      23.281  22.592   0.795  0.00  0.00    -0.064 C 
ATOM     27  C   UNL     1      22.361  23.704   1.373  0.00  0.00    +0.066 C 
ENDBRANCH  19  20
ENDBRANCH  18  19
ENDBRANCH  14  15
ENDBRANCH  12  13
TORSDOF 6
ENDMDL
MODEL 4
REMARK VINA RESULT:      -8.3      2.145     12.127
REMARK  Name = C:\Users\Docking\Desktop\test protocol\1iep_ligandH.pdb
REMARK  8 active torsions:
REMARK  status: ('A' for Active; 'I' for Inactive)
REMARK    1  A    between atoms: _5  and  _11
REMARK    2  A    between atoms: _19  and  _21
REMARK    3  A    between atoms: _22  and  _66
REMARK    4  A    between atoms: _27  and  _30
REMARK    5  A    between atoms: _32  and  _33
REMARK    6  A    between atoms: _38  and  _43
REMARK    7  A    between atoms: _43  and  _46
REMARK    8  A    between atoms: _53  and  _55
REMARK                            x       y       z     vdW  Elec       q    Type
REMARK                         _______ _______ _______ _____ _____    ______ ____
ROOT
ATOM     10  C   UNL     1      11.297  23.835   8.801  0.00  0.00    +0.038 A 
ATOM     11  C   UNL     1      12.464  23.914   7.999  0.00  0.00    +0.047 A 
ATOM     12  C   UNL     1      13.766  23.532   8.524  0.00  0.00    +0.035 A 
ATOM     32  C   UNL     1      13.842  23.071   9.870  0.00  0.00    +0.024 A 
ATOM     33  C   UNL     1      12.667  22.986  10.700  0.00  0.00    +0.007 A 
ATOM     34  C   UNL     1      11.380  23.363  10.189  0.00  0.00    -0.029 A 
ATOM     35  C   UNL     1      10.155  23.257  11.126  0.00  0.00    +0.045 C 
ENDROOT
BRANCH  10   9
ATOM      4  C   UNL     1       7.819  27.049   8.021  0.00  0.00    +0.077 A 
ATOM      5  C   UNL     1       8.483  28.048   8.807  0.00  0.00    +0.048 A 
ATOM      6  C   UNL     1       9.715  27.692   9.402  0.00  0.00    +0.116 A 
ATOM      7  N   UNL     1      10.234  26.429   9.216  0.00  0.00    -0.223 NA
ATOM      8  C   UNL     1       9.566  25.489   8.453  0.00  0.00    +0.220 A 
ATOM      9  N   UNL     1      10.073  24.215   8.246  0.00  0.00    -0.283 N 
ATOM     36  H   UNL     1       9.546  23.548   7.683  0.00  0.00    +0.155 HD
ATOM     37  N   UNL     1       8.388  25.803   7.876  0.00  0.00    -0.214 NA
BRANCH   4   3
ATOM      1  C   UNL     1       4.173  28.213   7.212  0.00  0.00    +0.020 A 
ATOM      2  C   UNL     1       5.415  28.024   7.926  0.00  0.00    +0.013 A 
ATOM      3  C   UNL     1       6.512  27.274   7.326  0.00  0.00    +0.019 A 
ATOM     38  C   UNL     1       6.318  26.725   5.992  0.00  0.00    +0.120 A 
ATOM     39  N   UNL     1       5.110  26.922   5.330  0.00  0.00    -0.263 NA
ATOM     40  C   UNL     1       4.047  27.641   5.897  0.00  0.00    +0.111 A 
ENDBRANCH   4   3
ENDBRANCH  10   9
BRANCH  12  13
ATOM     13  N   UNL     1      14.986  23.599   7.758  0.00  0.00    -0.281 N 
ATOM     14  C   UNL     1      15.555  22.609   6.974  0.00  0.00    +0.248 C 
ATOM     30  O   UNL     1      15.209  21.437   6.983  0.00  0.00    -0.270 OA
ATOM     31  H   UNL     1      15.492  24.484   7.800  0.00  0.00    +0.155 HD
BRANCH  14  15
ATOM     15  C   UNL     1      16.680  22.970   6.059  0.00  0.00    +0.037 A 
ATOM     16  C   UNL     1      18.047  22.508   6.317  0.00  0.00    +0.013 A 
ATOM     17  C   UNL     1      19.117  22.885   5.428  0.00  0.00    +0.005 A 
ATOM     18  C   UNL     1      18.823  23.727   4.271  0.00  0.00    -0.033 A 
ATOM     28  C   UNL     1      17.458  24.167   4.036  0.00  0.00    +0.005 A 
ATOM     29  C   UNL     1      16.407  23.800   4.906  0.00  0.00    +0.013 A 
BRANCH  18  19
ATOM     19  C   UNL     1      19.907  24.195   3.281  0.00  0.00    +0.119 C 
BRANCH  19  20
ATOM     20  N   UNL     1      19.798  25.590   2.757  0.00  0.00    -0.302 NA
ATOM     21  C   UNL     1      19.626  25.620   1.236  0.00  0.00    +0.066 C 
ATOM     22  C   UNL     1      19.491  27.085   0.707  0.00  0.00    -0.064 C 
ATOM     23  N   UNL     1      20.720  27.892   1.130  0.00  0.00    +0.379 N 
ATOM     24  C   UNL     1      20.624  29.254   0.585  0.00  0.00    -0.096 C 
ATOM     25  H   UNL     1      21.615  27.408   0.674  0.00  0.00    -0.082 HD
ATOM     26  C   UNL     1      20.900  27.865   2.641  0.00  0.00    -0.064 C 
ATOM     27  C   UNL     1      21.004  26.403   3.159  0.00  0.00    +0.066 C 
ENDBRANCH  19  20
ENDBRANCH  18  19
ENDBRANCH  14  15
ENDBRANCH  12  13
TORSDOF 6
ENDMDL
MODEL 5
REMARK VINA RESULT:      -8.0      4.850      8.382
REMARK  Name = C:\Users\Docking\Desktop\test protocol\1iep_ligandH.pdb
REMARK  8 active torsions:
REMARK  status: ('A' for Active; 'I' for Inactive)
REMARK    1  A    between atoms: _5  and  _11
REMARK    2  A    between atoms: _19  and  _21
REMARK    3  A    between atoms: _22  and  _66
REMARK    4  A    between atoms: _27  and  _30
REMARK    5  A    between atoms: _32  and  _33
REMARK    6  A    between atoms: _38  and  _43
REMARK    7  A    between atoms: _43  and  _46
REMARK    8  A    between atoms: _53  and  _55
REMARK                            x       y       z     vdW  Elec       q    Type
REMARK                         _______ _______ _______ _____ _____    ______ ____
ROOT
ATOM     10  C   UNL     1      20.003  25.476   4.065  0.00  0.00    +0.038 A 
ATOM     11  C   UNL     1      18.745  25.302   4.696  0.00  0.00    +0.047 A 
ATOM     12  C   UNL     1      18.090  24.003   4.721  0.00  0.00    +0.035 A 
ATOM     32  C   UNL     1      18.745  22.903   4.096  0.00  0.00    +0.024 A 
ATOM     33  C   UNL     1      20.024  23.063   3.449  0.00  0.00    +0.007 A 
ATOM     34  C   UNL     1      20.674  24.342   3.419  0.00  0.00    -0.029 A 
ATOM     35  C   UNL     1      22.041  24.457   2.705  0.00  0.00    +0.045 C 
ENDROOT
BRANCH  10   9
ATOM      4  C   UNL     1      21.124  29.630   1.938  0.00  0.00    +0.077 A 
ATOM      5  C   UNL     1      20.518  29.228   0.701  0.00  0.00    +0.048 A 
ATOM      6  C   UNL     1      19.935  27.942   0.652  0.00  0.00    +0.116 A 
ATOM      7  N   UNL     1      19.961  27.127   1.763  0.00  0.00    -0.223 NA
ATOM      8  C   UNL     1      20.556  27.545   2.939  0.00  0.00    +0.220 A 
ATOM      9  N   UNL     1      20.587  26.745   4.071  0.00  0.00    -0.283 N 
ATOM     36  H   UNL     1      21.042  27.087   4.918  0.00  0.00    +0.155 HD
ATOM     37  N   UNL     1      21.121  28.768   3.011  0.00  0.00    -0.214 NA
BRANCH   4   3
ATOM      1  C   UNL     1      22.281  33.012   3.526  0.00  0.00    +0.020 A 
ATOM      2  C   UNL     1      21.628  31.733   3.374  0.00  0.00    +0.013 A 
ATOM      3  C   UNL     1      21.778  30.960   2.147  0.00  0.00    +0.019 A 
ATOM     38  C   UNL     1      22.603  31.515   1.085  0.00  0.00    +0.120 A 
ATOM     39  N   UNL     1      23.219  32.751   1.259  0.00  0.00    -0.263 NA
ATOM     40  C   UNL     1      23.081  33.503   2.435  0.00  0.00    +0.111 A 
ENDBRANCH   4   3
ENDBRANCH  10   9
BRANCH  12  13
ATOM     13  N   UNL     1      16.809  23.767   5.340  0.00  0.00    -0.281 N 
ATOM     14  C   UNL     1      16.539  23.046   6.492  0.00  0.00    +0.248 C 
ATOM     30  O   UNL     1      17.340  22.311   7.050  0.00  0.00    -0.270 OA
ATOM     31  H   UNL     1      16.003  24.182   4.872  0.00  0.00    +0.155 HD
BRANCH  14  15
ATOM     15  C   UNL     1      15.179  23.144   7.103  0.00  0.00    +0.037 A 
ATOM     16  C   UNL     1      15.001  23.201   8.556  0.00  0.00    +0.013 A 
ATOM     17  C   UNL     1      13.677  23.279   9.120  0.00  0.00    +0.005 A 
ATOM     18  C   UNL     1      12.519  23.301   8.230  0.00  0.00    -0.033 A 
ATOM     28  C   UNL     1      12.724  23.248   6.792  0.00  0.00    +0.005 A 
ATOM     29  C   UNL     1      14.020  23.171   6.235  0.00  0.00    +0.013 A 
BRANCH  18  19
ATOM     19  C   UNL     1      11.069  23.360   8.745  0.00  0.00    +0.119 C 
BRANCH  19  20
ATOM     20  N   UNL     1      10.581  22.201   9.550  0.00  0.00    -0.302 NA
ATOM     21  C   UNL     1      11.076  22.259  10.998  0.00  0.00    +0.066 C 
ATOM     22  C   UNL     1      10.537  21.051  11.832  0.00  0.00    -0.064 C 
ATOM     23  N   UNL     1      10.966  19.743  11.164  0.00  0.00    +0.379 N 
ATOM     24  C   UNL     1      10.510  18.605  11.977  0.00  0.00    -0.096 C 
ATOM     25  H   UNL     1      12.080  19.722  11.147  0.00  0.00    -0.082 HD
ATOM     26  C   UNL     1      10.480  19.679   9.723  0.00  0.00    -0.064 C 
ATOM     27  C   UNL     1      10.996  20.899   8.911  0.00  0.00    +0.066 C 
ENDBRANCH  19  20
ENDBRANCH  18  19
ENDBRANCH  14  15
ENDBRANCH  12  13
TORSDOF 6
ENDMDL
