MODEL 1
REMARK VINA RESULT:      -8.5      0.000      0.000
REMARK  Name = C:\Users\Docking\Desktop\test protocol\1iep_ligandH.pdb
REMARK  8 active torsions:
REMARK  status: ('A' for Active; 'I' for Inactive)
REMARK    1  A    between atoms: _5  and  _11
REMARK    2  A    between atoms: _19  and  _21
REMARK    3  A    between atoms: _22  and  _66
REMARK    4  A    between atoms: _27  and  _30
REMARK    5  A    between atoms: _32  and  _33
REMARK    6  A    between atoms: _38  and  _43
REMARK    7  A    between atoms: _43  and  _46
REMARK    8  A    between atoms: _53  and  _55
REMARK                            x       y       z     vdW  Elec       q    Type
REMARK                         _______ _______ _______ _____ _____    ______ ____
ROOT
ATOM     10  C   UNL     1      47.822  -0.379  86.247  0.00  0.00    +0.038 A 
ATOM     11  C   UNL     1      48.985   0.381  85.963  0.00  0.00    +0.047 A 
ATOM     12  C   UNL     1      50.300  -0.064  86.399  0.00  0.00    +0.035 A 
ATOM     32  C   UNL     1      50.393  -1.290  87.119  0.00  0.00    +0.024 A 
ATOM     33  C   UNL     1      49.221  -2.075  87.417  0.00  0.00    +0.007 A 
ATOM     34  C   UNL     1      47.921  -1.639  86.992  0.00  0.00    -0.029 A 
ATOM     35  C   UNL     1      46.698  -2.518  87.345  0.00  0.00    +0.045 C 
ENDROOT
BRANCH  10   9
ATOM      4  C   UNL     1      43.518   1.595  87.035  0.00  0.00    +0.077 A 
ATOM      5  C   UNL     1      43.742   1.662  88.450  0.00  0.00    +0.048 A 
ATOM      6  C   UNL     1      44.975   1.171  88.936  0.00  0.00    +0.116 A 
ATOM      7  N   UNL     1      45.907   0.655  88.062  0.00  0.00    -0.223 NA
ATOM      8  C   UNL     1      45.659   0.604  86.703  0.00  0.00    +0.220 A 
ATOM      9  N   UNL     1      46.585   0.096  85.805  0.00  0.00    -0.283 N 
ATOM     36  H   UNL     1      46.361   0.069  84.810  0.00  0.00    +0.155 HD
ATOM     37  N   UNL     1      44.489   1.065  86.214  0.00  0.00    -0.214 NA
BRANCH   4   3
ATOM      1  C   UNL     1      40.422   3.764  86.031  0.00  0.00    +0.020 A 
ATOM      2  C   UNL     1      41.629   3.345  86.704  0.00  0.00    +0.013 A 
ATOM      3  C   UNL     1      42.267   2.077  86.370  0.00  0.00    +0.019 A 
ATOM     38  C   UNL     1      41.652   1.251  85.341  0.00  0.00    +0.120 A 
ATOM     39  N   UNL     1      40.488   1.680  84.711  0.00  0.00    -0.263 NA
ATOM     40  C   UNL     1      39.865   2.897  85.026  0.00  0.00    +0.111 A 
ENDBRANCH   4   3
ENDBRANCH  10   9
BRANCH  12  13
ATOM     13  N   UNL     1      51.515   0.670  86.147  0.00  0.00    -0.281 N 
ATOM     14  C   UNL     1      52.545   0.340  85.281  0.00  0.00    +0.248 C 
ATOM     30  O   UNL     1      52.676  -0.751  84.747  0.00  0.00    -0.270 OA
ATOM     31  H   UNL     1      51.630   1.538  86.670  0.00  0.00    +0.155 HD
BRANCH  14  15
ATOM     15  C   UNL     1      53.589   1.366  84.976  0.00  0.00    +0.037 A 
ATOM     16  C   UNL     1      53.578   2.677  85.629  0.00  0.00    +0.013 A 
ATOM     17  C   UNL     1      54.587   3.655  85.303  0.00  0.00    +0.005 A 
ATOM     18  C   UNL     1      55.615   3.323  84.320  0.00  0.00    -0.033 A 
ATOM     28  C   UNL     1      55.605   2.012  83.692  0.00  0.00    +0.005 A 
ATOM     29  C   UNL     1      54.617   1.052  84.007  0.00  0.00    +0.013 A 
BRANCH  18  19
ATOM     19  C   UNL     1      56.717   4.312  83.897  0.00  0.00    +0.119 C 
BRANCH  19  20
ATOM     20  N   UNL     1      58.079   3.752  83.646  0.00  0.00    -0.302 NA
ATOM     21  C   UNL     1      58.815   3.427  84.948  0.00  0.00    +0.066 C 
ATOM     22  C   UNL     1      60.229   2.821  84.667  0.00  0.00    -0.064 C 
ATOM     23  N   UNL     1      61.040   3.800  83.816  0.00  0.00    +0.379 N 
ATOM     24  C   UNL     1      62.390   3.259  83.598  0.00  0.00    -0.096 C 
ATOM     25  H   UNL     1      61.144   4.746  84.396  0.00  0.00    -0.082 HD
ATOM     26  C   UNL     1      60.313   4.131  82.520  0.00  0.00    -0.064 C 
ATOM     27  C   UNL     1      58.898   4.705  82.810  0.00  0.00    +0.066 C 
ENDBRANCH  19  20
ENDBRANCH  18  19
ENDBRANCH  14  15
ENDBRANCH  12  13
TORSDOF 6
ENDMDL
MODEL 2
REMARK VINA RESULT:      -8.4      8.431     13.401
REMARK  Name = C:\Users\Docking\Desktop\test protocol\1iep_ligandH.pdb
REMARK  8 active torsions:
REMARK  status: ('A' for Active; 'I' for Inactive)
REMARK    1  A    between atoms: _5  and  _11
REMARK    2  A    between atoms: _19  and  _21
REMARK    3  A    between atoms: _22  and  _66
REMARK    4  A    between atoms: _27  and  _30
REMARK    5  A    between atoms: _32  and  _33
REMARK    6  A    between atoms: _38  and  _43
REMARK    7  A    between atoms: _43  and  _46
REMARK    8  A    between atoms: _53  and  _55
REMARK                            x       y       z     vdW  Elec       q    Type
REMARK                         _______ _______ _______ _____ _____    ______ ____
ROOT
ATOM     10  C   UNL     1      56.438   3.511  84.661  0.00  0.00    +0.038 A 
ATOM     11  C   UNL     1      57.042   2.531  85.490  0.00  0.00    +0.047 A 
ATOM     12  C   UNL     1      56.526   1.172  85.547  0.00  0.00    +0.035 A 
ATOM     32  C   UNL     1      55.394   0.845  84.745  0.00  0.00    +0.024 A 
ATOM     33  C   UNL     1      54.767   1.829  83.898  0.00  0.00    +0.007 A 
ATOM     34  C   UNL     1      55.270   3.172  83.839  0.00  0.00    -0.029 A 
ATOM     35  C   UNL     1      54.554   4.187  82.918  0.00  0.00    +0.045 C 
ENDROOT
BRANCH  10   9
ATOM      4  C   UNL     1      59.562   6.775  83.041  0.00  0.00    +0.077 A 
ATOM      5  C   UNL     1      60.196   5.824  82.173  0.00  0.00    +0.048 A 
ATOM      6  C   UNL     1      59.692   4.504  82.179  0.00  0.00    +0.116 A 
ATOM      7  N   UNL     1      58.633   4.171  82.995  0.00  0.00    -0.223 NA
ATOM      8  C   UNL     1      58.046   5.111  83.821  0.00  0.00    +0.220 A 
ATOM      9  N   UNL     1      56.975   4.800  84.644  0.00  0.00    -0.283 N 
ATOM     36  H   UNL     1      56.574   5.521  85.244  0.00  0.00    +0.155 HD
ATOM     37  N   UNL     1      58.510   6.378  83.835  0.00  0.00    -0.214 NA
BRANCH   4   3
ATOM      1  C   UNL     1      61.452  10.160  82.523  0.00  0.00    +0.020 A 
ATOM      2  C   UNL     1      61.091   8.768  82.387  0.00  0.00    +0.013 A 
ATOM      3  C   UNL     1      59.978   8.209  83.144  0.00  0.00    +0.019 A 
ATOM     38  C   UNL     1      59.245   9.093  84.038  0.00  0.00    +0.120 A 
ATOM     39  N   UNL     1      59.616  10.429  84.150  0.00  0.00    -0.263 NA
ATOM     40  C   UNL     1      60.686  10.978  83.427  0.00  0.00    +0.111 A 
ENDBRANCH   4   3
ENDBRANCH  10   9
BRANCH  12  13
ATOM     13  N   UNL     1      57.093   0.137  86.376  0.00  0.00    -0.281 N 
ATOM     14  C   UNL     1      58.351  -0.435  86.282  0.00  0.00    +0.248 C 
ATOM     30  O   UNL     1      59.106  -0.293  85.331  0.00  0.00    -0.270 OA
ATOM     31  H   UNL     1      56.494  -0.216  87.122  0.00  0.00    +0.155 HD
BRANCH  14  15
ATOM     15  C   UNL     1      58.834  -1.303  87.399  0.00  0.00    +0.037 A 
ATOM     16  C   UNL     1      60.145  -1.955  87.342  0.00  0.00    +0.013 A 
ATOM     17  C   UNL     1      60.580  -2.800  88.425  0.00  0.00    +0.005 A 
ATOM     18  C   UNL     1      59.702  -2.998  89.576  0.00  0.00    -0.033 A 
ATOM     28  C   UNL     1      58.409  -2.336  89.609  0.00  0.00    +0.005 A 
ATOM     29  C   UNL     1      57.979  -1.507  88.548  0.00  0.00    +0.013 A 
BRANCH  18  19
ATOM     19  C   UNL     1      60.075  -3.900  90.767  0.00  0.00    +0.119 C 
BRANCH  19  20
ATOM     20  N   UNL     1      58.998  -4.767  91.332  0.00  0.00    -0.302 NA
ATOM     21  C   UNL     1      58.568  -4.312  92.729  0.00  0.00    +0.066 C 
ATOM     22  C   UNL     1      57.425  -5.216  93.296  0.00  0.00    -0.064 C 
ATOM     23  N   UNL     1      57.895  -6.671  93.322  0.00  0.00    +0.379 N 
ATOM     24  C   UNL     1      56.845  -7.516  93.908  0.00  0.00    -0.096 C 
ATOM     25  H   UNL     1      58.786  -6.727  93.990  0.00  0.00    -0.082 HD
ATOM     26  C   UNL     1      58.328  -7.132  91.937  0.00  0.00    -0.064 C 
ATOM     27  C   UNL     1      59.443  -6.209  91.371  0.00  0.00    +0.066 C 
ENDBRANCH  19  20
ENDBRANCH  18  19
ENDBRANCH  14  15
ENDBRANCH  12  13
TORSDOF 6
ENDMDL
MODEL 3
REMARK VINA RESULT:      -8.3     13.345     18.911
REMARK  Name = C:\Users\Docking\Desktop\test protocol\1iep_ligandH.pdb
REMARK  8 active torsions:
REMARK  status: ('A' for Active; 'I' for Inactive)
REMARK    1  A    between atoms: _5  and  _11
REMARK    2  A    between atoms: _19  and  _21
REMARK    3  A    between atoms: _22  and  _66
REMARK    4  A    between atoms: _27  and  _30
REMARK    5  A    between atoms: _32  and  _33
REMARK    6  A    between atoms: _38  and  _43
REMARK    7  A    between atoms: _43  and  _46
REMARK    8  A    between atoms: _53  and  _55
REMARK                            x       y       z     vdW  Elec       q    Type
REMARK                         _______ _______ _______ _____ _____    ______ ____
ROOT
ATOM     10  C   UNL     1      39.000   2.892  78.834  0.00  0.00    +0.038 A 
ATOM     11  C   UNL     1      38.462   2.871  77.522  0.00  0.00    +0.047 A 
ATOM     12  C   UNL     1      39.316   3.038  76.356  0.00  0.00    +0.035 A 
ATOM     32  C   UNL     1      40.714   3.222  76.564  0.00  0.00    +0.024 A 
ATOM     33  C   UNL     1      41.277   3.247  77.891  0.00  0.00    +0.007 A 
ATOM     34  C   UNL     1      40.440   3.085  79.044  0.00  0.00    -0.029 A 
ATOM     35  C   UNL     1      41.097   3.126  80.443  0.00  0.00    +0.045 C 
ENDROOT
BRANCH  10   9
ATOM      4  C   UNL     1      36.487   4.609  82.545  0.00  0.00    +0.077 A 
ATOM      5  C   UNL     1      36.959   5.945  82.323  0.00  0.00    +0.048 A 
ATOM      6  C   UNL     1      37.854   6.147  81.248  0.00  0.00    +0.116 A 
ATOM      7  N   UNL     1      38.239   5.084  80.460  0.00  0.00    -0.223 NA
ATOM      8  C   UNL     1      37.766   3.808  80.702  0.00  0.00    +0.220 A 
ATOM      9  N   UNL     1      38.134   2.726  79.918  0.00  0.00    -0.283 N 
ATOM     36  H   UNL     1      37.769   1.799  80.134  0.00  0.00    +0.155 HD
ATOM     37  N   UNL     1      36.912   3.589  81.724  0.00  0.00    -0.214 NA
BRANCH   4   3
ATOM      1  C   UNL     1      33.218   3.787  84.531  0.00  0.00    +0.020 A 
ATOM      2  C   UNL     1      34.094   4.151  83.441  0.00  0.00    +0.013 A 
ATOM      3  C   UNL     1      35.535   4.237  83.639  0.00  0.00    +0.019 A 
ATOM     38  C   UNL     1      36.063   3.945  84.964  0.00  0.00    +0.120 A 
ATOM     39  N   UNL     1      35.195   3.598  85.995  0.00  0.00    -0.263 NA
ATOM     40  C   UNL     1      33.806   3.514  85.816  0.00  0.00    +0.111 A 
ENDBRANCH   4   3
ENDBRANCH  10   9
BRANCH  12  13
ATOM     13  N   UNL     1      38.825   3.034  75.000  0.00  0.00    -0.281 N 
ATOM     14  C   UNL     1      38.324   1.963  74.279  0.00  0.00    +0.248 C 
ATOM     30  O   UNL     1      38.419   0.794  74.622  0.00  0.00    -0.270 OA
ATOM     31  H   UNL     1      38.852   3.930  74.513  0.00  0.00    +0.155 HD
BRANCH  14  15
ATOM     15  C   UNL     1      37.628   2.228  72.983  0.00  0.00    +0.037 A 
ATOM     16  C   UNL     1      38.122   3.242  72.048  0.00  0.00    +0.013 A 
ATOM     17  C   UNL     1      37.422   3.489  70.813  0.00  0.00    +0.005 A 
ATOM     18  C   UNL     1      36.220   2.719  70.504  0.00  0.00    -0.033 A 
ATOM     28  C   UNL     1      35.754   1.715  71.447  0.00  0.00    +0.005 A 
ATOM     29  C   UNL     1      36.437   1.471  72.660  0.00  0.00    +0.013 A 
BRANCH  18  19
ATOM     19  C   UNL     1      35.398   2.930  69.219  0.00  0.00    +0.119 C 
BRANCH  19  20
ATOM     20  N   UNL     1      35.030   4.334  68.866  0.00  0.00    -0.302 NA
ATOM     21  C   UNL     1      33.513   4.533  68.807  0.00  0.00    +0.066 C 
ATOM     22  C   UNL     1      33.147   6.012  68.458  0.00  0.00    -0.064 C 
ATOM     23  N   UNL     1      33.795   6.395  67.127  0.00  0.00    +0.379 N 
ATOM     24  C   UNL     1      33.405   7.766  66.768  0.00  0.00    -0.096 C 
ATOM     25  H   UNL     1      33.390   5.712  66.345  0.00  0.00    -0.082 HD
ATOM     26  C   UNL     1      35.303   6.198  67.176  0.00  0.00    -0.064 C 
ATOM     27  C   UNL     1      35.657   4.732  67.552  0.00  0.00    +0.066 C 
ENDBRANCH  19  20
ENDBRANCH  18  19
ENDBRANCH  14  15
ENDBRANCH  12  13
TORSDOF 6
ENDMDL
MODEL 4
REMARK VINA RESULT:      -8.3      3.775     13.012
REMARK  Name = C:\Users\Docking\Desktop\test protocol\1iep_ligandH.pdb
REMARK  8 active torsions:
REMARK  status: ('A' for Active; 'I' for Inactive)
REMARK    1  A    between atoms: _5  and  _11
REMARK    2  A    between atoms: _19  and  _21
REMARK    3  A    between atoms: _22  and  _66
REMARK    4  A    between atoms: _27  and  _30
REMARK    5  A    between atoms: _32  and  _33
REMARK    6  A    between atoms: _38  and  _43
REMARK    7  A    between atoms: _43  and  _46
REMARK    8  A    between atoms: _53  and  _55
REMARK                            x       y       z     vdW  Elec       q    Type
REMARK                         _______ _______ _______ _____ _____    ______ ____
ROOT
ATOM     10  C   UNL     1      48.467   0.338  86.954  0.00  0.00    +0.038 A 
ATOM     11  C   UNL     1      47.399   0.307  86.022  0.00  0.00    +0.047 A 
ATOM     12  C   UNL     1      46.184  -0.446  86.292  0.00  0.00    +0.035 A 
ATOM     32  C   UNL     1      46.090  -1.155  87.525  0.00  0.00    +0.024 A 
ATOM     33  C   UNL     1      47.167  -1.136  88.484  0.00  0.00    +0.007 A 
ATOM     34  C   UNL     1      48.368  -0.397  88.221  0.00  0.00    -0.029 A 
ATOM     35  C   UNL     1      49.493  -0.418  89.283  0.00  0.00    +0.045 C 
ENDROOT
BRANCH  10   9
ATOM      4  C   UNL     1      52.903   0.720  85.161  0.00  0.00    +0.077 A 
ATOM      5  C   UNL     1      52.958  -0.678  84.842  0.00  0.00    +0.048 A 
ATOM      6  C   UNL     1      51.827  -1.462  85.162  0.00  0.00    +0.116 A 
ATOM      7  N   UNL     1      50.728  -0.880  85.757  0.00  0.00    -0.223 NA
ATOM      8  C   UNL     1      50.708   0.470  86.052  0.00  0.00    +0.220 A 
ATOM      9  N   UNL     1      49.610   1.077  86.643  0.00  0.00    -0.283 N 
ATOM     36  H   UNL     1      49.637   2.075  86.852  0.00  0.00    +0.155 HD
ATOM     37  N   UNL     1      51.776   1.240  85.758  0.00  0.00    -0.214 NA
BRANCH   4   3
ATOM      1  C   UNL     1      55.279   3.824  85.298  0.00  0.00    +0.020 A 
ATOM      2  C   UNL     1      54.185   2.933  85.607  0.00  0.00    +0.013 A 
ATOM      3  C   UNL     1      54.017   1.679  84.881  0.00  0.00    +0.019 A 
ATOM     38  C   UNL     1      54.983   1.355  83.842  0.00  0.00    +0.120 A 
ATOM     39  N   UNL     1      56.025   2.234  83.565  0.00  0.00    -0.263 NA
ATOM     40  C   UNL     1      56.196   3.443  84.256  0.00  0.00    +0.111 A 
ENDBRANCH   4   3
ENDBRANCH  10   9
BRANCH  12  13
ATOM     13  N   UNL     1      45.070  -0.520  85.380  0.00  0.00    -0.281 N 
ATOM     14  C   UNL     1      43.841   0.109  85.484  0.00  0.00    +0.248 C 
ATOM     30  O   UNL     1      43.432   0.665  86.493  0.00  0.00    -0.270 OA
ATOM     31  H   UNL     1      45.205  -1.108  84.557  0.00  0.00    +0.155 HD
BRANCH  14  15
ATOM     15  C   UNL     1      42.926   0.108  84.302  0.00  0.00    +0.037 A 
ATOM     16  C   UNL     1      43.233  -0.679  83.105  0.00  0.00    +0.013 A 
ATOM     17  C   UNL     1      42.343  -0.649  81.972  0.00  0.00    +0.005 A 
ATOM     18  C   UNL     1      41.135   0.171  82.032  0.00  0.00    -0.033 A 
ATOM     28  C   UNL     1      40.852   0.938  83.234  0.00  0.00    +0.005 A 
ATOM     29  C   UNL     1      41.723   0.911  84.346  0.00  0.00    +0.013 A 
BRANCH  18  19
ATOM     19  C   UNL     1      40.139   0.280  80.862  0.00  0.00    +0.119 C 
BRANCH  19  20
ATOM     20  N   UNL     1      40.248   1.481  79.980  0.00  0.00    -0.302 NA
ATOM     21  C   UNL     1      38.896   2.173  79.783  0.00  0.00    +0.066 C 
ATOM     22  C   UNL     1      39.033   3.440  78.877  0.00  0.00    -0.064 C 
ATOM     23  N   UNL     1      39.637   3.038  77.531  0.00  0.00    +0.379 N 
ATOM     24  C   UNL     1      39.712   4.217  76.655  0.00  0.00    -0.096 C 
ATOM     25  H   UNL     1      38.943   2.306  77.054  0.00  0.00    -0.082 HD
ATOM     26  C   UNL     1      40.980   2.346  77.718  0.00  0.00    -0.064 C 
ATOM     27  C   UNL     1      40.838   1.106  78.643  0.00  0.00    +0.066 C 
ENDBRANCH  19  20
ENDBRANCH  18  19
ENDBRANCH  14  15
ENDBRANCH  12  13
TORSDOF 6
ENDMDL
MODEL 5
REMARK VINA RESULT:      -8.2      2.694      3.473
REMARK  Name = C:\Users\Docking\Desktop\test protocol\1iep_ligandH.pdb
REMARK  8 active torsions:
REMARK  status: ('A' for Active; 'I' for Inactive)
REMARK    1  A    between atoms: _5  and  _11
REMARK    2  A    between atoms: _19  and  _21
REMARK    3  A    between atoms: _22  and  _66
REMARK    4  A    between atoms: _27  and  _30
REMARK    5  A    between atoms: _32  and  _33
REMARK    6  A    between atoms: _38  and  _43
REMARK    7  A    between atoms: _43  and  _46
REMARK    8  A    between atoms: _53  and  _55
REMARK                            x       y       z     vdW  Elec       q    Type
REMARK                         _______ _______ _______ _____ _____    ______ ____
ROOT
ATOM     10  C   UNL     1      47.959  -0.473  86.594  0.00  0.00    +0.038 A 
ATOM     11  C   UNL     1      49.140   0.139  86.101  0.00  0.00    +0.047 A 
ATOM     12  C   UNL     1      50.368   0.140  86.880  0.00  0.00    +0.035 A 
ATOM     32  C   UNL     1      50.359  -0.494  88.157  0.00  0.00    +0.024 A 
ATOM     33  C   UNL     1      49.168  -1.120  88.674  0.00  0.00    +0.007 A 
ATOM     34  C   UNL     1      47.952  -1.121  87.911  0.00  0.00    -0.029 A 
ATOM     35  C   UNL     1      46.703  -1.802  88.518  0.00  0.00    +0.045 C 
ENDROOT
BRANCH  10   9
ATOM      4  C   UNL     1      45.014  -2.406  83.335  0.00  0.00    +0.077 A 
ATOM      5  C   UNL     1      45.853  -3.558  83.172  0.00  0.00    +0.048 A 
ATOM      6  C   UNL     1      47.038  -3.611  83.941  0.00  0.00    +0.116 A 
ATOM      7  N   UNL     1      47.349  -2.583  84.804  0.00  0.00    -0.223 NA
ATOM      8  C   UNL     1      46.518  -1.486  84.936  0.00  0.00    +0.220 A 
ATOM      9  N   UNL     1      46.808  -0.444  85.804  0.00  0.00    -0.283 N 
ATOM     36  H   UNL     1      46.173   0.351  85.867  0.00  0.00    +0.155 HD
ATOM     37  N   UNL     1      45.382  -1.410  84.212  0.00  0.00    -0.214 NA
BRANCH   4   3
ATOM      1  C   UNL     1      41.864  -0.760  81.700  0.00  0.00    +0.020 A 
ATOM      2  C   UNL     1      43.107  -0.898  82.424  0.00  0.00    +0.013 A 
ATOM      3  C   UNL     1      43.728  -2.206  82.595  0.00  0.00    +0.019 A 
ATOM     38  C   UNL     1      43.060  -3.362  82.016  0.00  0.00    +0.120 A 
ATOM     39  N   UNL     1      41.863  -3.198  81.326  0.00  0.00    -0.263 NA
ATOM     40  C   UNL     1      41.256  -1.945  81.156  0.00  0.00    +0.111 A 
ENDBRANCH   4   3
ENDBRANCH  10   9
BRANCH  12  13
ATOM     13  N   UNL     1      51.596   0.752  86.435  0.00  0.00    -0.281 N 
ATOM     14  C   UNL     1      52.420   0.351  85.397  0.00  0.00    +0.248 C 
ATOM     30  O   UNL     1      52.338  -0.727  84.826  0.00  0.00    -0.270 OA
ATOM     31  H   UNL     1      51.893   1.583  86.948  0.00  0.00    +0.155 HD
BRANCH  14  15
ATOM     15  C   UNL     1      53.501   1.273  84.935  0.00  0.00    +0.037 A 
ATOM     16  C   UNL     1      54.608   0.792  84.104  0.00  0.00    +0.013 A 
ATOM     17  C   UNL     1      55.647   1.700  83.686  0.00  0.00    +0.005 A 
ATOM     18  C   UNL     1      55.583   3.099  84.099  0.00  0.00    -0.033 A 
ATOM     28  C   UNL     1      54.472   3.551  84.920  0.00  0.00    +0.005 A 
ATOM     29  C   UNL     1      53.452   2.665  85.332  0.00  0.00    +0.013 A 
BRANCH  18  19
ATOM     19  C   UNL     1      56.659   4.133  83.718  0.00  0.00    +0.119 C 
BRANCH  19  20
ATOM     20  N   UNL     1      58.055   3.633  83.539  0.00  0.00    -0.302 NA
ATOM     21  C   UNL     1      58.755   3.391  84.879  0.00  0.00    +0.066 C 
ATOM     22  C   UNL     1      60.206   2.847  84.674  0.00  0.00    -0.064 C 
ATOM     23  N   UNL     1      61.002   3.835  83.819  0.00  0.00    +0.379 N 
ATOM     24  C   UNL     1      62.383   3.354  83.672  0.00  0.00    -0.096 C 
ATOM     25  H   UNL     1      61.037   4.805  84.367  0.00  0.00    -0.082 HD
ATOM     26  C   UNL     1      60.312   4.083  82.485  0.00  0.00    -0.064 C 
ATOM     27  C   UNL     1      58.860   4.596  82.700  0.00  0.00    +0.066 C 
ENDBRANCH  19  20
ENDBRANCH  18  19
ENDBRANCH  14  15
ENDBRANCH  12  13
TORSDOF 6
ENDMDL
