MODEL 1
REMARK VINA RESULT:      -8.6      0.000      0.000
REMARK  Name = C:\Users\Docking\Desktop\test protocol\1iep_ligandH.pdb
REMARK  8 active torsions:
REMARK  status: ('A' for Active; 'I' for Inactive)
REMARK    1  A    between atoms: _5  and  _11
REMARK    2  A    between atoms: _19  and  _21
REMARK    3  A    between atoms: _22  and  _66
REMARK    4  A    between atoms: _27  and  _30
REMARK    5  A    between atoms: _32  and  _33
REMARK    6  A    between atoms: _38  and  _43
REMARK    7  A    between atoms: _43  and  _46
REMARK    8  A    between atoms: _53  and  _55
REMARK                            x       y       z     vdW  Elec       q    Type
REMARK                         _______ _______ _______ _____ _____    ______ ____
ROOT
ATOM     10  C   UNL     1      29.707  -8.428  20.975  0.00  0.00    +0.038 A 
ATOM     11  C   UNL     1      29.222  -7.096  21.008  0.00  0.00    +0.047 A 
ATOM     12  C   UNL     1      30.116  -5.975  21.254  0.00  0.00    +0.035 A 
ATOM     32  C   UNL     1      31.500  -6.248  21.460  0.00  0.00    +0.024 A 
ATOM     33  C   UNL     1      32.010  -7.596  21.430  0.00  0.00    +0.007 A 
ATOM     34  C   UNL     1      31.133  -8.706  21.190  0.00  0.00    -0.029 A 
ATOM     35  C   UNL     1      31.734 -10.131  21.176  0.00  0.00    +0.045 C 
ENDROOT
BRANCH  10   9
ATOM      4  C   UNL     1      26.516 -11.691  22.460  0.00  0.00    +0.077 A 
ATOM      5  C   UNL     1      26.681 -11.314  23.834  0.00  0.00    +0.048 A 
ATOM      6  C   UNL     1      27.602 -10.281  24.117  0.00  0.00    +0.116 A 
ATOM      7  N   UNL     1      28.301  -9.677  23.094  0.00  0.00    -0.223 NA
ATOM      8  C   UNL     1      28.119 -10.066  21.779  0.00  0.00    +0.220 A 
ATOM      9  N   UNL     1      28.804  -9.466  20.734  0.00  0.00    -0.283 N 
ATOM     36  H   UNL     1      28.647  -9.787  19.779  0.00  0.00    +0.155 HD
ATOM     37  N   UNL     1      27.246 -11.051  21.483  0.00  0.00    -0.214 NA
BRANCH   4   3
ATOM      1  C   UNL     1      23.947 -13.751  20.348  0.00  0.00    +0.020 A 
ATOM      2  C   UNL     1      24.841 -12.688  20.745  0.00  0.00    +0.013 A 
ATOM      3  C   UNL     1      25.577 -12.764  22.001  0.00  0.00    +0.019 A 
ATOM     38  C   UNL     1      25.385 -13.938  22.838  0.00  0.00    +0.120 A 
ATOM     39  N   UNL     1      24.516 -14.946  22.430  0.00  0.00    -0.263 NA
ATOM     40  C   UNL     1      23.802 -14.883  21.225  0.00  0.00    +0.111 A 
ENDBRANCH   4   3
ENDBRANCH  10   9
BRANCH  12  13
ATOM     13  N   UNL     1      29.679  -4.602  21.307  0.00  0.00    -0.281 N 
ATOM     14  C   UNL     1      29.459  -3.822  22.430  0.00  0.00    +0.248 C 
ATOM     30  O   UNL     1      29.398  -4.255  23.572  0.00  0.00    -0.270 OA
ATOM     31  H   UNL     1      29.513  -4.151  20.408  0.00  0.00    +0.155 HD
BRANCH  14  15
ATOM     15  C   UNL     1      29.263  -2.350  22.260  0.00  0.00    +0.037 A 
ATOM     16  C   UNL     1      28.304  -1.819  21.287  0.00  0.00    +0.013 A 
ATOM     17  C   UNL     1      28.147  -0.394  21.131  0.00  0.00    +0.005 A 
ATOM     18  C   UNL     1      28.951   0.509  21.951  0.00  0.00    -0.033 A 
ATOM     28  C   UNL     1      29.890  -0.045  22.911  0.00  0.00    +0.005 A 
ATOM     29  C   UNL     1      30.048  -1.440  23.067  0.00  0.00    +0.013 A 
BRANCH  18  19
ATOM     19  C   UNL     1      28.864   2.043  21.836  0.00  0.00    +0.119 C 
BRANCH  19  20
ATOM     20  N   UNL     1      28.342   2.789  23.019  0.00  0.00    -0.302 NA
ATOM     21  C   UNL     1      27.256   3.795  22.631  0.00  0.00    +0.066 C 
ATOM     22  C   UNL     1      26.705   4.551  23.884  0.00  0.00    -0.064 C 
ATOM     23  N   UNL     1      27.860   5.251  24.602  0.00  0.00    +0.379 N 
ATOM     24  C   UNL     1      27.337   6.010  25.748  0.00  0.00    -0.096 C 
ATOM     25  H   UNL     1      28.309   5.981  23.889  0.00  0.00    -0.082 HD
ATOM     26  C   UNL     1      28.946   4.258  24.990  0.00  0.00    -0.064 C 
ATOM     27  C   UNL     1      29.466   3.491  23.741  0.00  0.00    +0.066 C 
ENDBRANCH  19  20
ENDBRANCH  18  19
ENDBRANCH  14  15
ENDBRANCH  12  13
TORSDOF 6
ENDMDL
MODEL 2
REMARK VINA RESULT:      -8.2     21.468     23.575
REMARK  Name = C:\Users\Docking\Desktop\test protocol\1iep_ligandH.pdb
REMARK  8 active torsions:
REMARK  status: ('A' for Active; 'I' for Inactive)
REMARK    1  A    between atoms: _5  and  _11
REMARK    2  A    between atoms: _19  and  _21
REMARK    3  A    between atoms: _22  and  _66
REMARK    4  A    between atoms: _27  and  _30
REMARK    5  A    between atoms: _32  and  _33
REMARK    6  A    between atoms: _38  and  _43
REMARK    7  A    between atoms: _43  and  _46
REMARK    8  A    between atoms: _53  and  _55
REMARK                            x       y       z     vdW  Elec       q    Type
REMARK                         _______ _______ _______ _____ _____    ______ ____
ROOT
ATOM     10  C   UNL     1       6.030   0.389  12.937  0.00  0.00    +0.038 A 
ATOM     11  C   UNL     1       6.906   1.421  12.512  0.00  0.00    +0.047 A 
ATOM     12  C   UNL     1       6.475   2.425  11.551  0.00  0.00    +0.035 A 
ATOM     32  C   UNL     1       5.145   2.349  11.046  0.00  0.00    +0.024 A 
ATOM     33  C   UNL     1       4.242   1.307  11.466  0.00  0.00    +0.007 A 
ATOM     34  C   UNL     1       4.662   0.313  12.412  0.00  0.00    -0.029 A 
ATOM     35  C   UNL     1       3.653  -0.785  12.823  0.00  0.00    +0.045 C 
ENDROOT
BRANCH  10   9
ATOM      4  C   UNL     1       8.161  -3.767  14.044  0.00  0.00    +0.077 A 
ATOM      5  C   UNL     1       8.338  -4.112  12.663  0.00  0.00    +0.048 A 
ATOM      6  C   UNL     1       7.859  -3.196  11.699  0.00  0.00    +0.116 A 
ATOM      7  N   UNL     1       7.252  -2.025  12.098  0.00  0.00    -0.223 NA
ATOM      8  C   UNL     1       7.097  -1.723  13.438  0.00  0.00    +0.220 A 
ATOM      9  N   UNL     1       6.496  -0.548  13.862  0.00  0.00    -0.283 N 
ATOM     36  H   UNL     1       6.393  -0.366  14.860  0.00  0.00    +0.155 HD
ATOM     37  N   UNL     1       7.543  -2.582  14.378  0.00  0.00    -0.214 NA
BRANCH   4   3
ATOM      1  C   UNL     1      10.247  -6.217  16.267  0.00  0.00    +0.020 A 
ATOM      2  C   UNL     1       9.853  -5.400  15.143  0.00  0.00    +0.013 A 
ATOM      3  C   UNL     1       8.616  -4.630  15.179  0.00  0.00    +0.019 A 
ATOM     38  C   UNL     1       7.794  -4.709  16.378  0.00  0.00    +0.120 A 
ATOM     39  N   UNL     1       8.198  -5.506  17.444  0.00  0.00    -0.263 NA
ATOM     40  C   UNL     1       9.386  -6.253  17.420  0.00  0.00    +0.111 A 
ENDBRANCH   4   3
ENDBRANCH  10   9
BRANCH  12  13
ATOM     13  N   UNL     1       7.323   3.490  11.076  0.00  0.00    -0.281 N 
ATOM     14  C   UNL     1       7.287   4.829  11.430  0.00  0.00    +0.248 C 
ATOM     30  O   UNL     1       6.377   5.355  12.054  0.00  0.00    -0.270 OA
ATOM     31  H   UNL     1       8.035   3.226  10.395  0.00  0.00    +0.155 HD
BRANCH  14  15
ATOM     15  C   UNL     1       8.419   5.715  11.021  0.00  0.00    +0.037 A 
ATOM     16  C   UNL     1       8.832   5.821   9.619  0.00  0.00    +0.013 A 
ATOM     17  C   UNL     1       9.939   6.670   9.254  0.00  0.00    +0.005 A 
ATOM     18  C   UNL     1      10.639   7.420  10.293  0.00  0.00    -0.033 A 
ATOM     28  C   UNL     1      10.206   7.300  11.675  0.00  0.00    +0.005 A 
ATOM     29  C   UNL     1       9.122   6.468  12.037  0.00  0.00    +0.013 A 
BRANCH  18  19
ATOM     19  C   UNL     1      11.844   8.333   9.997  0.00  0.00    +0.119 C 
BRANCH  19  20
ATOM     20  N   UNL     1      13.165   7.673   9.777  0.00  0.00    -0.302 NA
ATOM     21  C   UNL     1      13.175   6.815   8.509  0.00  0.00    +0.066 C 
ATOM     22  C   UNL     1      14.571   6.149   8.283  0.00  0.00    -0.064 C 
ATOM     23  N   UNL     1      14.937   5.310   9.507  0.00  0.00    +0.379 N 
ATOM     24  C   UNL     1      16.223   4.636   9.274  0.00  0.00    -0.096 C 
ATOM     25  H   UNL     1      14.158   4.521   9.622  0.00  0.00    -0.082 HD
ATOM     26  C   UNL     1      14.928   6.155  10.773  0.00  0.00    -0.064 C 
ATOM     27  C   UNL     1      13.545   6.835  10.973  0.00  0.00    +0.066 C 
ENDBRANCH  19  20
ENDBRANCH  18  19
ENDBRANCH  14  15
ENDBRANCH  12  13
TORSDOF 6
ENDMDL
MODEL 3
REMARK VINA RESULT:      -7.9     22.788     26.552
REMARK  Name = C:\Users\Docking\Desktop\test protocol\1iep_ligandH.pdb
REMARK  8 active torsions:
REMARK  status: ('A' for Active; 'I' for Inactive)
REMARK    1  A    between atoms: _5  and  _11
REMARK    2  A    between atoms: _19  and  _21
REMARK    3  A    between atoms: _22  and  _66
REMARK    4  A    between atoms: _27  and  _30
REMARK    5  A    between atoms: _32  and  _33
REMARK    6  A    between atoms: _38  and  _43
REMARK    7  A    between atoms: _43  and  _46
REMARK    8  A    between atoms: _53  and  _55
REMARK                            x       y       z     vdW  Elec       q    Type
REMARK                         _______ _______ _______ _____ _____    ______ ____
ROOT
ATOM     10  C   UNL     1       3.040   5.122  19.785  0.00  0.00    +0.038 A 
ATOM     11  C   UNL     1       3.995   5.544  20.745  0.00  0.00    +0.047 A 
ATOM     12  C   UNL     1       3.583   6.074  22.035  0.00  0.00    +0.035 A 
ATOM     32  C   UNL     1       2.188   6.158  22.316  0.00  0.00    +0.024 A 
ATOM     33  C   UNL     1       1.203   5.735  21.352  0.00  0.00    +0.007 A 
ATOM     34  C   UNL     1       1.604   5.213  20.077  0.00  0.00    -0.029 A 
ATOM     35  C   UNL     1       0.504   4.780  19.080  0.00  0.00    +0.045 C 
ENDROOT
BRANCH  10   9
ATOM      4  C   UNL     1       4.376   5.693  15.211  0.00  0.00    +0.077 A 
ATOM      5  C   UNL     1       4.128   7.105  15.253  0.00  0.00    +0.048 A 
ATOM      6  C   UNL     1       3.650   7.644  16.468  0.00  0.00    +0.116 A 
ATOM      7  N   UNL     1       3.440   6.823  17.555  0.00  0.00    -0.223 NA
ATOM      8  C   UNL     1       3.688   5.465  17.480  0.00  0.00    +0.220 A 
ATOM      9  N   UNL     1       3.492   4.621  18.563  0.00  0.00    -0.283 N 
ATOM     36  H   UNL     1       3.679   3.624  18.465  0.00  0.00    +0.155 HD
ATOM     37  N   UNL     1       4.144   4.925  16.330  0.00  0.00    -0.214 NA
BRANCH   4   3
ATOM      1  C   UNL     1       5.768   4.926  11.637  0.00  0.00    +0.020 A 
ATOM      2  C   UNL     1       5.282   5.666  12.778  0.00  0.00    +0.013 A 
ATOM      3  C   UNL     1       4.886   4.976  14.000  0.00  0.00    +0.019 A 
ATOM     38  C   UNL     1       4.997   3.526  14.034  0.00  0.00    +0.120 A 
ATOM     39  N   UNL     1       5.468   2.840  12.919  0.00  0.00    -0.263 NA
ATOM     40  C   UNL     1       5.849   3.493  11.737  0.00  0.00    +0.111 A 
ENDBRANCH   4   3
ENDBRANCH  10   9
BRANCH  12  13
ATOM     13  N   UNL     1       4.507   6.526  23.045  0.00  0.00    -0.281 N 
ATOM     14  C   UNL     1       5.718   7.174  22.863  0.00  0.00    +0.248 C 
ATOM     30  O   UNL     1       6.293   7.275  21.790  0.00  0.00    -0.270 OA
ATOM     31  H   UNL     1       4.236   6.346  24.012  0.00  0.00    +0.155 HD
BRANCH  14  15
ATOM     15  C   UNL     1       6.394   7.788  24.047  0.00  0.00    +0.037 A 
ATOM     16  C   UNL     1       6.587   9.236  24.145  0.00  0.00    +0.013 A 
ATOM     17  C   UNL     1       7.258   9.800  25.290  0.00  0.00    +0.005 A 
ATOM     18  C   UNL     1       7.738   8.914  26.347  0.00  0.00    -0.033 A 
ATOM     28  C   UNL     1       7.528   7.481  26.226  0.00  0.00    +0.005 A 
ATOM     29  C   UNL     1       6.873   6.924  25.105  0.00  0.00    +0.013 A 
BRANCH  18  19
ATOM     19  C   UNL     1       8.483   9.426  27.594  0.00  0.00    +0.119 C 
BRANCH  19  20
ATOM     20  N   UNL     1       9.952   9.170  27.667  0.00  0.00    -0.302 NA
ATOM     21  C   UNL     1      10.510   9.416  29.071  0.00  0.00    +0.066 C 
ATOM     22  C   UNL     1      12.044   9.122  29.134  0.00  0.00    -0.064 C 
ATOM     23  N   UNL     1      12.770   9.989  28.104  0.00  0.00    +0.379 N 
ATOM     24  C   UNL     1      14.218   9.757  28.201  0.00  0.00    -0.096 C 
ATOM     25  H   UNL     1      12.579  11.056  28.366  0.00  0.00    -0.082 HD
ATOM     26  C   UNL     1      12.220   9.752  26.705  0.00  0.00    -0.064 C 
ATOM     27  C   UNL     1      10.689  10.019  26.660  0.00  0.00    +0.066 C 
ENDBRANCH  19  20
ENDBRANCH  18  19
ENDBRANCH  14  15
ENDBRANCH  12  13
TORSDOF 6
ENDMDL
MODEL 4
REMARK VINA RESULT:      -7.9     23.522     25.631
REMARK  Name = C:\Users\Docking\Desktop\test protocol\1iep_ligandH.pdb
REMARK  8 active torsions:
REMARK  status: ('A' for Active; 'I' for Inactive)
REMARK    1  A    between atoms: _5  and  _11
REMARK    2  A    between atoms: _19  and  _21
REMARK    3  A    between atoms: _22  and  _66
REMARK    4  A    between atoms: _27  and  _30
REMARK    5  A    between atoms: _32  and  _33
REMARK    6  A    between atoms: _38  and  _43
REMARK    7  A    between atoms: _43  and  _46
REMARK    8  A    between atoms: _53  and  _55
REMARK                            x       y       z     vdW  Elec       q    Type
REMARK                         _______ _______ _______ _____ _____    ______ ____
ROOT
ATOM     10  C   UNL     1       4.036  -2.141  15.561  0.00  0.00    +0.038 A 
ATOM     11  C   UNL     1       4.252  -0.778  15.889  0.00  0.00    +0.047 A 
ATOM     12  C   UNL     1       3.459   0.278  15.278  0.00  0.00    +0.035 A 
ATOM     32  C   UNL     1       2.453  -0.091  14.339  0.00  0.00    +0.024 A 
ATOM     33  C   UNL     1       2.221  -1.471  13.993  0.00  0.00    +0.007 A 
ATOM     34  C   UNL     1       3.001  -2.517  14.591  0.00  0.00    -0.029 A 
ATOM     35  C   UNL     1       2.713  -3.979  14.178  0.00  0.00    +0.045 C 
ENDROOT
BRANCH  10   9
ATOM      4  C   UNL     1       8.092  -4.678  15.948  0.00  0.00    +0.077 A 
ATOM      5  C   UNL     1       8.675  -4.031  14.808  0.00  0.00    +0.048 A 
ATOM      6  C   UNL     1       7.896  -3.056  14.146  0.00  0.00    +0.116 A 
ATOM      7  N   UNL     1       6.629  -2.758  14.599  0.00  0.00    -0.223 NA
ATOM      8  C   UNL     1       6.096  -3.402  15.700  0.00  0.00    +0.220 A 
ATOM      9  N   UNL     1       4.827  -3.113  16.178  0.00  0.00    -0.283 N 
ATOM     36  H   UNL     1       4.467  -3.615  16.989  0.00  0.00    +0.155 HD
ATOM     37  N   UNL     1       6.819  -4.338  16.349  0.00  0.00    -0.214 NA
BRANCH   4   3
ATOM      1  C   UNL     1      10.866  -6.920  17.554  0.00  0.00    +0.020 A 
ATOM      2  C   UNL     1      10.240  -5.891  16.757  0.00  0.00    +0.013 A 
ATOM      3  C   UNL     1       8.792  -5.728  16.754  0.00  0.00    +0.019 A 
ATOM     38  C   UNL     1       7.999  -6.630  17.577  0.00  0.00    +0.120 A 
ATOM     39  N   UNL     1       8.630  -7.613  18.333  0.00  0.00    -0.263 NA
ATOM     40  C   UNL     1      10.023  -7.780  18.342  0.00  0.00    +0.111 A 
ENDBRANCH   4   3
ENDBRANCH  10   9
BRANCH  12  13
ATOM     13  N   UNL     1       3.638   1.679  15.566  0.00  0.00    -0.281 N 
ATOM     14  C   UNL     1       4.669   2.508  15.154  0.00  0.00    +0.248 C 
ATOM     30  O   UNL     1       5.711   2.117  14.649  0.00  0.00    -0.270 OA
ATOM     31  H   UNL     1       2.918   2.113  16.143  0.00  0.00    +0.155 HD
BRANCH  14  15
ATOM     15  C   UNL     1       4.528   3.984  15.342  0.00  0.00    +0.037 A 
ATOM     16  C   UNL     1       5.058   4.652  16.533  0.00  0.00    +0.013 A 
ATOM     17  C   UNL     1       4.893   6.075  16.699  0.00  0.00    +0.005 A 
ATOM     18  C   UNL     1       4.195   6.839  15.668  0.00  0.00    -0.033 A 
ATOM     28  C   UNL     1       3.683   6.152  14.494  0.00  0.00    +0.005 A 
ATOM     29  C   UNL     1       3.842   4.758  14.329  0.00  0.00    +0.013 A 
BRANCH  18  19
ATOM     19  C   UNL     1       3.955   8.357  15.772  0.00  0.00    +0.119 C 
BRANCH  19  20
ATOM     20  N   UNL     1       2.600   8.862  15.399  0.00  0.00    -0.302 NA
ATOM     21  C   UNL     1       2.669  10.195  14.648  0.00  0.00    +0.066 C 
ATOM     22  C   UNL     1       1.244  10.697  14.246  0.00  0.00    -0.064 C 
ATOM     23  N   UNL     1       0.380  10.827  15.501  0.00  0.00    +0.379 N 
ATOM     24  C   UNL     1      -0.943  11.354  15.133  0.00  0.00    -0.096 C 
ATOM     25  H   UNL     1       0.867  11.573  16.171  0.00  0.00    -0.082 HD
ATOM     26  C   UNL     1       0.307   9.507  16.255  0.00  0.00    -0.064 C 
ATOM     27  C   UNL     1       1.730   9.002  16.624  0.00  0.00    +0.066 C 
ENDBRANCH  19  20
ENDBRANCH  18  19
ENDBRANCH  14  15
ENDBRANCH  12  13
TORSDOF 6
ENDMDL
MODEL 5
REMARK VINA RESULT:      -7.9     24.346     28.291
REMARK  Name = C:\Users\Docking\Desktop\test protocol\1iep_ligandH.pdb
REMARK  8 active torsions:
REMARK  status: ('A' for Active; 'I' for Inactive)
REMARK    1  A    between atoms: _5  and  _11
REMARK    2  A    between atoms: _19  and  _21
REMARK    3  A    between atoms: _22  and  _66
REMARK    4  A    between atoms: _27  and  _30
REMARK    5  A    between atoms: _32  and  _33
REMARK    6  A    between atoms: _38  and  _43
REMARK    7  A    between atoms: _43  and  _46
REMARK    8  A    between atoms: _53  and  _55
REMARK                            x       y       z     vdW  Elec       q    Type
REMARK                         _______ _______ _______ _____ _____    ______ ____
ROOT
ATOM     10  C   UNL     1       9.318   9.154  28.603  0.00  0.00    +0.038 A 
ATOM     11  C   UNL     1       8.389   8.530  27.733  0.00  0.00    +0.047 A 
ATOM     12  C   UNL     1       8.706   8.303  26.331  0.00  0.00    +0.035 A 
ATOM     32  C   UNL     1       9.980   8.722  25.850  0.00  0.00    +0.024 A 
ATOM     33  C   UNL     1      10.936   9.360  26.721  0.00  0.00    +0.007 A 
ATOM     34  C   UNL     1      10.628   9.589  28.103  0.00  0.00    -0.029 A 
ATOM     35  C   UNL     1      11.689  10.282  28.989  0.00  0.00    +0.045 C 
ENDROOT
BRANCH  10   9
ATOM      4  C   UNL     1       6.798  11.372  32.034  0.00  0.00    +0.077 A 
ATOM      5  C   UNL     1       6.158  12.238  31.086  0.00  0.00    +0.048 A 
ATOM      6  C   UNL     1       6.510  12.085  29.726  0.00  0.00    +0.116 A 
ATOM      7  N   UNL     1       7.434  11.134  29.353  0.00  0.00    -0.223 NA
ATOM      8  C   UNL     1       8.035  10.316  30.293  0.00  0.00    +0.220 A 
ATOM      9  N   UNL     1       8.962   9.347  29.940  0.00  0.00    -0.283 N 
ATOM     36  H   UNL     1       9.388   8.769  30.664  0.00  0.00    +0.155 HD
ATOM     37  N   UNL     1       7.717  10.443  31.598  0.00  0.00    -0.214 NA
BRANCH   4   3
ATOM      1  C   UNL     1       5.093  11.971  35.503  0.00  0.00    +0.020 A 
ATOM      2  C   UNL     1       5.304  11.959  34.074  0.00  0.00    +0.013 A 
ATOM      3  C   UNL     1       6.529  11.410  33.506  0.00  0.00    +0.019 A 
ATOM     38  C   UNL     1       7.528  10.876  34.419  0.00  0.00    +0.120 A 
ATOM     39  N   UNL     1       7.298  10.902  35.791  0.00  0.00    -0.263 NA
ATOM     40  C   UNL     1       6.124  11.430  36.349  0.00  0.00    +0.111 A 
ENDBRANCH   4   3
ENDBRANCH  10   9
BRANCH  12  13
ATOM     13  N   UNL     1       7.799   7.681  25.398  0.00  0.00    -0.281 N 
ATOM     14  C   UNL     1       6.638   8.209  24.858  0.00  0.00    +0.248 C 
ATOM     30  O   UNL     1       6.087   9.222  25.262  0.00  0.00    -0.270 OA
ATOM     31  H   UNL     1       8.043   6.736  25.100  0.00  0.00    +0.155 HD
BRANCH  14  15
ATOM     15  C   UNL     1       5.988   7.502  23.713  0.00  0.00    +0.037 A 
ATOM     16  C   UNL     1       6.785   6.835  22.680  0.00  0.00    +0.013 A 
ATOM     17  C   UNL     1       6.133   6.175  21.577  0.00  0.00    +0.005 A 
ATOM     18  C   UNL     1       4.674   6.178  21.502  0.00  0.00    -0.033 A 
ATOM     28  C   UNL     1       3.907   6.843  22.542  0.00  0.00    +0.005 A 
ATOM     29  C   UNL     1       4.543   7.492  23.625  0.00  0.00    +0.013 A 
BRANCH  18  19
ATOM     19  C   UNL     1       3.894   5.517  20.350  0.00  0.00    +0.119 C 
BRANCH  19  20
ATOM     20  N   UNL     1       4.437   5.691  18.969  0.00  0.00    -0.302 NA
ATOM     21  C   UNL     1       3.464   6.450  18.061  0.00  0.00    +0.066 C 
ATOM     22  C   UNL     1       4.057   6.643  16.628  0.00  0.00    -0.064 C 
ATOM     23  N   UNL     1       4.399   5.276  16.032  0.00  0.00    +0.379 N 
ATOM     24  C   UNL     1       4.902   5.450  14.662  0.00  0.00    -0.096 C 
ATOM     25  H   UNL     1       3.454   4.687  15.973  0.00  0.00    -0.082 HD
ATOM     26  C   UNL     1       5.363   4.514  16.930  0.00  0.00    -0.064 C 
ATOM     27  C   UNL     1       4.777   4.353  18.360  0.00  0.00    +0.066 C 
ENDBRANCH  19  20
ENDBRANCH  18  19
ENDBRANCH  14  15
ENDBRANCH  12  13
TORSDOF 6
ENDMDL
