MODEL 1
REMARK VINA RESULT:      -7.9      0.000      0.000
REMARK  Name = C:\Users\Docking\Desktop\test protocol\1iep_ligandH.pdb
REMARK  8 active torsions:
REMARK  status: ('A' for Active; 'I' for Inactive)
REMARK    1  A    between atoms: _5  and  _11
REMARK    2  A    between atoms: _19  and  _21
REMARK    3  A    between atoms: _22  and  _66
REMARK    4  A    between atoms: _27  and  _30
REMARK    5  A    between atoms: _32  and  _33
REMARK    6  A    between atoms: _38  and  _43
REMARK    7  A    between atoms: _43  and  _46
REMARK    8  A    between atoms: _53  and  _55
REMARK                            x       y       z     vdW  Elec       q    Type
REMARK                         _______ _______ _______ _____ _____    ______ ____
ROOT
ATOM     10  C   UNL     1      20.752  23.284  17.738  0.00  0.00    +0.038 A 
ATOM     11  C   UNL     1      20.447  24.574  17.235  0.00  0.00    +0.047 A 
ATOM     12  C   UNL     1      21.139  25.112  16.074  0.00  0.00    +0.035 A 
ATOM     32  C   UNL     1      22.134  24.307  15.448  0.00  0.00    +0.024 A 
ATOM     33  C   UNL     1      22.458  22.994  15.947  0.00  0.00    +0.007 A 
ATOM     34  C   UNL     1      21.780  22.459  17.093  0.00  0.00    -0.029 A 
ATOM     35  C   UNL     1      22.173  21.047  17.588  0.00  0.00    +0.045 C 
ENDROOT
BRANCH  10   9
ATOM      4  C   UNL     1      20.459  22.261  22.418  0.00  0.00    +0.077 A 
ATOM      5  C   UNL     1      21.815  22.666  22.652  0.00  0.00    +0.048 A 
ATOM      6  C   UNL     1      22.556  23.125  21.540  0.00  0.00    +0.116 A 
ATOM      7  N   UNL     1      21.974  23.171  20.292  0.00  0.00    -0.223 NA
ATOM      8  C   UNL     1      20.664  22.771  20.100  0.00  0.00    +0.220 A 
ATOM      9  N   UNL     1      20.056  22.816  18.855  0.00  0.00    -0.283 N 
ATOM     36  H   UNL     1      19.090  22.506  18.754  0.00  0.00    +0.155 HD
ATOM     37  N   UNL     1      19.936  22.328  21.146  0.00  0.00    -0.214 NA
BRANCH   4   3
ATOM      1  C   UNL     1      17.351  21.735  24.735  0.00  0.00    +0.020 A 
ATOM      2  C   UNL     1      18.192  22.257  23.682  0.00  0.00    +0.013 A 
ATOM      3  C   UNL     1      19.547  21.756  23.493  0.00  0.00    +0.019 A 
ATOM     38  C   UNL     1      20.026  20.718  24.393  0.00  0.00    +0.120 A 
ATOM     39  N   UNL     1      19.195  20.235  25.400  0.00  0.00    -0.263 NA
ATOM     40  C   UNL     1      17.889  20.711  25.592  0.00  0.00    +0.111 A 
ENDBRANCH   4   3
ENDBRANCH  10   9
BRANCH  12  13
ATOM     13  N   UNL     1      20.877  26.419  15.524  0.00  0.00    -0.281 N 
ATOM     14  C   UNL     1      20.004  26.753  14.502  0.00  0.00    +0.248 C 
ATOM     30  O   UNL     1      19.469  25.945  13.758  0.00  0.00    -0.270 OA
ATOM     31  H   UNL     1      21.399  27.191  15.937  0.00  0.00    +0.155 HD
BRANCH  14  15
ATOM     15  C   UNL     1      19.690  28.195  14.263  0.00  0.00    +0.037 A 
ATOM     16  C   UNL     1      18.412  28.608  13.677  0.00  0.00    +0.013 A 
ATOM     17  C   UNL     1      18.142  30.004  13.441  0.00  0.00    +0.005 A 
ATOM     18  C   UNL     1      19.153  30.998  13.793  0.00  0.00    -0.033 A 
ATOM     28  C   UNL     1      20.410  30.562  14.377  0.00  0.00    +0.005 A 
ATOM     29  C   UNL     1      20.679  29.194  14.609  0.00  0.00    +0.013 A 
BRANCH  18  19
ATOM     19  C   UNL     1      18.958  32.508  13.557  0.00  0.00    +0.119 C 
BRANCH  19  20
ATOM     20  N   UNL     1      18.077  33.242  14.513  0.00  0.00    -0.302 NA
ATOM     21  C   UNL     1      18.237  32.733  15.948  0.00  0.00    +0.066 C 
ATOM     22  C   UNL     1      17.324  33.527  16.939  0.00  0.00    -0.064 C 
ATOM     23  N   UNL     1      15.867  33.417  16.485  0.00  0.00    +0.379 N 
ATOM     24  C   UNL     1      15.000  34.113  17.446  0.00  0.00    -0.096 C 
ATOM     25  H   UNL     1      15.589  32.337  16.498  0.00  0.00    -0.082 HD
ATOM     26  C   UNL     1      15.699  33.918  15.057  0.00  0.00    -0.064 C 
ATOM     27  C   UNL     1      16.633  33.143  14.086  0.00  0.00    +0.066 C 
ENDBRANCH  19  20
ENDBRANCH  18  19
ENDBRANCH  14  15
ENDBRANCH  12  13
TORSDOF 6
ENDMDL
MODEL 2
REMARK VINA RESULT:      -7.9     10.833     15.817
REMARK  Name = C:\Users\Docking\Desktop\test protocol\1iep_ligandH.pdb
REMARK  8 active torsions:
REMARK  status: ('A' for Active; 'I' for Inactive)
REMARK    1  A    between atoms: _5  and  _11
REMARK    2  A    between atoms: _19  and  _21
REMARK    3  A    between atoms: _22  and  _66
REMARK    4  A    between atoms: _27  and  _30
REMARK    5  A    between atoms: _32  and  _33
REMARK    6  A    between atoms: _38  and  _43
REMARK    7  A    between atoms: _43  and  _46
REMARK    8  A    between atoms: _53  and  _55
REMARK                            x       y       z     vdW  Elec       q    Type
REMARK                         _______ _______ _______ _____ _____    ______ ____
ROOT
ATOM     10  C   UNL     1      18.097  20.297  26.656  0.00  0.00    +0.038 A 
ATOM     11  C   UNL     1      19.190  19.400  26.549  0.00  0.00    +0.047 A 
ATOM     12  C   UNL     1      20.047  19.395  25.373  0.00  0.00    +0.035 A 
ATOM     32  C   UNL     1      19.763  20.320  24.327  0.00  0.00    +0.024 A 
ATOM     33  C   UNL     1      18.655  21.238  24.419  0.00  0.00    +0.007 A 
ATOM     34  C   UNL     1      17.805  21.246  25.575  0.00  0.00    -0.029 A 
ATOM     35  C   UNL     1      16.627  22.247  25.617  0.00  0.00    +0.045 C 
ENDROOT
BRANCH  10   9
ATOM      4  C   UNL     1      14.104  19.050  29.010  0.00  0.00    +0.077 A 
ATOM      5  C   UNL     1      13.532  18.448  27.841  0.00  0.00    +0.048 A 
ATOM      6  C   UNL     1      14.294  18.487  26.652  0.00  0.00    +0.116 A 
ATOM      7  N   UNL     1      15.536  19.085  26.645  0.00  0.00    -0.223 NA
ATOM      8  C   UNL     1      16.058  19.658  27.790  0.00  0.00    +0.220 A 
ATOM      9  N   UNL     1      17.307  20.258  27.808  0.00  0.00    -0.283 N 
ATOM     36  H   UNL     1      17.653  20.676  28.671  0.00  0.00    +0.155 HD
ATOM     37  N   UNL     1      15.349  19.635  28.938  0.00  0.00    -0.214 NA
BRANCH   4   3
ATOM      1  C   UNL     1      11.384  18.901  31.817  0.00  0.00    +0.020 A 
ATOM      2  C   UNL     1      11.993  18.855  30.508  0.00  0.00    +0.013 A 
ATOM      3  C   UNL     1      13.423  19.086  30.343  0.00  0.00    +0.019 A 
ATOM     38  C   UNL     1      14.214  19.362  31.532  0.00  0.00    +0.120 A 
ATOM     39  N   UNL     1      13.600  19.402  32.780  0.00  0.00    -0.263 NA
ATOM     40  C   UNL     1      12.225  19.183  32.951  0.00  0.00    +0.111 A 
ENDBRANCH   4   3
ENDBRANCH  10   9
BRANCH  12  13
ATOM     13  N   UNL     1      21.167  18.503  25.205  0.00  0.00    -0.281 N 
ATOM     14  C   UNL     1      22.180  18.228  26.108  0.00  0.00    +0.248 C 
ATOM     30  O   UNL     1      22.396  18.874  27.123  0.00  0.00    -0.270 OA
ATOM     31  H   UNL     1      21.218  18.014  24.311  0.00  0.00    +0.155 HD
BRANCH  14  15
ATOM     15  C   UNL     1      23.096  17.078  25.838  0.00  0.00    +0.037 A 
ATOM     16  C   UNL     1      22.693  15.700  26.131  0.00  0.00    +0.013 A 
ATOM     17  C   UNL     1      23.602  14.611  25.877  0.00  0.00    +0.005 A 
ATOM     18  C   UNL     1      24.924  14.896  25.325  0.00  0.00    -0.033 A 
ATOM     28  C   UNL     1      25.296  16.271  25.038  0.00  0.00    +0.005 A 
ATOM     29  C   UNL     1      24.408  17.341  25.287  0.00  0.00    +0.013 A 
BRANCH  18  19
ATOM     19  C   UNL     1      25.966  13.797  25.041  0.00  0.00    +0.119 C 
BRANCH  19  20
ATOM     20  N   UNL     1      27.036  14.110  24.047  0.00  0.00    -0.302 NA
ATOM     21  C   UNL     1      26.725  13.525  22.666  0.00  0.00    +0.066 C 
ATOM     22  C   UNL     1      27.843  13.880  21.633  0.00  0.00    -0.064 C 
ATOM     23  N   UNL     1      29.190  13.369  22.147  0.00  0.00    +0.379 N 
ATOM     24  C   UNL     1      30.234  13.651  21.151  0.00  0.00    -0.096 C 
ATOM     25  H   UNL     1      29.113  12.262  22.253  0.00  0.00    -0.082 HD
ATOM     26  C   UNL     1      29.506  13.944  23.521  0.00  0.00    -0.064 C 
ATOM     27  C   UNL     1      28.374  13.610  24.533  0.00  0.00    +0.066 C 
ENDBRANCH  19  20
ENDBRANCH  18  19
ENDBRANCH  14  15
ENDBRANCH  12  13
TORSDOF 6
ENDMDL
MODEL 3
REMARK VINA RESULT:      -7.9      6.869     12.618
REMARK  Name = C:\Users\Docking\Desktop\test protocol\1iep_ligandH.pdb
REMARK  8 active torsions:
REMARK  status: ('A' for Active; 'I' for Inactive)
REMARK    1  A    between atoms: _5  and  _11
REMARK    2  A    between atoms: _19  and  _21
REMARK    3  A    between atoms: _22  and  _66
REMARK    4  A    between atoms: _27  and  _30
REMARK    5  A    between atoms: _32  and  _33
REMARK    6  A    between atoms: _38  and  _43
REMARK    7  A    between atoms: _43  and  _46
REMARK    8  A    between atoms: _53  and  _55
REMARK                            x       y       z     vdW  Elec       q    Type
REMARK                         _______ _______ _______ _____ _____    ______ ____
ROOT
ATOM     10  C   UNL     1      15.909  19.523  29.388  0.00  0.00    +0.038 A 
ATOM     11  C   UNL     1      16.756  19.900  28.315  0.00  0.00    +0.047 A 
ATOM     12  C   UNL     1      16.259  19.957  26.949  0.00  0.00    +0.035 A 
ATOM     32  C   UNL     1      14.892  19.627  26.713  0.00  0.00    +0.024 A 
ATOM     33  C   UNL     1      14.018  19.241  27.793  0.00  0.00    +0.007 A 
ATOM     34  C   UNL     1      14.504  19.180  29.141  0.00  0.00    -0.029 A 
ATOM     35  C   UNL     1      13.523  18.753  30.259  0.00  0.00    +0.045 C 
ENDROOT
BRANCH  10   9
ATOM      4  C   UNL     1      18.776  17.615  32.732  0.00  0.00    +0.077 A 
ATOM      5  C   UNL     1      19.236  16.592  31.838  0.00  0.00    +0.048 A 
ATOM      6  C   UNL     1      18.705  16.587  30.529  0.00  0.00    +0.116 A 
ATOM      7  N   UNL     1      17.784  17.540  30.152  0.00  0.00    -0.223 NA
ATOM      8  C   UNL     1      17.360  18.512  31.040  0.00  0.00    +0.220 A 
ATOM      9  N   UNL     1      16.439  19.484  30.680  0.00  0.00    -0.283 N 
ATOM     36  H   UNL     1      16.146  20.180  31.366  0.00  0.00    +0.155 HD
ATOM     37  N   UNL     1      17.850  18.537  32.296  0.00  0.00    -0.214 NA
BRANCH   4   3
ATOM      1  C   UNL     1      19.345  18.957  36.362  0.00  0.00    +0.020 A 
ATOM      2  C   UNL     1      18.864  18.870  35.003  0.00  0.00    +0.013 A 
ATOM      3  C   UNL     1      19.246  17.754  34.147  0.00  0.00    +0.019 A 
ATOM     38  C   UNL     1      20.122  16.733  34.702  0.00  0.00    +0.120 A 
ATOM     39  N   UNL     1      20.571  16.844  36.014  0.00  0.00    -0.263 NA
ATOM     40  C   UNL     1      20.212  17.914  36.847  0.00  0.00    +0.111 A 
ENDBRANCH   4   3
ENDBRANCH  10   9
BRANCH  12  13
ATOM     13  N   UNL     1      17.073  20.325  25.817  0.00  0.00    -0.281 N 
ATOM     14  C   UNL     1      17.294  21.592  25.303  0.00  0.00    +0.248 C 
ATOM     30  O   UNL     1      16.650  22.585  25.610  0.00  0.00    -0.270 OA
ATOM     31  H   UNL     1      17.544  19.558  25.337  0.00  0.00    +0.155 HD
BRANCH  14  15
ATOM     15  C   UNL     1      18.377  21.782  24.290  0.00  0.00    +0.037 A 
ATOM     16  C   UNL     1      19.655  21.076  24.404  0.00  0.00    +0.013 A 
ATOM     17  C   UNL     1      20.689  21.290  23.423  0.00  0.00    +0.005 A 
ATOM     18  C   UNL     1      20.448  22.215  22.318  0.00  0.00    -0.033 A 
ATOM     28  C   UNL     1      19.168  22.898  22.226  0.00  0.00    +0.005 A 
ATOM     29  C   UNL     1      18.152  22.691  23.187  0.00  0.00    +0.013 A 
BRANCH  18  19
ATOM     19  C   UNL     1      21.502  22.520  21.237  0.00  0.00    +0.119 C 
BRANCH  19  20
ATOM     20  N   UNL     1      21.226  22.027  19.855  0.00  0.00    -0.302 NA
ATOM     21  C   UNL     1      22.414  21.256  19.272  0.00  0.00    +0.066 C 
ATOM     22  C   UNL     1      22.100  20.728  17.835  0.00  0.00    -0.064 C 
ATOM     23  N   UNL     1      21.725  21.905  16.933  0.00  0.00    +0.379 N 
ATOM     24  C   UNL     1      21.486  21.420  15.566  0.00  0.00    -0.096 C 
ATOM     25  H   UNL     1      22.599  22.597  16.898  0.00  0.00    -0.082 HD
ATOM     26  C   UNL     1      20.546  22.680  17.506  0.00  0.00    -0.064 C 
ATOM     27  C   UNL     1      20.858  23.174  18.946  0.00  0.00    +0.066 C 
ENDBRANCH  19  20
ENDBRANCH  18  19
ENDBRANCH  14  15
ENDBRANCH  12  13
TORSDOF 6
ENDMDL
MODEL 4
REMARK VINA RESULT:      -7.8      5.950     11.397
REMARK  Name = C:\Users\Docking\Desktop\test protocol\1iep_ligandH.pdb
REMARK  8 active torsions:
REMARK  status: ('A' for Active; 'I' for Inactive)
REMARK    1  A    between atoms: _5  and  _11
REMARK    2  A    between atoms: _19  and  _21
REMARK    3  A    between atoms: _22  and  _66
REMARK    4  A    between atoms: _27  and  _30
REMARK    5  A    between atoms: _32  and  _33
REMARK    6  A    between atoms: _38  and  _43
REMARK    7  A    between atoms: _43  and  _46
REMARK    8  A    between atoms: _53  and  _55
REMARK                            x       y       z     vdW  Elec       q    Type
REMARK                         _______ _______ _______ _____ _____    ______ ____
ROOT
ATOM     10  C   UNL     1      20.318  18.032  27.893  0.00  0.00    +0.038 A 
ATOM     11  C   UNL     1      20.672  18.751  26.724  0.00  0.00    +0.047 A 
ATOM     12  C   UNL     1      19.656  19.255  25.813  0.00  0.00    +0.035 A 
ATOM     32  C   UNL     1      18.287  19.012  26.127  0.00  0.00    +0.024 A 
ATOM     33  C   UNL     1      17.909  18.282  27.311  0.00  0.00    +0.007 A 
ATOM     34  C   UNL     1      18.907  17.779  28.211  0.00  0.00    -0.029 A 
ATOM     35  C   UNL     1      18.444  16.998  29.463  0.00  0.00    +0.045 C 
ENDROOT
BRANCH  10   9
ATOM      4  C   UNL     1      23.862  14.977  28.964  0.00  0.00    +0.077 A 
ATOM      5  C   UNL     1      23.653  14.221  27.763  0.00  0.00    +0.048 A 
ATOM      6  C   UNL     1      22.618  14.647  26.900  0.00  0.00    +0.116 A 
ATOM      7  N   UNL     1      21.856  15.749  27.224  0.00  0.00    -0.223 NA
ATOM      8  C   UNL     1      22.083  16.455  28.391  0.00  0.00    +0.220 A 
ATOM      9  N   UNL     1      21.334  17.570  28.732  0.00  0.00    -0.283 N 
ATOM     36  H   UNL     1      21.528  18.059  29.606  0.00  0.00    +0.155 HD
ATOM     37  N   UNL     1      23.064  16.067  29.232  0.00  0.00    -0.214 NA
BRANCH   4   3
ATOM      1  C   UNL     1      25.705  13.601  32.128  0.00  0.00    +0.020 A 
ATOM      2  C   UNL     1      24.649  13.886  31.184  0.00  0.00    +0.013 A 
ATOM      3  C   UNL     1      24.918  14.654  29.975  0.00  0.00    +0.019 A 
ATOM     38  C   UNL     1      26.277  15.122  29.748  0.00  0.00    +0.120 A 
ATOM     39  N   UNL     1      27.274  14.834  30.676  0.00  0.00    -0.263 NA
ATOM     40  C   UNL     1      27.026  14.097  31.844  0.00  0.00    +0.111 A 
ENDBRANCH   4   3
ENDBRANCH  10   9
BRANCH  12  13
ATOM     13  N   UNL     1      19.957  19.985  24.606  0.00  0.00    -0.281 N 
ATOM     14  C   UNL     1      19.798  21.340  24.368  0.00  0.00    +0.248 C 
ATOM     30  O   UNL     1      19.169  22.099  25.091  0.00  0.00    -0.270 OA
ATOM     31  H   UNL     1      20.333  19.435  23.833  0.00  0.00    +0.155 HD
BRANCH  14  15
ATOM     15  C   UNL     1      20.414  21.935  23.144  0.00  0.00    +0.037 A 
ATOM     16  C   UNL     1      21.857  22.177  23.060  0.00  0.00    +0.013 A 
ATOM     17  C   UNL     1      22.423  22.769  21.873  0.00  0.00    +0.005 A 
ATOM     18  C   UNL     1      21.545  23.121  20.760  0.00  0.00    -0.033 A 
ATOM     28  C   UNL     1      20.119  22.865  20.868  0.00  0.00    +0.005 A 
ATOM     29  C   UNL     1      19.560  22.286  22.029  0.00  0.00    +0.013 A 
BRANCH  18  19
ATOM     19  C   UNL     1      22.060  23.775  19.464  0.00  0.00    +0.119 C 
BRANCH  19  20
ATOM     20  N   UNL     1      21.246  23.576  18.228  0.00  0.00    -0.302 NA
ATOM     21  C   UNL     1      21.544  22.234  17.553  0.00  0.00    +0.066 C 
ATOM     22  C   UNL     1      20.668  22.032  16.274  0.00  0.00    -0.064 C 
ATOM     23  N   UNL     1      20.910  23.191  15.305  0.00  0.00    +0.379 N 
ATOM     24  C   UNL     1      20.132  22.975  14.077  0.00  0.00    -0.096 C 
ATOM     25  H   UNL     1      21.990  23.179  15.028  0.00  0.00    -0.082 HD
ATOM     26  C   UNL     1      20.619  24.530  15.969  0.00  0.00    -0.064 C 
ATOM     27  C   UNL     1      21.474  24.707  17.255  0.00  0.00    +0.066 C 
ENDBRANCH  19  20
ENDBRANCH  18  19
ENDBRANCH  14  15
ENDBRANCH  12  13
TORSDOF 6
ENDMDL
MODEL 5
REMARK VINA RESULT:      -7.8      9.916     15.747
REMARK  Name = C:\Users\Docking\Desktop\test protocol\1iep_ligandH.pdb
REMARK  8 active torsions:
REMARK  status: ('A' for Active; 'I' for Inactive)
REMARK    1  A    between atoms: _5  and  _11
REMARK    2  A    between atoms: _19  and  _21
REMARK    3  A    between atoms: _22  and  _66
REMARK    4  A    between atoms: _27  and  _30
REMARK    5  A    between atoms: _32  and  _33
REMARK    6  A    between atoms: _38  and  _43
REMARK    7  A    between atoms: _43  and  _46
REMARK    8  A    between atoms: _53  and  _55
REMARK                            x       y       z     vdW  Elec       q    Type
REMARK                         _______ _______ _______ _____ _____    ______ ____
ROOT
ATOM     10  C   UNL     1      19.221  20.204  25.121  0.00  0.00    +0.038 A 
ATOM     11  C   UNL     1      18.337  19.886  26.183  0.00  0.00    +0.047 A 
ATOM     12  C   UNL     1      17.216  20.752  26.515  0.00  0.00    +0.035 A 
ATOM     32  C   UNL     1      17.024  21.934  25.742  0.00  0.00    +0.024 A 
ATOM     33  C   UNL     1      17.914  22.273  24.659  0.00  0.00    +0.007 A 
ATOM     34  C   UNL     1      19.022  21.424  24.329  0.00  0.00    -0.029 A 
ATOM     35  C   UNL     1      19.948  21.841  23.162  0.00  0.00    +0.045 C 
ENDROOT
BRANCH  10   9
ATOM      4  C   UNL     1      22.729  17.234  26.504  0.00  0.00    +0.077 A 
ATOM      5  C   UNL     1      22.444  17.450  27.894  0.00  0.00    +0.048 A 
ATOM      6  C   UNL     1      21.392  18.338  28.210  0.00  0.00    +0.116 A 
ATOM      7  N   UNL     1      20.683  18.959  27.204  0.00  0.00    -0.223 NA
ATOM      8  C   UNL     1      20.985  18.730  25.874  0.00  0.00    +0.220 A 
ATOM      9  N   UNL     1      20.280  19.337  24.846  0.00  0.00    -0.283 N 
ATOM     36  H   UNL     1      20.539  19.147  23.877  0.00  0.00    +0.155 HD
ATOM     37  N   UNL     1      21.986  17.887  25.546  0.00  0.00    -0.214 NA
BRANCH   4   3
ATOM      1  C   UNL     1      25.097  15.173  24.172  0.00  0.00    +0.020 A 
ATOM      2  C   UNL     1      24.040  16.062  24.596  0.00  0.00    +0.013 A 
ATOM      3  C   UNL     1      23.808  16.322  26.011  0.00  0.00    +0.019 A 
ATOM     38  C   UNL     1      24.671  15.662  26.979  0.00  0.00    +0.120 A 
ATOM     39  N   UNL     1      25.679  14.809  26.541  0.00  0.00    -0.263 NA
ATOM     40  C   UNL     1      25.911  14.550  25.182  0.00  0.00    +0.111 A 
ENDBRANCH   4   3
ENDBRANCH  10   9
BRANCH  12  13
ATOM     13  N   UNL     1      16.291  20.484  27.588  0.00  0.00    -0.281 N 
ATOM     14  C   UNL     1      15.157  19.689  27.555  0.00  0.00    +0.248 C 
ATOM     30  O   UNL     1      14.646  19.255  26.534  0.00  0.00    -0.270 OA
ATOM     31  H   UNL     1      16.496  20.936  28.479  0.00  0.00    +0.155 HD
BRANCH  14  15
ATOM     15  C   UNL     1      14.485  19.337  28.843  0.00  0.00    +0.037 A 
ATOM     16  C   UNL     1      13.073  18.949  28.882  0.00  0.00    +0.013 A 
ATOM     17  C   UNL     1      12.444  18.631  30.140  0.00  0.00    +0.005 A 
ATOM     18  C   UNL     1      13.230  18.698  31.370  0.00  0.00    -0.033 A 
ATOM     28  C   UNL     1      14.631  19.081  31.302  0.00  0.00    +0.005 A 
ATOM     29  C   UNL     1      15.249  19.394  30.071  0.00  0.00    +0.013 A 
BRANCH  18  19
ATOM     19  C   UNL     1      12.637  18.396  32.759  0.00  0.00    +0.119 C 
BRANCH  19  20
ATOM     20  N   UNL     1      11.685  19.396  33.328  0.00  0.00    -0.302 NA
ATOM     21  C   UNL     1      12.358  20.307  34.359  0.00  0.00    +0.066 C 
ATOM     22  C   UNL     1      11.353  21.362  34.928  0.00  0.00    -0.064 C 
ATOM     23  N   UNL     1      10.154  20.640  35.544  0.00  0.00    +0.379 N 
ATOM     24  C   UNL     1       9.235  21.626  36.131  0.00  0.00    -0.096 C 
ATOM     25  H   UNL     1      10.535  19.998  36.372  0.00  0.00    -0.082 HD
ATOM     26  C   UNL     1       9.481  19.730  34.526  0.00  0.00    -0.064 C 
ATOM     27  C   UNL     1      10.495  18.705  33.946  0.00  0.00    +0.066 C 
ENDBRANCH  19  20
ENDBRANCH  18  19
ENDBRANCH  14  15
ENDBRANCH  12  13
TORSDOF 6
ENDMDL
