MODEL 1
REMARK VINA RESULT:      -7.9      0.000      0.000
REMARK  Name = C:\Users\Docking\Desktop\test protocol\1iep_ligandH.pdb
REMARK  8 active torsions:
REMARK  status: ('A' for Active; 'I' for Inactive)
REMARK    1  A    between atoms: _5  and  _11
REMARK    2  A    between atoms: _19  and  _21
REMARK    3  A    between atoms: _22  and  _66
REMARK    4  A    between atoms: _27  and  _30
REMARK    5  A    between atoms: _32  and  _33
REMARK    6  A    between atoms: _38  and  _43
REMARK    7  A    between atoms: _43  and  _46
REMARK    8  A    between atoms: _53  and  _55
REMARK                            x       y       z     vdW  Elec       q    Type
REMARK                         _______ _______ _______ _____ _____    ______ ____
ROOT
ATOM     10  C   UNL     1     -10.701  23.658 -13.068  0.00  0.00    +0.038 A 
ATOM     11  C   UNL     1     -10.495  22.501 -12.274  0.00  0.00    +0.047 A 
ATOM     12  C   UNL     1     -10.212  21.211 -12.884  0.00  0.00    +0.035 A 
ATOM     32  C   UNL     1     -10.144  21.136 -14.305  0.00  0.00    +0.024 A 
ATOM     33  C   UNL     1     -10.353  22.302 -15.128  0.00  0.00    +0.007 A 
ATOM     34  C   UNL     1     -10.634  23.577 -14.532  0.00  0.00    -0.029 A 
ATOM     35  C   UNL     1     -10.855  24.792 -15.463  0.00  0.00    +0.045 C 
ENDROOT
BRANCH  10   9
ATOM      4  C   UNL     1     -13.731  26.899 -11.236  0.00  0.00    +0.077 A 
ATOM      5  C   UNL     1     -14.879  26.121 -11.606  0.00  0.00    +0.048 A 
ATOM      6  C   UNL     1     -14.647  24.897 -12.272  0.00  0.00    +0.116 A 
ATOM      7  N   UNL     1     -13.358  24.490 -12.543  0.00  0.00    -0.223 NA
ATOM      8  C   UNL     1     -12.274  25.265 -12.175  0.00  0.00    +0.220 A 
ATOM      9  N   UNL     1     -10.969  24.871 -12.430  0.00  0.00    -0.283 N 
ATOM     36  H   UNL     1     -10.196  25.475 -12.149  0.00  0.00    +0.155 HD
ATOM     37  N   UNL     1     -12.469  26.439 -11.539  0.00  0.00    -0.214 NA
BRANCH   4   3
ATOM      1  C   UNL     1     -13.127  29.815  -8.701  0.00  0.00    +0.020 A 
ATOM      2  C   UNL     1     -13.009  28.530  -9.351  0.00  0.00    +0.013 A 
ATOM      3  C   UNL     1     -13.814  28.213 -10.525  0.00  0.00    +0.019 A 
ATOM     38  C   UNL     1     -14.734  29.226 -11.019  0.00  0.00    +0.120 A 
ATOM     39  N   UNL     1     -14.826  30.454 -10.371  0.00  0.00    -0.263 NA
ATOM     40  C   UNL     1     -14.059  30.770  -9.240  0.00  0.00    +0.111 A 
ENDBRANCH   4   3
ENDBRANCH  10   9
BRANCH  12  13
ATOM     13  N   UNL     1     -10.002  20.000 -12.129  0.00  0.00    -0.281 N 
ATOM     14  C   UNL     1      -8.843  19.582 -11.496  0.00  0.00    +0.248 C 
ATOM     30  O   UNL     1      -7.743  20.087 -11.664  0.00  0.00    -0.270 OA
ATOM     31  H   UNL     1     -10.805  19.376 -12.052  0.00  0.00    +0.155 HD
BRANCH  14  15
ATOM     15  C   UNL     1      -8.913  18.426 -10.551  0.00  0.00    +0.037 A 
ATOM     16  C   UNL     1     -10.136  17.630 -10.413  0.00  0.00    +0.013 A 
ATOM     17  C   UNL     1     -10.183  16.531  -9.482  0.00  0.00    +0.005 A 
ATOM     18  C   UNL     1      -9.001  16.220  -8.682  0.00  0.00    -0.033 A 
ATOM     28  C   UNL     1      -7.799  17.022  -8.843  0.00  0.00    +0.005 A 
ATOM     29  C   UNL     1      -7.750  18.101  -9.754  0.00  0.00    +0.013 A 
BRANCH  18  19
ATOM     19  C   UNL     1      -8.967  15.078  -7.649  0.00  0.00    +0.119 C 
BRANCH  19  20
ATOM     20  N   UNL     1      -9.653  15.317  -6.344  0.00  0.00    -0.302 NA
ATOM     21  C   UNL     1      -8.929  14.633  -5.181  0.00  0.00    +0.066 C 
ATOM     22  C   UNL     1      -9.647  14.912  -3.820  0.00  0.00    -0.064 C 
ATOM     23  N   UNL     1     -11.099  14.439  -3.907  0.00  0.00    +0.379 N 
ATOM     24  C   UNL     1     -11.761  14.646  -2.611  0.00  0.00    -0.096 C 
ATOM     25  H   UNL     1     -11.086  13.342  -4.109  0.00  0.00    -0.082 HD
ATOM     26  C   UNL     1     -11.826  15.111  -5.063  0.00  0.00    -0.064 C 
ATOM     27  C   UNL     1     -11.088  14.853  -6.406  0.00  0.00    +0.066 C 
ENDBRANCH  19  20
ENDBRANCH  18  19
ENDBRANCH  14  15
ENDBRANCH  12  13
TORSDOF 6
ENDMDL
MODEL 2
REMARK VINA RESULT:      -7.7      2.210      3.077
REMARK  Name = C:\Users\Docking\Desktop\test protocol\1iep_ligandH.pdb
REMARK  8 active torsions:
REMARK  status: ('A' for Active; 'I' for Inactive)
REMARK    1  A    between atoms: _5  and  _11
REMARK    2  A    between atoms: _19  and  _21
REMARK    3  A    between atoms: _22  and  _66
REMARK    4  A    between atoms: _27  and  _30
REMARK    5  A    between atoms: _32  and  _33
REMARK    6  A    between atoms: _38  and  _43
REMARK    7  A    between atoms: _43  and  _46
REMARK    8  A    between atoms: _53  and  _55
REMARK                            x       y       z     vdW  Elec       q    Type
REMARK                         _______ _______ _______ _____ _____    ______ ____
ROOT
ATOM     10  C   UNL     1     -10.887  23.714 -13.149  0.00  0.00    +0.038 A 
ATOM     11  C   UNL     1     -10.485  22.616 -12.347  0.00  0.00    +0.047 A 
ATOM     12  C   UNL     1     -10.226  21.310 -12.935  0.00  0.00    +0.035 A 
ATOM     32  C   UNL     1     -10.384  21.160 -14.343  0.00  0.00    +0.024 A 
ATOM     33  C   UNL     1     -10.794  22.266 -15.173  0.00  0.00    +0.007 A 
ATOM     34  C   UNL     1     -11.053  23.555 -14.598  0.00  0.00    -0.029 A 
ATOM     35  C   UNL     1     -11.495  24.704 -15.535  0.00  0.00    +0.045 C 
ENDROOT
BRANCH  10   9
ATOM      4  C   UNL     1     -13.819  27.004 -11.245  0.00  0.00    +0.077 A 
ATOM      5  C   UNL     1     -14.984  26.215 -11.528  0.00  0.00    +0.048 A 
ATOM      6  C   UNL     1     -14.786  24.972 -12.170  0.00  0.00    +0.116 A 
ATOM      7  N   UNL     1     -13.513  24.559 -12.501  0.00  0.00    -0.223 NA
ATOM      8  C   UNL     1     -12.412  25.345 -12.216  0.00  0.00    +0.220 A 
ATOM      9  N   UNL     1     -11.122  24.945 -12.532  0.00  0.00    -0.283 N 
ATOM     36  H   UNL     1     -10.337  25.557 -12.312  0.00  0.00    +0.155 HD
ATOM     37  N   UNL     1     -12.575  26.536 -11.604  0.00  0.00    -0.214 NA
BRANCH   4   3
ATOM      1  C   UNL     1     -13.113  29.977  -8.805  0.00  0.00    +0.020 A 
ATOM      2  C   UNL     1     -13.030  28.674  -9.422  0.00  0.00    +0.013 A 
ATOM      3  C   UNL     1     -13.865  28.338 -10.568  0.00  0.00    +0.019 A 
ATOM     38  C   UNL     1     -14.781  29.352 -11.070  0.00  0.00    +0.120 A 
ATOM     39  N   UNL     1     -14.840  30.598 -10.454  0.00  0.00    -0.263 NA
ATOM     40  C   UNL     1     -14.042  30.932  -9.349  0.00  0.00    +0.111 A 
ENDBRANCH   4   3
ENDBRANCH  10   9
BRANCH  12  13
ATOM     13  N   UNL     1      -9.823  20.156 -12.170  0.00  0.00    -0.281 N 
ATOM     14  C   UNL     1      -8.537  19.699 -11.932  0.00  0.00    +0.248 C 
ATOM     30  O   UNL     1      -7.543  20.095 -12.522  0.00  0.00    -0.270 OA
ATOM     31  H   UNL     1     -10.577  19.610 -11.753  0.00  0.00    +0.155 HD
BRANCH  14  15
ATOM     15  C   UNL     1      -8.327  18.639 -10.900  0.00  0.00    +0.037 A 
ATOM     16  C   UNL     1      -9.456  17.899 -10.330  0.00  0.00    +0.013 A 
ATOM     17  C   UNL     1      -9.227  16.893  -9.323  0.00  0.00    +0.005 A 
ATOM     18  C   UNL     1      -7.862  16.621  -8.880  0.00  0.00    -0.033 A 
ATOM     28  C   UNL     1      -6.760  17.366  -9.466  0.00  0.00    +0.005 A 
ATOM     29  C   UNL     1      -6.980  18.353 -10.453  0.00  0.00    +0.013 A 
BRANCH  18  19
ATOM     19  C   UNL     1      -7.526  15.580  -7.795  0.00  0.00    +0.119 C 
BRANCH  19  20
ATOM     20  N   UNL     1      -6.097  15.167  -7.663  0.00  0.00    -0.302 NA
ATOM     21  C   UNL     1      -5.807  13.858  -8.403  0.00  0.00    +0.066 C 
ATOM     22  C   UNL     1      -4.303  13.452  -8.273  0.00  0.00    -0.064 C 
ATOM     23  N   UNL     1      -3.936  13.330  -6.793  0.00  0.00    +0.379 N 
ATOM     24  C   UNL     1      -2.538  12.892  -6.668  0.00  0.00    -0.096 C 
ATOM     25  H   UNL     1      -4.581  12.536  -6.350  0.00  0.00    -0.082 HD
ATOM     26  C   UNL     1      -4.224  14.626  -6.049  0.00  0.00    -0.064 C 
ATOM     27  C   UNL     1      -5.715  15.036  -6.209  0.00  0.00    +0.066 C 
ENDBRANCH  19  20
ENDBRANCH  18  19
ENDBRANCH  14  15
ENDBRANCH  12  13
TORSDOF 6
ENDMDL
MODEL 3
REMARK VINA RESULT:      -7.6      9.647     14.166
REMARK  Name = C:\Users\Docking\Desktop\test protocol\1iep_ligandH.pdb
REMARK  8 active torsions:
REMARK  status: ('A' for Active; 'I' for Inactive)
REMARK    1  A    between atoms: _5  and  _11
REMARK    2  A    between atoms: _19  and  _21
REMARK    3  A    between atoms: _22  and  _66
REMARK    4  A    between atoms: _27  and  _30
REMARK    5  A    between atoms: _32  and  _33
REMARK    6  A    between atoms: _38  and  _43
REMARK    7  A    between atoms: _43  and  _46
REMARK    8  A    between atoms: _53  and  _55
REMARK                            x       y       z     vdW  Elec       q    Type
REMARK                         _______ _______ _______ _____ _____    ______ ____
ROOT
ATOM     10  C   UNL     1      -8.837  15.010  -4.875  0.00  0.00    +0.038 A 
ATOM     11  C   UNL     1      -9.294  14.024  -3.963  0.00  0.00    +0.047 A 
ATOM     12  C   UNL     1      -9.978  14.395  -2.734  0.00  0.00    +0.035 A 
ATOM     32  C   UNL     1     -10.181  15.780  -2.466  0.00  0.00    +0.024 A 
ATOM     33  C   UNL     1      -9.722  16.795  -3.381  0.00  0.00    +0.007 A 
ATOM     34  C   UNL     1      -9.045  16.435  -4.594  0.00  0.00    -0.029 A 
ATOM     35  C   UNL     1      -8.568  17.566  -5.535  0.00  0.00    +0.045 C 
ENDROOT
BRANCH  10   9
ATOM      4  C   UNL     1      -4.863  14.127  -7.418  0.00  0.00    +0.077 A 
ATOM      5  C   UNL     1      -4.011  14.548  -6.344  0.00  0.00    +0.048 A 
ATOM      6  C   UNL     1      -4.635  14.992  -5.156  0.00  0.00    +0.116 A 
ATOM      7  N   UNL     1      -6.009  15.008  -5.061  0.00  0.00    -0.223 NA
ATOM      8  C   UNL     1      -6.802  14.597  -6.117  0.00  0.00    +0.220 A 
ATOM      9  N   UNL     1      -8.186  14.597  -6.040  0.00  0.00    -0.283 N 
ATOM     36  H   UNL     1      -8.736  14.293  -6.843  0.00  0.00    +0.155 HD
ATOM     37  N   UNL     1      -6.231  14.170  -7.262  0.00  0.00    -0.214 NA
BRANCH   4   3
ATOM      1  C   UNL     1      -4.468  13.433 -11.247  0.00  0.00    +0.020 A 
ATOM      2  C   UNL     1      -5.001  13.938 -10.003  0.00  0.00    +0.013 A 
ATOM      3  C   UNL     1      -4.354  13.628  -8.735  0.00  0.00    +0.019 A 
ATOM     38  C   UNL     1      -3.159  12.798  -8.760  0.00  0.00    +0.120 A 
ATOM     39  N   UNL     1      -2.670  12.324  -9.973  0.00  0.00    -0.263 NA
ATOM     40  C   UNL     1      -3.285  12.614 -11.200  0.00  0.00    +0.111 A 
ENDBRANCH   4   3
ENDBRANCH  10   9
BRANCH  12  13
ATOM     13  N   UNL     1     -10.457  13.439  -1.767  0.00  0.00    -0.281 N 
ATOM     14  C   UNL     1     -11.650  12.735  -1.785  0.00  0.00    +0.248 C 
ATOM     30  O   UNL     1     -12.587  12.981  -2.530  0.00  0.00    -0.270 OA
ATOM     31  H   UNL     1      -9.842  13.259  -0.973  0.00  0.00    +0.155 HD
BRANCH  14  15
ATOM     15  C   UNL     1     -11.835  11.603  -0.827  0.00  0.00    +0.037 A 
ATOM     16  C   UNL     1     -11.598  11.776   0.609  0.00  0.00    +0.013 A 
ATOM     17  C   UNL     1     -11.767  10.662   1.509  0.00  0.00    +0.005 A 
ATOM     18  C   UNL     1     -12.177   9.366   0.975  0.00  0.00    -0.033 A 
ATOM     28  C   UNL     1     -12.410   9.223  -0.452  0.00  0.00    +0.005 A 
ATOM     29  C   UNL     1     -12.244  10.312  -1.338  0.00  0.00    +0.013 A 
BRANCH  18  19
ATOM     19  C   UNL     1     -12.361   8.118   1.859  0.00  0.00    +0.119 C 
BRANCH  19  20
ATOM     20  N   UNL     1     -11.149   7.289   2.133  0.00  0.00    -0.302 NA
ATOM     21  C   UNL     1     -11.260   5.890   1.522  0.00  0.00    +0.066 C 
ATOM     22  C   UNL     1      -9.974   5.044   1.799  0.00  0.00    -0.064 C 
ATOM     23  N   UNL     1      -9.738   4.959   3.308  0.00  0.00    +0.379 N 
ATOM     24  C   UNL     1      -8.563   4.117   3.575  0.00  0.00    -0.096 C 
ATOM     25  H   UNL     1     -10.624   4.457   3.761  0.00  0.00    -0.082 HD
ATOM     26  C   UNL     1      -9.629   6.347   3.924  0.00  0.00    -0.064 C 
ATOM     27  C   UNL     1     -10.899   7.189   3.618  0.00  0.00    +0.066 C 
ENDBRANCH  19  20
ENDBRANCH  18  19
ENDBRANCH  14  15
ENDBRANCH  12  13
TORSDOF 6
ENDMDL
MODEL 4
REMARK VINA RESULT:      -7.6      9.646     14.256
REMARK  Name = C:\Users\Docking\Desktop\test protocol\1iep_ligandH.pdb
REMARK  8 active torsions:
REMARK  status: ('A' for Active; 'I' for Inactive)
REMARK    1  A    between atoms: _5  and  _11
REMARK    2  A    between atoms: _19  and  _21
REMARK    3  A    between atoms: _22  and  _66
REMARK    4  A    between atoms: _27  and  _30
REMARK    5  A    between atoms: _32  and  _33
REMARK    6  A    between atoms: _38  and  _43
REMARK    7  A    between atoms: _43  and  _46
REMARK    8  A    between atoms: _53  and  _55
REMARK                            x       y       z     vdW  Elec       q    Type
REMARK                         _______ _______ _______ _____ _____    ______ ____
ROOT
ATOM     10  C   UNL     1      -8.785  14.958  -4.897  0.00  0.00    +0.038 A 
ATOM     11  C   UNL     1      -9.252  14.013  -3.949  0.00  0.00    +0.047 A 
ATOM     12  C   UNL     1      -9.985  14.433  -2.765  0.00  0.00    +0.035 A 
ATOM     32  C   UNL     1     -10.227  15.826  -2.580  0.00  0.00    +0.024 A 
ATOM     33  C   UNL     1      -9.759  16.801  -3.533  0.00  0.00    +0.007 A 
ATOM     34  C   UNL     1      -9.033  16.392  -4.702  0.00  0.00    -0.029 A 
ATOM     35  C   UNL     1      -8.549  17.481  -5.687  0.00  0.00    +0.045 C 
ENDROOT
BRANCH  10   9
ATOM      4  C   UNL     1      -4.708  14.012  -7.247  0.00  0.00    +0.077 A 
ATOM      5  C   UNL     1      -3.902  14.500  -6.165  0.00  0.00    +0.048 A 
ATOM      6  C   UNL     1      -4.575  14.992  -5.025  0.00  0.00    +0.116 A 
ATOM      7  N   UNL     1      -5.952  14.992  -4.981  0.00  0.00    -0.223 NA
ATOM      8  C   UNL     1      -6.700  14.516  -6.042  0.00  0.00    +0.220 A 
ATOM      9  N   UNL     1      -8.086  14.499  -6.016  0.00  0.00    -0.283 N 
ATOM     36  H   UNL     1      -8.601  14.146  -6.822  0.00  0.00    +0.155 HD
ATOM     37  N   UNL     1      -6.080  14.042  -7.143  0.00  0.00    -0.214 NA
BRANCH   4   3
ATOM      1  C   UNL     1      -4.105  13.213 -11.028  0.00  0.00    +0.020 A 
ATOM      2  C   UNL     1      -4.687  13.775  -9.832  0.00  0.00    +0.013 A 
ATOM      3  C   UNL     1      -4.143  13.458  -8.518  0.00  0.00    +0.019 A 
ATOM     38  C   UNL     1      -2.999  12.561  -8.448  0.00  0.00    +0.120 A 
ATOM     39  N   UNL     1      -2.460  12.033  -9.618  0.00  0.00    -0.263 NA
ATOM     40  C   UNL     1      -2.976  12.331 -10.888  0.00  0.00    +0.111 A 
ENDBRANCH   4   3
ENDBRANCH  10   9
BRANCH  12  13
ATOM     13  N   UNL     1     -10.477  13.520  -1.764  0.00  0.00    -0.281 N 
ATOM     14  C   UNL     1     -11.596  12.707  -1.829  0.00  0.00    +0.248 C 
ATOM     30  O   UNL     1     -12.470  12.801  -2.678  0.00  0.00    -0.270 OA
ATOM     31  H   UNL     1      -9.933  13.466  -0.902  0.00  0.00    +0.155 HD
BRANCH  14  15
ATOM     15  C   UNL     1     -11.780  11.646  -0.792  0.00  0.00    +0.037 A 
ATOM     16  C   UNL     1     -12.141  10.276  -1.163  0.00  0.00    +0.013 A 
ATOM     17  C   UNL     1     -12.328   9.275  -0.142  0.00  0.00    +0.005 A 
ATOM     18  C   UNL     1     -12.154   9.643   1.261  0.00  0.00    -0.033 A 
ATOM     28  C   UNL     1     -11.791  11.009   1.601  0.00  0.00    +0.005 A 
ATOM     29  C   UNL     1     -11.607  11.992   0.603  0.00  0.00    +0.013 A 
BRANCH  18  19
ATOM     19  C   UNL     1     -12.354   8.646   2.418  0.00  0.00    +0.119 C 
BRANCH  19  20
ATOM     20  N   UNL     1     -11.414   8.743   3.574  0.00  0.00    -0.302 NA
ATOM     21  C   UNL     1     -10.640   7.440   3.795  0.00  0.00    +0.066 C 
ATOM     22  C   UNL     1      -9.645   7.566   4.994  0.00  0.00    -0.064 C 
ATOM     23  N   UNL     1     -10.417   7.957   6.255  0.00  0.00    +0.379 N 
ATOM     24  C   UNL     1      -9.493   8.019   7.397  0.00  0.00    -0.096 C 
ATOM     25  H   UNL     1     -11.157   7.149   6.463  0.00  0.00    -0.082 HD
ATOM     26  C   UNL     1     -11.192   9.250   6.044  0.00  0.00    -0.064 C 
ATOM     27  C   UNL     1     -12.157   9.124   4.832  0.00  0.00    +0.066 C 
ENDBRANCH  19  20
ENDBRANCH  18  19
ENDBRANCH  14  15
ENDBRANCH  12  13
TORSDOF 6
ENDMDL
MODEL 5
REMARK VINA RESULT:      -7.5      2.750     12.212
REMARK  Name = C:\Users\Docking\Desktop\test protocol\1iep_ligandH.pdb
REMARK  8 active torsions:
REMARK  status: ('A' for Active; 'I' for Inactive)
REMARK    1  A    between atoms: _5  and  _11
REMARK    2  A    between atoms: _19  and  _21
REMARK    3  A    between atoms: _22  and  _66
REMARK    4  A    between atoms: _27  and  _30
REMARK    5  A    between atoms: _32  and  _33
REMARK    6  A    between atoms: _38  and  _43
REMARK    7  A    between atoms: _43  and  _46
REMARK    8  A    between atoms: _53  and  _55
REMARK                            x       y       z     vdW  Elec       q    Type
REMARK                         _______ _______ _______ _____ _____    ______ ____
ROOT
ATOM     10  C   UNL     1      -7.693  18.672 -12.020  0.00  0.00    +0.038 A 
ATOM     11  C   UNL     1      -8.433  19.811 -11.613  0.00  0.00    +0.047 A 
ATOM     12  C   UNL     1      -9.357  20.472 -12.522  0.00  0.00    +0.035 A 
ATOM     32  C   UNL     1      -9.504  19.945 -13.838  0.00  0.00    +0.024 A 
ATOM     33  C   UNL     1      -8.758  18.788 -14.269  0.00  0.00    +0.007 A 
ATOM     34  C   UNL     1      -7.844  18.133 -13.377  0.00  0.00    -0.029 A 
ATOM     35  C   UNL     1      -7.066  16.901 -13.895  0.00  0.00    +0.045 C 
ENDROOT
BRANCH  10   9
ATOM      4  C   UNL     1      -6.772  15.693  -8.371  0.00  0.00    +0.077 A 
ATOM      5  C   UNL     1      -8.150  15.311  -8.258  0.00  0.00    +0.048 A 
ATOM      6  C   UNL     1      -9.065  15.909  -9.153  0.00  0.00    +0.116 A 
ATOM      7  N   UNL     1      -8.623  16.820 -10.088  0.00  0.00    -0.223 NA
ATOM      8  C   UNL     1      -7.287  17.168 -10.169  0.00  0.00    +0.220 A 
ATOM      9  N   UNL     1      -6.820  18.076 -11.107  0.00  0.00    -0.283 N 
ATOM     36  H   UNL     1      -5.828  18.312 -11.130  0.00  0.00    +0.155 HD
ATOM     37  N   UNL     1      -6.394  16.612  -9.325  0.00  0.00    -0.214 NA
BRANCH   4   3
ATOM      1  C   UNL     1      -4.562  14.819  -5.264  0.00  0.00    +0.020 A 
ATOM      2  C   UNL     1      -5.634  15.370  -6.061  0.00  0.00    +0.013 A 
ATOM      3  C   UNL     1      -5.684  15.146  -7.500  0.00  0.00    +0.019 A 
ATOM     38  C   UNL     1      -4.627  14.352  -8.107  0.00  0.00    +0.120 A 
ATOM     39  N   UNL     1      -3.606  13.835  -7.314  0.00  0.00    -0.263 NA
ATOM     40  C   UNL     1      -3.547  14.046  -5.929  0.00  0.00    +0.111 A 
ENDBRANCH   4   3
ENDBRANCH  10   9
BRANCH  12  13
ATOM     13  N   UNL     1     -10.129  21.637 -12.168  0.00  0.00    -0.281 N 
ATOM     14  C   UNL     1     -10.001  22.926 -12.660  0.00  0.00    +0.248 C 
ATOM     30  O   UNL     1      -9.056  23.320 -13.327  0.00  0.00    -0.270 OA
ATOM     31  H   UNL     1     -10.859  21.494 -11.469  0.00  0.00    +0.155 HD
BRANCH  14  15
ATOM     15  C   UNL     1     -11.070  23.925 -12.354  0.00  0.00    +0.037 A 
ATOM     16  C   UNL     1     -11.270  25.106 -13.198  0.00  0.00    +0.013 A 
ATOM     17  C   UNL     1     -12.298  26.062 -12.871  0.00  0.00    +0.005 A 
ATOM     18  C   UNL     1     -13.135  25.840 -11.694  0.00  0.00    -0.033 A 
ATOM     28  C   UNL     1     -12.918  24.657 -10.878  0.00  0.00    +0.005 A 
ATOM     29  C   UNL     1     -11.912  23.718 -11.195  0.00  0.00    +0.013 A 
BRANCH  18  19
ATOM     19  C   UNL     1     -14.241  26.819 -11.258  0.00  0.00    +0.119 C 
BRANCH  19  20
ATOM     20  N   UNL     1     -13.816  28.186 -10.832  0.00  0.00    -0.302 NA
ATOM     21  C   UNL     1     -13.521  28.254  -9.331  0.00  0.00    +0.066 C 
ATOM     22  C   UNL     1     -13.056  29.684  -8.906  0.00  0.00    -0.064 C 
ATOM     23  N   UNL     1     -14.129  30.703  -9.294  0.00  0.00    +0.379 N 
ATOM     24  C   UNL     1     -13.721  32.042  -8.844  0.00  0.00    -0.096 C 
ATOM     25  H   UNL     1     -15.063  30.433  -8.749  0.00  0.00    -0.082 HD
ATOM     26  C   UNL     1     -14.430  30.640 -10.784  0.00  0.00    -0.064 C 
ATOM     27  C   UNL     1     -14.863  29.207 -11.201  0.00  0.00    +0.066 C 
ENDBRANCH  19  20
ENDBRANCH  18  19
ENDBRANCH  14  15
ENDBRANCH  12  13
TORSDOF 6
ENDMDL
