MODEL 1
REMARK VINA RESULT:      -8.3      0.000      0.000
REMARK  Name = C:\Users\Docking\Desktop\test protocol\1iep_ligandH.pdb
REMARK  8 active torsions:
REMARK  status: ('A' for Active; 'I' for Inactive)
REMARK    1  A    between atoms: _5  and  _11
REMARK    2  A    between atoms: _19  and  _21
REMARK    3  A    between atoms: _22  and  _66
REMARK    4  A    between atoms: _27  and  _30
REMARK    5  A    between atoms: _32  and  _33
REMARK    6  A    between atoms: _38  and  _43
REMARK    7  A    between atoms: _43  and  _46
REMARK    8  A    between atoms: _53  and  _55
REMARK                            x       y       z     vdW  Elec       q    Type
REMARK                         _______ _______ _______ _____ _____    ______ ____
ROOT
ATOM     10  C   UNL     1       9.566  23.524   8.761  0.00  0.00    +0.038 A 
ATOM     11  C   UNL     1      10.811  23.554   8.083  0.00  0.00    +0.047 A 
ATOM     12  C   UNL     1      11.920  22.713   8.508  0.00  0.00    +0.035 A 
ATOM     32  C   UNL     1      11.724  21.851   9.626  0.00  0.00    +0.024 A 
ATOM     33  C   UNL     1      10.465  21.809  10.327  0.00  0.00    +0.007 A 
ATOM     34  C   UNL     1       9.369  22.638   9.914  0.00  0.00    -0.029 A 
ATOM     35  C   UNL     1       8.043  22.556  10.707  0.00  0.00    +0.045 C 
ENDROOT
BRANCH  10   9
ATOM      4  C   UNL     1       7.369  27.783   8.493  0.00  0.00    +0.077 A 
ATOM      5  C   UNL     1       8.342  28.405   9.346  0.00  0.00    +0.048 A 
ATOM      6  C   UNL     1       9.387  27.591   9.838  0.00  0.00    +0.116 A 
ATOM      7  N   UNL     1       9.446  26.258   9.496  0.00  0.00    -0.223 NA
ATOM      8  C   UNL     1       8.491  25.690   8.673  0.00  0.00    +0.220 A 
ATOM      9  N   UNL     1       8.536  24.352   8.310  0.00  0.00    -0.283 N 
ATOM     36  H   UNL     1       7.808  23.969   7.707  0.00  0.00    +0.155 HD
ATOM     37  N   UNL     1       7.482  26.444   8.191  0.00  0.00    -0.214 NA
BRANCH   4   3
ATOM      1  C   UNL     1       4.559  30.419   7.820  0.00  0.00    +0.020 A 
ATOM      2  C   UNL     1       5.683  29.756   8.439  0.00  0.00    +0.013 A 
ATOM      3  C   UNL     1       6.207  28.511   7.892  0.00  0.00    +0.019 A 
ATOM     38  C   UNL     1       5.567  27.960   6.708  0.00  0.00    +0.120 A 
ATOM     39  N   UNL     1       4.485  28.620   6.134  0.00  0.00    -0.263 NA
ATOM     40  C   UNL     1       3.971  29.818   6.652  0.00  0.00    +0.111 A 
ENDBRANCH   4   3
ENDBRANCH  10   9
BRANCH  12  13
ATOM     13  N   UNL     1      13.210  22.706   7.864  0.00  0.00    -0.281 N 
ATOM     14  C   UNL     1      13.487  22.557   6.515  0.00  0.00    +0.248 C 
ATOM     30  O   UNL     1      12.675  22.191   5.678  0.00  0.00    -0.270 OA
ATOM     31  H   UNL     1      14.016  22.826   8.476  0.00  0.00    +0.155 HD
BRANCH  14  15
ATOM     15  C   UNL     1      14.871  22.842   6.026  0.00  0.00    +0.037 A 
ATOM     16  C   UNL     1      15.178  22.881   4.594  0.00  0.00    +0.013 A 
ATOM     17  C   UNL     1      16.524  23.141   4.150  0.00  0.00    +0.005 A 
ATOM     18  C   UNL     1      17.574  23.366   5.141  0.00  0.00    -0.033 A 
ATOM     28  C   UNL     1      17.241  23.326   6.555  0.00  0.00    +0.005 A 
ATOM     29  C   UNL     1      15.922  23.070   6.994  0.00  0.00    +0.013 A 
BRANCH  18  19
ATOM     19  C   UNL     1      19.043  23.629   4.758  0.00  0.00    +0.119 C 
BRANCH  19  20
ATOM     20  N   UNL     1      19.320  24.803   3.877  0.00  0.00    -0.302 NA
ATOM     21  C   UNL     1      20.817  25.105   3.778  0.00  0.00    +0.066 C 
ATOM     22  C   UNL     1      21.091  26.322   2.834  0.00  0.00    -0.064 C 
ATOM     23  N   UNL     1      20.325  27.543   3.346  0.00  0.00    +0.379 N 
ATOM     24  C   UNL     1      20.625  28.703   2.494  0.00  0.00    -0.096 C 
ATOM     25  H   UNL     1      20.697  27.770   4.372  0.00  0.00    -0.082 HD
ATOM     26  C   UNL     1      18.835  27.250   3.451  0.00  0.00    -0.064 C 
ATOM     27  C   UNL     1      18.576  26.021   4.367  0.00  0.00    +0.066 C 
ENDBRANCH  19  20
ENDBRANCH  18  19
ENDBRANCH  14  15
ENDBRANCH  12  13
TORSDOF 6
ENDMDL
MODEL 2
REMARK VINA RESULT:      -7.9      1.362      2.139
REMARK  Name = C:\Users\Docking\Desktop\test protocol\1iep_ligandH.pdb
REMARK  8 active torsions:
REMARK  status: ('A' for Active; 'I' for Inactive)
REMARK    1  A    between atoms: _5  and  _11
REMARK    2  A    between atoms: _19  and  _21
REMARK    3  A    between atoms: _22  and  _66
REMARK    4  A    between atoms: _27  and  _30
REMARK    5  A    between atoms: _32  and  _33
REMARK    6  A    between atoms: _38  and  _43
REMARK    7  A    between atoms: _43  and  _46
REMARK    8  A    between atoms: _53  and  _55
REMARK                            x       y       z     vdW  Elec       q    Type
REMARK                         _______ _______ _______ _____ _____    ______ ____
ROOT
ATOM     10  C   UNL     1       9.451  23.838   8.517  0.00  0.00    +0.038 A 
ATOM     11  C   UNL     1      10.668  24.025   7.815  0.00  0.00    +0.047 A 
ATOM     12  C   UNL     1      11.862  23.272   8.165  0.00  0.00    +0.035 A 
ATOM     32  C   UNL     1      11.780  22.333   9.234  0.00  0.00    +0.024 A 
ATOM     33  C   UNL     1      10.550  22.131   9.960  0.00  0.00    +0.007 A 
ATOM     34  C   UNL     1       9.370  22.873   9.621  0.00  0.00    -0.029 A 
ATOM     35  C   UNL     1       8.081  22.620  10.437  0.00  0.00    +0.045 C 
ENDROOT
BRANCH  10   9
ATOM      4  C   UNL     1       6.958  27.937   8.371  0.00  0.00    +0.077 A 
ATOM      5  C   UNL     1       7.949  28.636   9.137  0.00  0.00    +0.048 A 
ATOM      6  C   UNL     1       9.083  27.903   9.554  0.00  0.00    +0.116 A 
ATOM      7  N   UNL     1       9.205  26.570   9.226  0.00  0.00    -0.223 NA
ATOM      8  C   UNL     1       8.229  25.926   8.488  0.00  0.00    +0.220 A 
ATOM      9  N   UNL     1       8.335  24.588   8.139  0.00  0.00    -0.283 N 
ATOM     36  H   UNL     1       7.590  24.147   7.600  0.00  0.00    +0.155 HD
ATOM     37  N   UNL     1       7.136  26.603   8.078  0.00  0.00    -0.214 NA
BRANCH   4   3
ATOM      1  C   UNL     1       3.339  28.476   6.987  0.00  0.00    +0.020 A 
ATOM      2  C   UNL     1       4.523  27.811   7.481  0.00  0.00    +0.013 A 
ATOM      3  C   UNL     1       5.706  28.575   7.855  0.00  0.00    +0.019 A 
ATOM     38  C   UNL     1       5.657  30.023   7.718  0.00  0.00    +0.120 A 
ATOM     39  N   UNL     1       4.504  30.636   7.239  0.00  0.00    -0.263 NA
ATOM     40  C   UNL     1       3.360  29.911   6.874  0.00  0.00    +0.111 A 
ENDBRANCH   4   3
ENDBRANCH  10   9
BRANCH  12  13
ATOM     13  N   UNL     1      13.129  23.425   7.493  0.00  0.00    -0.281 N 
ATOM     14  C   UNL     1      13.555  22.810   6.327  0.00  0.00    +0.248 C 
ATOM     30  O   UNL     1      12.988  21.865   5.798  0.00  0.00    -0.270 OA
ATOM     31  H   UNL     1      13.792  24.065   7.929  0.00  0.00    +0.155 HD
BRANCH  14  15
ATOM     15  C   UNL     1      14.797  23.305   5.660  0.00  0.00    +0.037 A 
ATOM     16  C   UNL     1      16.100  23.228   6.327  0.00  0.00    +0.013 A 
ATOM     17  C   UNL     1      17.280  23.729   5.669  0.00  0.00    +0.005 A 
ATOM     18  C   UNL     1      17.163  24.312   4.334  0.00  0.00    -0.033 A 
ATOM     28  C   UNL     1      15.859  24.371   3.694  0.00  0.00    +0.005 A 
ATOM     29  C   UNL     1      14.700  23.882   4.336  0.00  0.00    +0.013 A 
BRANCH  18  19
ATOM     19  C   UNL     1      18.365  24.890   3.565  0.00  0.00    +0.119 C 
BRANCH  19  20
ATOM     20  N   UNL     1      19.654  24.141   3.648  0.00  0.00    -0.302 NA
ATOM     21  C   UNL     1      20.662  24.830   4.573  0.00  0.00    +0.066 C 
ATOM     22  C   UNL     1      21.996  24.020   4.665  0.00  0.00    -0.064 C 
ATOM     23  N   UNL     1      22.581  23.844   3.262  0.00  0.00    +0.379 N 
ATOM     24  C   UNL     1      23.865  23.134   3.352  0.00  0.00    -0.096 C 
ATOM     25  H   UNL     1      22.784  24.860   2.851  0.00  0.00    -0.082 HD
ATOM     26  C   UNL     1      21.584  23.162   2.336  0.00  0.00    -0.064 C 
ATOM     27  C   UNL     1      20.251  23.959   2.274  0.00  0.00    +0.066 C 
ENDBRANCH  19  20
ENDBRANCH  18  19
ENDBRANCH  14  15
ENDBRANCH  12  13
TORSDOF 6
ENDMDL
MODEL 3
REMARK VINA RESULT:      -7.9      2.518     12.428
REMARK  Name = C:\Users\Docking\Desktop\test protocol\1iep_ligandH.pdb
REMARK  8 active torsions:
REMARK  status: ('A' for Active; 'I' for Inactive)
REMARK    1  A    between atoms: _5  and  _11
REMARK    2  A    between atoms: _19  and  _21
REMARK    3  A    between atoms: _22  and  _66
REMARK    4  A    between atoms: _27  and  _30
REMARK    5  A    between atoms: _32  and  _33
REMARK    6  A    between atoms: _38  and  _43
REMARK    7  A    between atoms: _43  and  _46
REMARK    8  A    between atoms: _53  and  _55
REMARK                            x       y       z     vdW  Elec       q    Type
REMARK                         _______ _______ _______ _____ _____    ______ ____
ROOT
ATOM     10  C   UNL     1      19.733  25.828   3.779  0.00  0.00    +0.038 A 
ATOM     11  C   UNL     1      18.381  25.756   4.200  0.00  0.00    +0.047 A 
ATOM     12  C   UNL     1      17.640  24.505   4.138  0.00  0.00    +0.035 A 
ATOM     32  C   UNL     1      18.308  23.347   3.644  0.00  0.00    +0.024 A 
ATOM     33  C   UNL     1      19.682  23.404   3.211  0.00  0.00    +0.007 A 
ATOM     34  C   UNL     1      20.418  24.635   3.267  0.00  0.00    -0.029 A 
ATOM     35  C   UNL     1      21.886  24.638   2.783  0.00  0.00    +0.045 C 
ENDROOT
BRANCH  10   9
ATOM      4  C   UNL     1      21.288  29.936   1.843  0.00  0.00    +0.077 A 
ATOM      5  C   UNL     1      20.756  29.599   0.554  0.00  0.00    +0.048 A 
ATOM      6  C   UNL     1      20.096  28.356   0.430  0.00  0.00    +0.116 A 
ATOM      7  N   UNL     1      19.981  27.521   1.520  0.00  0.00    -0.223 NA
ATOM      8  C   UNL     1      20.507  27.876   2.748  0.00  0.00    +0.220 A 
ATOM      9  N   UNL     1      20.397  27.055   3.860  0.00  0.00    -0.283 N 
ATOM     36  H   UNL     1      20.805  27.349   4.747  0.00  0.00    +0.155 HD
ATOM     37  N   UNL     1      21.144  29.057   2.893  0.00  0.00    -0.214 NA
BRANCH   4   3
ATOM      1  C   UNL     1      22.649  33.126   3.652  0.00  0.00    +0.020 A 
ATOM      2  C   UNL     1      21.932  31.893   3.422  0.00  0.00    +0.013 A 
ATOM      3  C   UNL     1      22.009  31.215   2.134  0.00  0.00    +0.019 A 
ATOM     38  C   UNL     1      22.828  31.816   1.092  0.00  0.00    +0.120 A 
ATOM     39  N   UNL     1      23.505  33.005   1.341  0.00  0.00    -0.263 NA
ATOM     40  C   UNL     1      23.437  33.667   2.576  0.00  0.00    +0.111 A 
ENDBRANCH   4   3
ENDBRANCH  10   9
BRANCH  12  13
ATOM     13  N   UNL     1      16.262  24.373   4.544  0.00  0.00    -0.281 N 
ATOM     14  C   UNL     1      15.690  23.360   5.296  0.00  0.00    +0.248 C 
ATOM     30  O   UNL     1      16.237  22.299   5.556  0.00  0.00    -0.270 OA
ATOM     31  H   UNL     1      15.633  25.115   4.239  0.00  0.00    +0.155 HD
BRANCH  14  15
ATOM     15  C   UNL     1      14.305  23.548   5.825  0.00  0.00    +0.037 A 
ATOM     16  C   UNL     1      13.924  23.057   7.151  0.00  0.00    +0.013 A 
ATOM     17  C   UNL     1      12.576  23.237   7.630  0.00  0.00    +0.005 A 
ATOM     18  C   UNL     1      11.599  23.913   6.781  0.00  0.00    -0.033 A 
ATOM     28  C   UNL     1      12.005  24.395   5.471  0.00  0.00    +0.005 A 
ATOM     29  C   UNL     1      13.325  24.220   4.998  0.00  0.00    +0.013 A 
BRANCH  18  19
ATOM     19  C   UNL     1      10.133  24.129   7.201  0.00  0.00    +0.119 C 
BRANCH  19  20
ATOM     20  N   UNL     1       9.733  25.512   7.597  0.00  0.00    -0.302 NA
ATOM     21  C   UNL     1      10.679  26.108   8.643  0.00  0.00    +0.066 C 
ATOM     22  C   UNL     1      10.259  27.563   9.029  0.00  0.00    -0.064 C 
ATOM     23  N   UNL     1       8.819  27.555   9.544  0.00  0.00    +0.379 N 
ATOM     24  C   UNL     1       8.440  28.912   9.962  0.00  0.00    -0.096 C 
ATOM     25  H   UNL     1       8.787  26.901  10.447  0.00  0.00    -0.082 HD
ATOM     26  C   UNL     1       7.871  26.962   8.512  0.00  0.00    -0.064 C 
ATOM     27  C   UNL     1       8.315  25.527   8.113  0.00  0.00    +0.066 C 
ENDBRANCH  19  20
ENDBRANCH  18  19
ENDBRANCH  14  15
ENDBRANCH  12  13
TORSDOF 6
ENDMDL
MODEL 4
REMARK VINA RESULT:      -7.9      1.718      2.234
REMARK  Name = C:\Users\Docking\Desktop\test protocol\1iep_ligandH.pdb
REMARK  8 active torsions:
REMARK  status: ('A' for Active; 'I' for Inactive)
REMARK    1  A    between atoms: _5  and  _11
REMARK    2  A    between atoms: _19  and  _21
REMARK    3  A    between atoms: _22  and  _66
REMARK    4  A    between atoms: _27  and  _30
REMARK    5  A    between atoms: _32  and  _33
REMARK    6  A    between atoms: _38  and  _43
REMARK    7  A    between atoms: _43  and  _46
REMARK    8  A    between atoms: _53  and  _55
REMARK                            x       y       z     vdW  Elec       q    Type
REMARK                         _______ _______ _______ _____ _____    ______ ____
ROOT
ATOM     10  C   UNL     1       9.398  22.884   8.989  0.00  0.00    +0.038 A 
ATOM     11  C   UNL     1      10.710  23.002   8.463  0.00  0.00    +0.047 A 
ATOM     12  C   UNL     1      11.775  22.107   8.890  0.00  0.00    +0.035 A 
ATOM     32  C   UNL     1      11.467  21.101   9.852  0.00  0.00    +0.024 A 
ATOM     33  C   UNL     1      10.139  20.968  10.398  0.00  0.00    +0.007 A 
ATOM     34  C   UNL     1       9.086  21.850   9.982  0.00  0.00    -0.029 A 
ATOM     35  C   UNL     1       7.682  21.665  10.606  0.00  0.00    +0.045 C 
ENDROOT
BRANCH  10   9
ATOM      4  C   UNL     1       7.561  27.296   8.550  0.00  0.00    +0.077 A 
ATOM      5  C   UNL     1       8.638  27.883   9.293  0.00  0.00    +0.048 A 
ATOM      6  C   UNL     1       9.641  27.014   9.777  0.00  0.00    +0.116 A 
ATOM      7  N   UNL     1       9.563  25.661   9.530  0.00  0.00    -0.223 NA
ATOM      8  C   UNL     1       8.509  25.127   8.811  0.00  0.00    +0.220 A 
ATOM      9  N   UNL     1       8.414  23.770   8.544  0.00  0.00    -0.283 N 
ATOM     36  H   UNL     1       7.617  23.414   8.016  0.00  0.00    +0.155 HD
ATOM     37  N   UNL     1       7.538  25.936   8.339  0.00  0.00    -0.214 NA
BRANCH   4   3
ATOM      1  C   UNL     1       5.021  30.170   7.779  0.00  0.00    +0.020 A 
ATOM      2  C   UNL     1       6.127  29.453   8.370  0.00  0.00    +0.013 A 
ATOM      3  C   UNL     1       6.427  28.084   7.970  0.00  0.00    +0.019 A 
ATOM     38  C   UNL     1       5.581  27.464   6.961  0.00  0.00    +0.120 A 
ATOM     39  N   UNL     1       4.522  28.178   6.410  0.00  0.00    -0.263 NA
ATOM     40  C   UNL     1       4.223  29.496   6.788  0.00  0.00    +0.111 A 
ENDBRANCH   4   3
ENDBRANCH  10   9
BRANCH  12  13
ATOM     13  N   UNL     1      13.128  22.184   8.397  0.00  0.00    -0.281 N 
ATOM     14  C   UNL     1      14.304  22.029   9.112  0.00  0.00    +0.248 C 
ATOM     30  O   UNL     1      14.375  22.012  10.332  0.00  0.00    -0.270 OA
ATOM     31  H   UNL     1      13.231  22.375   7.401  0.00  0.00    +0.155 HD
BRANCH  14  15
ATOM     15  C   UNL     1      15.590  21.886   8.364  0.00  0.00    +0.037 A 
ATOM     16  C   UNL     1      16.782  21.321   9.001  0.00  0.00    +0.013 A 
ATOM     17  C   UNL     1      18.014  21.211   8.262  0.00  0.00    +0.005 A 
ATOM     18  C   UNL     1      18.060  21.666   6.874  0.00  0.00    -0.033 A 
ATOM     28  C   UNL     1      16.862  22.217   6.265  0.00  0.00    +0.005 A 
ATOM     29  C   UNL     1      15.652  22.328   6.987  0.00  0.00    +0.013 A 
BRANCH  18  19
ATOM     19  C   UNL     1      19.338  21.605   6.016  0.00  0.00    +0.119 C 
BRANCH  19  20
ATOM     20  N   UNL     1      19.715  22.839   5.264  0.00  0.00    -0.302 NA
ATOM     21  C   UNL     1      19.537  22.668   3.753  0.00  0.00    +0.066 C 
ATOM     22  C   UNL     1      19.915  23.975   2.984  0.00  0.00    -0.064 C 
ATOM     23  N   UNL     1      21.356  24.362   3.318  0.00  0.00    +0.379 N 
ATOM     24  C   UNL     1      21.734  25.558   2.551  0.00  0.00    -0.096 C 
ATOM     25  H   UNL     1      22.016  23.526   2.987  0.00  0.00    -0.082 HD
ATOM     26  C   UNL     1      21.543  24.532   4.819  0.00  0.00    -0.064 C 
ATOM     27  C   UNL     1      21.137  23.237   5.576  0.00  0.00    +0.066 C 
ENDBRANCH  19  20
ENDBRANCH  18  19
ENDBRANCH  14  15
ENDBRANCH  12  13
TORSDOF 6
ENDMDL
MODEL 5
REMARK VINA RESULT:      -7.8      5.729     10.246
REMARK  Name = C:\Users\Docking\Desktop\test protocol\1iep_ligandH.pdb
REMARK  8 active torsions:
REMARK  status: ('A' for Active; 'I' for Inactive)
REMARK    1  A    between atoms: _5  and  _11
REMARK    2  A    between atoms: _19  and  _21
REMARK    3  A    between atoms: _22  and  _66
REMARK    4  A    between atoms: _27  and  _30
REMARK    5  A    between atoms: _32  and  _33
REMARK    6  A    between atoms: _38  and  _43
REMARK    7  A    between atoms: _43  and  _46
REMARK    8  A    between atoms: _53  and  _55
REMARK                            x       y       z     vdW  Elec       q    Type
REMARK                         _______ _______ _______ _____ _____    ______ ____
ROOT
ATOM     10  C   UNL     1       9.876  22.114   8.651  0.00  0.00    +0.038 A 
ATOM     11  C   UNL     1       9.903  21.425   9.891  0.00  0.00    +0.047 A 
ATOM     12  C   UNL     1      10.882  20.382  10.151  0.00  0.00    +0.035 A 
ATOM     32  C   UNL     1      11.823  20.068   9.127  0.00  0.00    +0.024 A 
ATOM     33  C   UNL     1      11.809  20.757   7.861  0.00  0.00    +0.007 A 
ATOM     34  C   UNL     1      10.843  21.786   7.597  0.00  0.00    -0.029 A 
ATOM     35  C   UNL     1      10.871  22.487   6.220  0.00  0.00    +0.045 C 
ENDROOT
BRANCH  10   9
ATOM      4  C   UNL     1       8.438  26.693   8.746  0.00  0.00    +0.077 A 
ATOM      5  C   UNL     1       9.703  27.141   9.254  0.00  0.00    +0.048 A 
ATOM      6  C   UNL     1      10.694  26.161   9.484  0.00  0.00    +0.116 A 
ATOM      7  N   UNL     1      10.430  24.834   9.221  0.00  0.00    -0.223 NA
ATOM      8  C   UNL     1       9.199  24.435   8.734  0.00  0.00    +0.220 A 
ATOM      9  N   UNL     1       8.914  23.107   8.456  0.00  0.00    -0.283 N 
ATOM     36  H   UNL     1       7.991  22.853   8.104  0.00  0.00    +0.155 HD
ATOM     37  N   UNL     1       8.235  25.352   8.507  0.00  0.00    -0.214 NA
BRANCH   4   3
ATOM      1  C   UNL     1       6.060  29.798   8.682  0.00  0.00    +0.020 A 
ATOM      2  C   UNL     1       7.188  28.953   9.001  0.00  0.00    +0.013 A 
ATOM      3  C   UNL     1       7.292  27.608   8.449  0.00  0.00    +0.019 A 
ATOM     38  C   UNL     1       6.229  27.145   7.569  0.00  0.00    +0.120 A 
ATOM     39  N   UNL     1       5.154  27.980   7.281  0.00  0.00    -0.263 NA
ATOM     40  C   UNL     1       5.043  29.275   7.808  0.00  0.00    +0.111 A 
ENDBRANCH   4   3
ENDBRANCH  10   9
BRANCH  12  13
ATOM     13  N   UNL     1      10.953  19.643  11.387  0.00  0.00    -0.281 N 
ATOM     14  C   UNL     1      10.461  18.375  11.650  0.00  0.00    +0.248 C 
ATOM     30  O   UNL     1       9.693  17.766  10.919  0.00  0.00    -0.270 OA
ATOM     31  H   UNL     1      11.422  20.111  12.162  0.00  0.00    +0.155 HD
BRANCH  14  15
ATOM     15  C   UNL     1      10.869  17.690  12.914  0.00  0.00    +0.037 A 
ATOM     16  C   UNL     1      12.113  16.920  12.994  0.00  0.00    +0.013 A 
ATOM     17  C   UNL     1      12.474  16.255  14.220  0.00  0.00    +0.005 A 
ATOM     18  C   UNL     1      11.590  16.358  15.379  0.00  0.00    -0.033 A 
ATOM     28  C   UNL     1      10.365  17.133  15.274  0.00  0.00    +0.005 A 
ATOM     29  C   UNL     1      10.007  17.785  14.073  0.00  0.00    +0.013 A 
BRANCH  18  19
ATOM     19  C   UNL     1      11.886  15.664  16.721  0.00  0.00    +0.119 C 
BRANCH  19  20
ATOM     20  N   UNL     1      12.443  16.509  17.820  0.00  0.00    -0.302 NA
ATOM     21  C   UNL     1      11.342  17.082  18.717  0.00  0.00    +0.066 C 
ATOM     22  C   UNL     1      11.943  17.944  19.875  0.00  0.00    -0.064 C 
ATOM     23  N   UNL     1      12.796  19.066  19.280  0.00  0.00    +0.379 N 
ATOM     24  C   UNL     1      13.316  19.914  20.364  0.00  0.00    -0.096 C 
ATOM     25  H   UNL     1      12.131  19.697  18.646  0.00  0.00    -0.082 HD
ATOM     26  C   UNL     1      13.892  18.505  18.384  0.00  0.00    -0.064 C 
ATOM     27  C   UNL     1      13.285  17.626  17.255  0.00  0.00    +0.066 C 
ENDBRANCH  19  20
ENDBRANCH  18  19
ENDBRANCH  14  15
ENDBRANCH  12  13
TORSDOF 6
ENDMDL
