MODEL 1
REMARK VINA RESULT:      -9.9      0.000      0.000
REMARK  Name = C:\Users\Docking\Desktop\test protocol\1iep_ligandH.pdb
REMARK  8 active torsions:
REMARK  status: ('A' for Active; 'I' for Inactive)
REMARK    1  A    between atoms: _5  and  _11
REMARK    2  A    between atoms: _19  and  _21
REMARK    3  A    between atoms: _22  and  _66
REMARK    4  A    between atoms: _27  and  _30
REMARK    5  A    between atoms: _32  and  _33
REMARK    6  A    between atoms: _38  and  _43
REMARK    7  A    between atoms: _43  and  _46
REMARK    8  A    between atoms: _53  and  _55
REMARK                            x       y       z     vdW  Elec       q    Type
REMARK                         _______ _______ _______ _____ _____    ______ ____
ROOT
ATOM     10  C   UNL     1      -9.060  15.243  32.921  0.00  0.00    +0.038 A 
ATOM     11  C   UNL     1      -9.099  14.921  31.541  0.00  0.00    +0.047 A 
ATOM     12  C   UNL     1      -8.857  15.934  30.524  0.00  0.00    +0.035 A 
ATOM     32  C   UNL     1      -8.576  17.264  30.950  0.00  0.00    +0.024 A 
ATOM     33  C   UNL     1      -8.533  17.610  32.349  0.00  0.00    +0.007 A 
ATOM     34  C   UNL     1      -8.773  16.616  33.356  0.00  0.00    -0.029 A 
ATOM     35  C   UNL     1      -8.721  17.044  34.841  0.00  0.00    +0.045 C 
ENDROOT
BRANCH  10   9
ATOM      4  C   UNL     1     -11.917  12.902  35.985  0.00  0.00    +0.077 A 
ATOM      5  C   UNL     1     -13.018  13.785  35.726  0.00  0.00    +0.048 A 
ATOM      6  C   UNL     1     -12.805  14.833  34.803  0.00  0.00    +0.116 A 
ATOM      7  N   UNL     1     -11.579  14.978  34.190  0.00  0.00    -0.223 NA
ATOM      8  C   UNL     1     -10.538  14.110  34.464  0.00  0.00    +0.220 A 
ATOM      9  N   UNL     1      -9.299  14.232  33.854  0.00  0.00    -0.283 N 
ATOM     36  H   UNL     1      -8.555  13.576  34.089  0.00  0.00    +0.155 HD
ATOM     37  N   UNL     1     -10.716  13.102  35.343  0.00  0.00    -0.214 NA
BRANCH   4   3
ATOM      1  C   UNL     1     -11.679  10.695  39.206  0.00  0.00    +0.020 A 
ATOM      2  C   UNL     1     -11.592  11.842  38.333  0.00  0.00    +0.013 A 
ATOM      3  C   UNL     1     -11.987  11.745  36.933  0.00  0.00    +0.019 A 
ATOM     38  C   UNL     1     -12.472  10.462  36.446  0.00  0.00    +0.120 A 
ATOM     39  N   UNL     1     -12.544   9.374  37.310  0.00  0.00    -0.263 NA
ATOM     40  C   UNL     1     -12.164   9.456  38.658  0.00  0.00    +0.111 A 
ENDBRANCH   4   3
ENDBRANCH  10   9
BRANCH  12  13
ATOM     13  N   UNL     1      -8.892  15.667  29.108  0.00  0.00    -0.281 N 
ATOM     14  C   UNL     1      -9.964  15.804  28.241  0.00  0.00    +0.248 C 
ATOM     30  O   UNL     1     -11.122  15.975  28.596  0.00  0.00    -0.270 OA
ATOM     31  H   UNL     1      -8.020  15.338  28.693  0.00  0.00    +0.155 HD
BRANCH  14  15
ATOM     15  C   UNL     1      -9.718  15.727  26.769  0.00  0.00    +0.037 A 
ATOM     16  C   UNL     1      -8.498  15.116  26.234  0.00  0.00    +0.013 A 
ATOM     17  C   UNL     1      -8.278  15.070  24.810  0.00  0.00    +0.005 A 
ATOM     18  C   UNL     1      -9.280  15.636  23.911  0.00  0.00    -0.033 A 
ATOM     28  C   UNL     1     -10.483  16.231  24.469  0.00  0.00    +0.005 A 
ATOM     29  C   UNL     1     -10.703  16.279  25.864  0.00  0.00    +0.013 A 
BRANCH  18  19
ATOM     19  C   UNL     1      -9.118  15.649  22.380  0.00  0.00    +0.119 C 
BRANCH  19  20
ATOM     20  N   UNL     1      -7.887  16.290  21.828  0.00  0.00    -0.302 NA
ATOM     21  C   UNL     1      -8.069  17.796  21.618  0.00  0.00    +0.066 C 
ATOM     22  C   UNL     1      -6.765  18.455  21.062  0.00  0.00    -0.064 C 
ATOM     23  N   UNL     1      -6.369  17.769  19.753  0.00  0.00    +0.379 N 
ATOM     24  C   UNL     1      -5.175  18.425  19.198  0.00  0.00    -0.096 C 
ATOM     25  H   UNL     1      -7.203  17.916  19.029  0.00  0.00    -0.082 HD
ATOM     26  C   UNL     1      -6.188  16.271  19.953  0.00  0.00    -0.064 C 
ATOM     27  C   UNL     1      -7.481  15.632  20.533  0.00  0.00    +0.066 C 
ENDBRANCH  19  20
ENDBRANCH  18  19
ENDBRANCH  14  15
ENDBRANCH  12  13
TORSDOF 6
ENDMDL
MODEL 2
REMARK VINA RESULT:      -9.2      3.514      4.260
REMARK  Name = C:\Users\Docking\Desktop\test protocol\1iep_ligandH.pdb
REMARK  8 active torsions:
REMARK  status: ('A' for Active; 'I' for Inactive)
REMARK    1  A    between atoms: _5  and  _11
REMARK    2  A    between atoms: _19  and  _21
REMARK    3  A    between atoms: _22  and  _66
REMARK    4  A    between atoms: _27  and  _30
REMARK    5  A    between atoms: _32  and  _33
REMARK    6  A    between atoms: _38  and  _43
REMARK    7  A    between atoms: _43  and  _46
REMARK    8  A    between atoms: _53  and  _55
REMARK                            x       y       z     vdW  Elec       q    Type
REMARK                         _______ _______ _______ _____ _____    ______ ____
ROOT
ATOM     10  C   UNL     1      -9.418  15.486  30.870  0.00  0.00    +0.038 A 
ATOM     11  C   UNL     1      -8.995  15.597  29.521  0.00  0.00    +0.047 A 
ATOM     12  C   UNL     1      -8.272  16.769  29.053  0.00  0.00    +0.035 A 
ATOM     32  C   UNL     1      -7.994  17.809  29.988  0.00  0.00    +0.024 A 
ATOM     33  C   UNL     1      -8.417  17.713  31.363  0.00  0.00    +0.007 A 
ATOM     34  C   UNL     1      -9.133  16.560  31.830  0.00  0.00    -0.029 A 
ATOM     35  C   UNL     1      -9.568  16.513  33.313  0.00  0.00    +0.045 C 
ENDROOT
BRANCH  10   9
ATOM      4  C   UNL     1     -13.316  12.685  30.880  0.00  0.00    +0.077 A 
ATOM      5  C   UNL     1     -14.047  13.598  30.050  0.00  0.00    +0.048 A 
ATOM      6  C   UNL     1     -13.386  14.781  29.648  0.00  0.00    +0.116 A 
ATOM      7  N   UNL     1     -12.091  15.021  30.052  0.00  0.00    -0.223 NA
ATOM      8  C   UNL     1     -11.415  14.120  30.854  0.00  0.00    +0.220 A 
ATOM      9  N   UNL     1     -10.109  14.338  31.265  0.00  0.00    -0.283 N 
ATOM     36  H   UNL     1      -9.648  13.652  31.863  0.00  0.00    +0.155 HD
ATOM     37  N   UNL     1     -12.024  12.984  31.252  0.00  0.00    -0.214 NA
BRANCH   4   3
ATOM      1  C   UNL     1     -15.768   9.952  32.228  0.00  0.00    +0.020 A 
ATOM      2  C   UNL     1     -15.277  11.223  31.748  0.00  0.00    +0.013 A 
ATOM      3  C   UNL     1     -13.876  11.391  31.384  0.00  0.00    +0.019 A 
ATOM     38  C   UNL     1     -12.990  10.244  31.518  0.00  0.00    +0.120 A 
ATOM     39  N   UNL     1     -13.491   9.033  31.986  0.00  0.00    -0.263 NA
ATOM     40  C   UNL     1     -14.837   8.859  32.340  0.00  0.00    +0.111 A 
ENDBRANCH   4   3
ENDBRANCH  10   9
BRANCH  12  13
ATOM     13  N   UNL     1      -7.825  16.942  27.694  0.00  0.00    -0.281 N 
ATOM     14  C   UNL     1      -8.521  17.497  26.632  0.00  0.00    +0.248 C 
ATOM     30  O   UNL     1      -9.719  17.736  26.641  0.00  0.00    -0.270 OA
ATOM     31  H   UNL     1      -6.881  16.615  27.489  0.00  0.00    +0.155 HD
BRANCH  14  15
ATOM     15  C   UNL     1      -7.781  17.819  25.374  0.00  0.00    +0.037 A 
ATOM     16  C   UNL     1      -8.397  17.621  24.059  0.00  0.00    +0.013 A 
ATOM     17  C   UNL     1      -7.656  17.924  22.860  0.00  0.00    +0.005 A 
ATOM     18  C   UNL     1      -6.289  18.429  22.972  0.00  0.00    -0.033 A 
ATOM     28  C   UNL     1      -5.705  18.620  24.289  0.00  0.00    +0.005 A 
ATOM     29  C   UNL     1      -6.428  18.324  25.466  0.00  0.00    +0.013 A 
BRANCH  18  19
ATOM     19  C   UNL     1      -5.417  18.758  21.746  0.00  0.00    +0.119 C 
BRANCH  19  20
ATOM     20  N   UNL     1      -4.830  17.608  20.996  0.00  0.00    -0.302 NA
ATOM     21  C   UNL     1      -3.299  17.631  21.013  0.00  0.00    +0.066 C 
ATOM     22  C   UNL     1      -2.702  16.409  20.243  0.00  0.00    -0.064 C 
ATOM     23  N   UNL     1      -3.227  16.409  18.806  0.00  0.00    +0.379 N 
ATOM     24  C   UNL     1      -2.622  15.294  18.063  0.00  0.00    -0.096 C 
ATOM     25  H   UNL     1      -2.893  17.357  18.325  0.00  0.00    -0.082 HD
ATOM     26  C   UNL     1      -4.748  16.388  18.780  0.00  0.00    -0.064 C 
ATOM     27  C   UNL     1      -5.332  17.591  19.573  0.00  0.00    +0.066 C 
ENDBRANCH  19  20
ENDBRANCH  18  19
ENDBRANCH  14  15
ENDBRANCH  12  13
TORSDOF 6
ENDMDL
MODEL 3
REMARK VINA RESULT:      -9.0      3.092     13.156
REMARK  Name = C:\Users\Docking\Desktop\test protocol\1iep_ligandH.pdb
REMARK  8 active torsions:
REMARK  status: ('A' for Active; 'I' for Inactive)
REMARK    1  A    between atoms: _5  and  _11
REMARK    2  A    between atoms: _19  and  _21
REMARK    3  A    between atoms: _22  and  _66
REMARK    4  A    between atoms: _27  and  _30
REMARK    5  A    between atoms: _32  and  _33
REMARK    6  A    between atoms: _38  and  _43
REMARK    7  A    between atoms: _43  and  _46
REMARK    8  A    between atoms: _53  and  _55
REMARK                            x       y       z     vdW  Elec       q    Type
REMARK                         _______ _______ _______ _____ _____    ______ ____
ROOT
ATOM     10  C   UNL     1      -8.124  16.378  23.443  0.00  0.00    +0.038 A 
ATOM     11  C   UNL     1      -8.389  16.252  24.831  0.00  0.00    +0.047 A 
ATOM     12  C   UNL     1      -9.730  15.973  25.319  0.00  0.00    +0.035 A 
ATOM     32  C   UNL     1     -10.779  15.827  24.365  0.00  0.00    +0.024 A 
ATOM     33  C   UNL     1     -10.528  15.954  22.950  0.00  0.00    +0.007 A 
ATOM     34  C   UNL     1      -9.207  16.231  22.464  0.00  0.00    -0.029 A 
ATOM     35  C   UNL     1      -8.997  16.363  20.937  0.00  0.00    +0.045 C 
ENDROOT
BRANCH  10   9
ATOM      4  C   UNL     1      -3.919  18.646  23.908  0.00  0.00    +0.077 A 
ATOM      5  C   UNL     1      -4.374  19.379  25.055  0.00  0.00    +0.048 A 
ATOM      6  C   UNL     1      -5.699  19.148  25.488  0.00  0.00    +0.116 A 
ATOM      7  N   UNL     1      -6.500  18.250  24.818  0.00  0.00    -0.223 NA
ATOM      8  C   UNL     1      -6.031  17.561  23.715  0.00  0.00    +0.220 A 
ATOM      9  N   UNL     1      -6.817  16.646  23.031  0.00  0.00    -0.283 N 
ATOM     36  H   UNL     1      -6.436  16.164  22.217  0.00  0.00    +0.155 HD
ATOM     37  N   UNL     1      -4.770  17.764  23.280  0.00  0.00    -0.214 NA
BRANCH   4   3
ATOM      1  C   UNL     1      -0.029  18.671  23.500  0.00  0.00    +0.020 A 
ATOM      2  C   UNL     1      -1.333  18.531  24.105  0.00  0.00    +0.013 A 
ATOM      3  C   UNL     1      -2.544  18.777  23.332  0.00  0.00    +0.019 A 
ATOM     38  C   UNL     1      -2.398  19.166  21.937  0.00  0.00    +0.120 A 
ATOM     39  N   UNL     1      -1.129  19.295  21.382  0.00  0.00    -0.263 NA
ATOM     40  C   UNL     1       0.043  19.062  22.117  0.00  0.00    +0.111 A 
ENDBRANCH   4   3
ENDBRANCH  10   9
BRANCH  12  13
ATOM     13  N   UNL     1     -10.061  15.842  26.716  0.00  0.00    -0.281 N 
ATOM     14  C   UNL     1      -9.388  15.116  27.685  0.00  0.00    +0.248 C 
ATOM     30  O   UNL     1      -8.517  14.292  27.451  0.00  0.00    -0.270 OA
ATOM     31  H   UNL     1     -10.891  16.345  27.028  0.00  0.00    +0.155 HD
BRANCH  14  15
ATOM     15  C   UNL     1      -9.746  15.324  29.122  0.00  0.00    +0.037 A 
ATOM     16  C   UNL     1      -8.898  14.807  30.199  0.00  0.00    +0.013 A 
ATOM     17  C   UNL     1      -9.275  15.008  31.576  0.00  0.00    +0.005 A 
ATOM     18  C   UNL     1     -10.507  15.731  31.883  0.00  0.00    -0.033 A 
ATOM     28  C   UNL     1     -11.327  16.238  30.795  0.00  0.00    +0.005 A 
ATOM     29  C   UNL     1     -10.961  16.042  29.444  0.00  0.00    +0.013 A 
BRANCH  18  19
ATOM     19  C   UNL     1     -10.998  15.973  33.322  0.00  0.00    +0.119 C 
BRANCH  19  20
ATOM     20  N   UNL     1     -11.621  14.819  34.035  0.00  0.00    -0.302 NA
ATOM     21  C   UNL     1     -10.611  14.070  34.909  0.00  0.00    +0.066 C 
ATOM     22  C   UNL     1     -11.285  12.879  35.665  0.00  0.00    -0.064 C 
ATOM     23  N   UNL     1     -11.929  11.933  34.650  0.00  0.00    +0.379 N 
ATOM     24  C   UNL     1     -12.514  10.782  35.354  0.00  0.00    -0.096 C 
ATOM     25  H   UNL     1     -11.121  11.548  33.986  0.00  0.00    -0.082 HD
ATOM     26  C   UNL     1     -12.933  12.670  33.775  0.00  0.00    -0.064 C 
ATOM     27  C   UNL     1     -12.260  13.869  33.052  0.00  0.00    +0.066 C 
ENDBRANCH  19  20
ENDBRANCH  18  19
ENDBRANCH  14  15
ENDBRANCH  12  13
TORSDOF 6
ENDMDL
MODEL 4
REMARK VINA RESULT:      -9.0      6.484      9.008
REMARK  Name = C:\Users\Docking\Desktop\test protocol\1iep_ligandH.pdb
REMARK  8 active torsions:
REMARK  status: ('A' for Active; 'I' for Inactive)
REMARK    1  A    between atoms: _5  and  _11
REMARK    2  A    between atoms: _19  and  _21
REMARK    3  A    between atoms: _22  and  _66
REMARK    4  A    between atoms: _27  and  _30
REMARK    5  A    between atoms: _32  and  _33
REMARK    6  A    between atoms: _38  and  _43
REMARK    7  A    between atoms: _43  and  _46
REMARK    8  A    between atoms: _53  and  _55
REMARK                            x       y       z     vdW  Elec       q    Type
REMARK                         _______ _______ _______ _____ _____    ______ ____
ROOT
ATOM     10  C   UNL     1      -7.344  17.711  26.681  0.00  0.00    +0.038 A 
ATOM     11  C   UNL     1      -6.017  17.351  26.333  0.00  0.00    +0.047 A 
ATOM     12  C   UNL     1      -5.605  17.247  24.942  0.00  0.00    +0.035 A 
ATOM     32  C   UNL     1      -6.571  17.519  23.929  0.00  0.00    +0.024 A 
ATOM     33  C   UNL     1      -7.925  17.885  24.265  0.00  0.00    +0.007 A 
ATOM     34  C   UNL     1      -8.337  17.987  25.635  0.00  0.00    -0.029 A 
ATOM     35  C   UNL     1      -9.803  18.376  25.936  0.00  0.00    +0.045 C 
ENDROOT
BRANCH  10   9
ATOM      4  C   UNL     1      -9.209  15.865  30.700  0.00  0.00    +0.077 A 
ATOM      5  C   UNL     1      -9.557  14.637  30.044  0.00  0.00    +0.048 A 
ATOM      6  C   UNL     1      -9.246  14.524  28.671  0.00  0.00    +0.116 A 
ATOM      7  N   UNL     1      -8.632  15.566  28.012  0.00  0.00    -0.223 NA
ATOM      8  C   UNL     1      -8.311  16.737  28.673  0.00  0.00    +0.220 A 
ATOM      9  N   UNL     1      -7.685  17.796  28.032  0.00  0.00    -0.283 N 
ATOM     36  H   UNL     1      -7.472  18.646  28.554  0.00  0.00    +0.155 HD
ATOM     37  N   UNL     1      -8.599  16.871  29.985  0.00  0.00    -0.214 NA
BRANCH   4   3
ATOM      1  C   UNL     1      -8.779  16.967  34.428  0.00  0.00    +0.020 A 
ATOM      2  C   UNL     1      -8.476  16.726  33.036  0.00  0.00    +0.013 A 
ATOM      3  C   UNL     1      -9.470  16.135  32.149  0.00  0.00    +0.019 A 
ATOM     38  C   UNL     1     -10.771  15.796  32.706  0.00  0.00    +0.120 A 
ATOM     39  N   UNL     1     -11.033  16.038  34.051  0.00  0.00    -0.263 NA
ATOM     40  C   UNL     1     -10.084  16.605  34.914  0.00  0.00    +0.111 A 
ENDBRANCH   4   3
ENDBRANCH  10   9
BRANCH  12  13
ATOM     13  N   UNL     1      -4.274  16.879  24.528  0.00  0.00    -0.281 N 
ATOM     14  C   UNL     1      -3.247  17.714  24.122  0.00  0.00    +0.248 C 
ATOM     30  O   UNL     1      -3.386  18.897  23.846  0.00  0.00    -0.270 OA
ATOM     31  H   UNL     1      -4.063  15.881  24.537  0.00  0.00    +0.155 HD
BRANCH  14  15
ATOM     15  C   UNL     1      -1.869  17.151  23.988  0.00  0.00    +0.037 A 
ATOM     16  C   UNL     1      -0.710  18.022  23.770  0.00  0.00    +0.013 A 
ATOM     17  C   UNL     1       0.606  17.452  23.627  0.00  0.00    +0.005 A 
ATOM     18  C   UNL     1       0.771  16.002  23.703  0.00  0.00    -0.033 A 
ATOM     28  C   UNL     1      -0.395  15.163  23.925  0.00  0.00    +0.005 A 
ATOM     29  C   UNL     1      -1.687  15.718  24.065  0.00  0.00    +0.013 A 
BRANCH  18  19
ATOM     19  C   UNL     1       2.135  15.306  23.541  0.00  0.00    +0.119 C 
BRANCH  19  20
ATOM     20  N   UNL     1       2.390  14.098  24.381  0.00  0.00    -0.302 NA
ATOM     21  C   UNL     1       2.614  14.459  25.853  0.00  0.00    +0.066 C 
ATOM     22  C   UNL     1       2.858  13.182  26.721  0.00  0.00    -0.064 C 
ATOM     23  N   UNL     1       4.056  12.411  26.165  0.00  0.00    +0.379 N 
ATOM     24  C   UNL     1       4.323  11.241  27.014  0.00  0.00    -0.096 C 
ATOM     25  H   UNL     1       4.945  13.081  26.222  0.00  0.00    -0.082 HD
ATOM     26  C   UNL     1       3.843  12.050  24.701  0.00  0.00    -0.064 C 
ATOM     27  C   UNL     1       3.572  13.324  23.852  0.00  0.00    +0.066 C 
ENDBRANCH  19  20
ENDBRANCH  18  19
ENDBRANCH  14  15
ENDBRANCH  12  13
TORSDOF 6
ENDMDL
MODEL 5
REMARK VINA RESULT:      -9.0      3.337     12.946
REMARK  Name = C:\Users\Docking\Desktop\test protocol\1iep_ligandH.pdb
REMARK  8 active torsions:
REMARK  status: ('A' for Active; 'I' for Inactive)
REMARK    1  A    between atoms: _5  and  _11
REMARK    2  A    between atoms: _19  and  _21
REMARK    3  A    between atoms: _22  and  _66
REMARK    4  A    between atoms: _27  and  _30
REMARK    5  A    between atoms: _32  and  _33
REMARK    6  A    between atoms: _38  and  _43
REMARK    7  A    between atoms: _43  and  _46
REMARK    8  A    between atoms: _53  and  _55
REMARK                            x       y       z     vdW  Elec       q    Type
REMARK                         _______ _______ _______ _____ _____    ______ ____
ROOT
ATOM     10  C   UNL     1      -8.152  16.042  25.378  0.00  0.00    +0.038 A 
ATOM     11  C   UNL     1      -8.355  15.808  26.762  0.00  0.00    +0.047 A 
ATOM     12  C   UNL     1      -9.694  15.771  27.330  0.00  0.00    +0.035 A 
ATOM     32  C   UNL     1     -10.804  15.975  26.459  0.00  0.00    +0.024 A 
ATOM     33  C   UNL     1     -10.615  16.216  25.050  0.00  0.00    +0.007 A 
ATOM     34  C   UNL     1      -9.297  16.255  24.484  0.00  0.00    -0.029 A 
ATOM     35  C   UNL     1      -9.154  16.524  22.968  0.00  0.00    +0.045 C 
ENDROOT
BRANCH  10   9
ATOM      4  C   UNL     1      -3.940  18.228  24.660  0.00  0.00    +0.077 A 
ATOM      5  C   UNL     1      -4.390  19.433  25.296  0.00  0.00    +0.048 A 
ATOM      6  C   UNL     1      -5.714  19.452  25.787  0.00  0.00    +0.116 A 
ATOM      7  N   UNL     1      -6.520  18.342  25.649  0.00  0.00    -0.223 NA
ATOM      8  C   UNL     1      -6.055  17.197  25.029  0.00  0.00    +0.220 A 
ATOM      9  N   UNL     1      -6.845  16.067  24.886  0.00  0.00    -0.283 N 
ATOM     36  H   UNL     1      -6.468  15.244  24.416  0.00  0.00    +0.155 HD
ATOM     37  N   UNL     1      -4.795  17.154  24.550  0.00  0.00    -0.214 NA
BRANCH   4   3
ATOM      1  C   UNL     1      -0.443  18.942  23.060  0.00  0.00    +0.020 A 
ATOM      2  C   UNL     1      -1.765  19.165  23.598  0.00  0.00    +0.013 A 
ATOM      3  C   UNL     1      -2.566  18.053  24.092  0.00  0.00    +0.019 A 
ATOM     38  C   UNL     1      -1.995  16.716  24.028  0.00  0.00    +0.120 A 
ATOM     39  N   UNL     1      -0.719  16.531  23.504  0.00  0.00    -0.263 NA
ATOM     40  C   UNL     1       0.060  17.594  23.023  0.00  0.00    +0.111 A 
ENDBRANCH   4   3
ENDBRANCH  10   9
BRANCH  12  13
ATOM     13  N   UNL     1      -9.962  15.546  28.729  0.00  0.00    -0.281 N 
ATOM     14  C   UNL     1      -9.578  16.327  29.807  0.00  0.00    +0.248 C 
ATOM     30  O   UNL     1      -8.759  17.232  29.747  0.00  0.00    -0.270 OA
ATOM     31  H   UNL     1     -10.499  14.708  28.952  0.00  0.00    +0.155 HD
BRANCH  14  15
ATOM     15  C   UNL     1     -10.181  16.055  31.147  0.00  0.00    +0.037 A 
ATOM     16  C   UNL     1      -9.343  15.884  32.336  0.00  0.00    +0.013 A 
ATOM     17  C   UNL     1      -9.949  15.605  33.614  0.00  0.00    +0.005 A 
ATOM     18  C   UNL     1     -11.403  15.498  33.709  0.00  0.00    -0.033 A 
ATOM     28  C   UNL     1     -12.211  15.678  32.514  0.00  0.00    +0.005 A 
ATOM     29  C   UNL     1     -11.620  15.950  31.259  0.00  0.00    +0.013 A 
BRANCH  18  19
ATOM     19  C   UNL     1     -12.135  15.182  35.027  0.00  0.00    +0.119 C 
BRANCH  19  20
ATOM     20  N   UNL     1     -12.497  13.757  35.283  0.00  0.00    -0.302 NA
ATOM     21  C   UNL     1     -11.346  12.977  35.924  0.00  0.00    +0.066 C 
ATOM     22  C   UNL     1     -11.750  11.493  36.206  0.00  0.00    -0.064 C 
ATOM     23  N   UNL     1     -12.191  10.831  34.900  0.00  0.00    +0.379 N 
ATOM     24  C   UNL     1     -12.517   9.419  35.151  0.00  0.00    -0.096 C 
ATOM     25  H   UNL     1     -11.326  10.859  34.198  0.00  0.00    -0.082 HD
ATOM     26  C   UNL     1     -13.334  11.601  34.254  0.00  0.00    -0.064 C 
ATOM     27  C   UNL     1     -12.932  13.082  34.006  0.00  0.00    +0.066 C 
ENDBRANCH  19  20
ENDBRANCH  18  19
ENDBRANCH  14  15
ENDBRANCH  12  13
TORSDOF 6
ENDMDL
