MODEL 1
REMARK VINA RESULT:      -8.2      0.000      0.000
REMARK  Name = C:\Users\Docking\Desktop\test protocol\1iep_ligandH.pdb
REMARK  8 active torsions:
REMARK  status: ('A' for Active; 'I' for Inactive)
REMARK    1  A    between atoms: _5  and  _11
REMARK    2  A    between atoms: _19  and  _21
REMARK    3  A    between atoms: _22  and  _66
REMARK    4  A    between atoms: _27  and  _30
REMARK    5  A    between atoms: _32  and  _33
REMARK    6  A    between atoms: _38  and  _43
REMARK    7  A    between atoms: _43  and  _46
REMARK    8  A    between atoms: _53  and  _55
REMARK                            x       y       z     vdW  Elec       q    Type
REMARK                         _______ _______ _______ _____ _____    ______ ____
ROOT
ATOM     10  C   UNL     1      -9.814  23.637  24.793  0.00  0.00    +0.038 A 
ATOM     11  C   UNL     1      -9.598  22.451  25.541  0.00  0.00    +0.047 A 
ATOM     12  C   UNL     1      -9.025  21.265  24.923  0.00  0.00    +0.035 A 
ATOM     32  C   UNL     1      -8.680  21.323  23.542  0.00  0.00    +0.024 A 
ATOM     33  C   UNL     1      -8.893  22.520  22.766  0.00  0.00    +0.007 A 
ATOM     34  C   UNL     1      -9.461  23.691  23.369  0.00  0.00    -0.029 A 
ATOM     35  C   UNL     1      -9.673  24.944  22.488  0.00  0.00    +0.045 C 
ENDROOT
BRANCH  10   9
ATOM      4  C   UNL     1     -13.530  26.457  25.922  0.00  0.00    +0.077 A 
ATOM      5  C   UNL     1     -14.441  25.669  25.142  0.00  0.00    +0.048 A 
ATOM      6  C   UNL     1     -13.911  24.551  24.460  0.00  0.00    +0.116 A 
ATOM      7  N   UNL     1     -12.570  24.252  24.558  0.00  0.00    -0.223 NA
ATOM      8  C   UNL     1     -11.718  25.033  25.317  0.00  0.00    +0.220 A 
ATOM      9  N   UNL     1     -10.367  24.746  25.437  0.00  0.00    -0.283 N 
ATOM     36  H   UNL     1      -9.771  25.351  26.001  0.00  0.00    +0.155 HD
ATOM     37  N   UNL     1     -12.199  26.107  25.977  0.00  0.00    -0.214 NA
BRANCH   4   3
ATOM      1  C   UNL     1     -14.038  29.032  28.822  0.00  0.00    +0.020 A 
ATOM      2  C   UNL     1     -13.620  27.844  28.114  0.00  0.00    +0.013 A 
ATOM      3  C   UNL     1     -13.938  27.667  26.703  0.00  0.00    +0.019 A 
ATOM     38  C   UNL     1     -14.685  28.720  26.032  0.00  0.00    +0.120 A 
ATOM     39  N   UNL     1     -15.075  29.853  26.739  0.00  0.00    -0.263 NA
ATOM     40  C   UNL     1     -14.776  30.033  28.098  0.00  0.00    +0.111 A 
ENDBRANCH   4   3
ENDBRANCH  10   9
BRANCH  12  13
ATOM     13  N   UNL     1      -8.791  20.031  25.631  0.00  0.00    -0.281 N 
ATOM     14  C   UNL     1      -7.579  19.505  26.048  0.00  0.00    +0.248 C 
ATOM     30  O   UNL     1      -6.486  19.916  25.686  0.00  0.00    -0.270 OA
ATOM     31  H   UNL     1      -9.619  19.477  25.850  0.00  0.00    +0.155 HD
BRANCH  14  15
ATOM     15  C   UNL     1      -7.581  18.347  26.992  0.00  0.00    +0.037 A 
ATOM     16  C   UNL     1      -8.827  17.672  27.364  0.00  0.00    +0.013 A 
ATOM     17  C   UNL     1      -8.803  16.567  28.290  0.00  0.00    +0.005 A 
ATOM     18  C   UNL     1      -7.526  16.130  28.850  0.00  0.00    -0.033 A 
ATOM     28  C   UNL     1      -6.304  16.814  28.460  0.00  0.00    +0.005 A 
ATOM     29  C   UNL     1      -6.324  17.897  27.553  0.00  0.00    +0.013 A 
BRANCH  18  19
ATOM     19  C   UNL     1      -7.408  14.974  29.861  0.00  0.00    +0.119 C 
BRANCH  19  20
ATOM     20  N   UNL     1      -8.162  15.108  31.144  0.00  0.00    -0.302 NA
ATOM     21  C   UNL     1      -8.118  16.539  31.689  0.00  0.00    +0.066 C 
ATOM     22  C   UNL     1      -8.930  16.666  33.019  0.00  0.00    -0.064 C 
ATOM     23  N   UNL     1      -8.377  15.678  34.047  0.00  0.00    +0.379 N 
ATOM     24  C   UNL     1      -9.101  15.836  35.317  0.00  0.00    -0.096 C 
ATOM     25  H   UNL     1      -7.310  15.942  34.230  0.00  0.00    -0.082 HD
ATOM     26  C   UNL     1      -8.415  14.253  33.512  0.00  0.00    -0.064 C 
ATOM     27  C   UNL     1      -7.630  14.144  32.175  0.00  0.00    +0.066 C 
ENDBRANCH  19  20
ENDBRANCH  18  19
ENDBRANCH  14  15
ENDBRANCH  12  13
TORSDOF 6
ENDMDL
MODEL 2
REMARK VINA RESULT:      -8.0      6.841     12.409
REMARK  Name = C:\Users\Docking\Desktop\test protocol\1iep_ligandH.pdb
REMARK  8 active torsions:
REMARK  status: ('A' for Active; 'I' for Inactive)
REMARK    1  A    between atoms: _5  and  _11
REMARK    2  A    between atoms: _19  and  _21
REMARK    3  A    between atoms: _22  and  _66
REMARK    4  A    between atoms: _27  and  _30
REMARK    5  A    between atoms: _32  and  _33
REMARK    6  A    between atoms: _38  and  _43
REMARK    7  A    between atoms: _43  and  _46
REMARK    8  A    between atoms: _53  and  _55
REMARK                            x       y       z     vdW  Elec       q    Type
REMARK                         _______ _______ _______ _____ _____    ______ ____
ROOT
ATOM     10  C   UNL     1     -17.334  33.506  26.517  0.00  0.00    +0.038 A 
ATOM     11  C   UNL     1     -16.710  32.247  26.325  0.00  0.00    +0.047 A 
ATOM     12  C   UNL     1     -15.493  31.894  27.040  0.00  0.00    +0.035 A 
ATOM     32  C   UNL     1     -14.940  32.847  27.945  0.00  0.00    +0.024 A 
ATOM     33  C   UNL     1     -15.561  34.131  28.151  0.00  0.00    +0.007 A 
ATOM     34  C   UNL     1     -16.761  34.486  27.447  0.00  0.00    -0.029 A 
ATOM     35  C   UNL     1     -17.380  35.880  27.702  0.00  0.00    +0.045 C 
ENDROOT
BRANCH  10   9
ATOM      4  C   UNL     1     -19.631  34.889  22.536  0.00  0.00    +0.077 A 
ATOM      5  C   UNL     1     -18.402  35.084  21.823  0.00  0.00    +0.048 A 
ATOM      6  C   UNL     1     -17.200  34.824  22.519  0.00  0.00    +0.116 A 
ATOM      7  N   UNL     1     -17.237  34.400  23.830  0.00  0.00    -0.223 NA
ATOM      8  C   UNL     1     -18.440  34.224  24.489  0.00  0.00    +0.220 A 
ATOM      9  N   UNL     1     -18.501  33.792  25.805  0.00  0.00    -0.283 N 
ATOM     36  H   UNL     1     -19.408  33.681  26.258  0.00  0.00    +0.155 HD
ATOM     37  N   UNL     1     -19.601  34.467  23.847  0.00  0.00    -0.214 NA
BRANCH   4   3
ATOM      1  C   UNL     1     -22.505  35.714  20.014  0.00  0.00    +0.020 A 
ATOM      2  C   UNL     1     -21.178  35.505  20.544  0.00  0.00    +0.013 A 
ATOM      3  C   UNL     1     -20.984  35.119  21.936  0.00  0.00    +0.019 A 
ATOM     38  C   UNL     1     -22.163  34.951  22.772  0.00  0.00    +0.120 A 
ATOM     39  N   UNL     1     -23.429  35.161  22.234  0.00  0.00    -0.263 NA
ATOM     40  C   UNL     1     -23.628  35.534  20.896  0.00  0.00    +0.111 A 
ENDBRANCH   4   3
ENDBRANCH  10   9
BRANCH  12  13
ATOM     13  N   UNL     1     -14.810  30.634  26.880  0.00  0.00    -0.281 N 
ATOM     14  C   UNL     1     -14.903  29.507  27.680  0.00  0.00    +0.248 C 
ATOM     30  O   UNL     1     -15.429  29.484  28.783  0.00  0.00    -0.270 OA
ATOM     31  H   UNL     1     -14.181  30.565  26.080  0.00  0.00    +0.155 HD
BRANCH  14  15
ATOM     15  C   UNL     1     -14.314  28.224  27.191  0.00  0.00    +0.037 A 
ATOM     16  C   UNL     1     -13.429  27.421  28.040  0.00  0.00    +0.013 A 
ATOM     17  C   UNL     1     -12.861  26.195  27.537  0.00  0.00    +0.005 A 
ATOM     18  C   UNL     1     -13.178  25.764  26.177  0.00  0.00    -0.033 A 
ATOM     28  C   UNL     1     -14.062  26.576  25.359  0.00  0.00    +0.005 A 
ATOM     29  C   UNL     1     -14.620  27.779  25.848  0.00  0.00    +0.013 A 
BRANCH  18  19
ATOM     19  C   UNL     1     -12.600  24.481  25.551  0.00  0.00    +0.119 C 
BRANCH  19  20
ATOM     20  N   UNL     1     -11.383  24.625  24.698  0.00  0.00    -0.302 NA
ATOM     21  C   UNL     1     -11.666  24.287  23.232  0.00  0.00    +0.066 C 
ATOM     22  C   UNL     1     -10.388  24.465  22.349  0.00  0.00    -0.064 C 
ATOM     23  N   UNL     1      -9.265  23.584  22.901  0.00  0.00    +0.379 N 
ATOM     24  C   UNL     1      -8.079  23.705  22.039  0.00  0.00    -0.096 C 
ATOM     25  H   UNL     1      -9.611  22.526  22.853  0.00  0.00    -0.082 HD
ATOM     26  C   UNL     1      -8.978  23.912  24.359  0.00  0.00    -0.064 C 
ATOM     27  C   UNL     1     -10.262  23.761  25.222  0.00  0.00    +0.066 C 
ENDBRANCH  19  20
ENDBRANCH  18  19
ENDBRANCH  14  15
ENDBRANCH  12  13
TORSDOF 6
ENDMDL
MODEL 3
REMARK VINA RESULT:      -7.9      1.758      2.875
REMARK  Name = C:\Users\Docking\Desktop\test protocol\1iep_ligandH.pdb
REMARK  8 active torsions:
REMARK  status: ('A' for Active; 'I' for Inactive)
REMARK    1  A    between atoms: _5  and  _11
REMARK    2  A    between atoms: _19  and  _21
REMARK    3  A    between atoms: _22  and  _66
REMARK    4  A    between atoms: _27  and  _30
REMARK    5  A    between atoms: _32  and  _33
REMARK    6  A    between atoms: _38  and  _43
REMARK    7  A    between atoms: _43  and  _46
REMARK    8  A    between atoms: _53  and  _55
REMARK                            x       y       z     vdW  Elec       q    Type
REMARK                         _______ _______ _______ _____ _____    ______ ____
ROOT
ATOM     10  C   UNL     1      -9.928  23.636  25.001  0.00  0.00    +0.038 A 
ATOM     11  C   UNL     1      -9.625  22.512  25.811  0.00  0.00    +0.047 A 
ATOM     12  C   UNL     1      -9.046  21.306  25.240  0.00  0.00    +0.035 A 
ATOM     32  C   UNL     1      -8.786  21.280  23.838  0.00  0.00    +0.024 A 
ATOM     33  C   UNL     1      -9.089  22.413  22.999  0.00  0.00    +0.007 A 
ATOM     34  C   UNL     1      -9.663  23.604  23.557  0.00  0.00    -0.029 A 
ATOM     35  C   UNL     1      -9.973  24.786  22.609  0.00  0.00    +0.045 C 
ENDROOT
BRANCH  10   9
ATOM      4  C   UNL     1     -13.643  26.504  26.006  0.00  0.00    +0.077 A 
ATOM      5  C   UNL     1     -14.551  25.693  25.246  0.00  0.00    +0.048 A 
ATOM      6  C   UNL     1     -14.020  24.550  24.607  0.00  0.00    +0.116 A 
ATOM      7  N   UNL     1     -12.680  24.251  24.725  0.00  0.00    -0.223 NA
ATOM      8  C   UNL     1     -11.832  25.055  25.463  0.00  0.00    +0.220 A 
ATOM      9  N   UNL     1     -10.483  24.768  25.602  0.00  0.00    -0.283 N 
ATOM     36  H   UNL     1      -9.888  25.391  26.149  0.00  0.00    +0.155 HD
ATOM     37  N   UNL     1     -12.314  26.153  26.082  0.00  0.00    -0.214 NA
BRANCH   4   3
ATOM      1  C   UNL     1     -15.104  30.032  26.853  0.00  0.00    +0.020 A 
ATOM      2  C   UNL     1     -14.729  28.860  26.096  0.00  0.00    +0.013 A 
ATOM      3  C   UNL     1     -14.053  27.742  26.742  0.00  0.00    +0.019 A 
ATOM     38  C   UNL     1     -13.770  27.841  28.166  0.00  0.00    +0.120 A 
ATOM     39  N   UNL     1     -14.142  28.983  28.868  0.00  0.00    -0.263 NA
ATOM     40  C   UNL     1     -14.791  30.067  28.257  0.00  0.00    +0.111 A 
ENDBRANCH   4   3
ENDBRANCH  10   9
BRANCH  12  13
ATOM     13  N   UNL     1      -8.725  20.132  26.012  0.00  0.00    -0.281 N 
ATOM     14  C   UNL     1      -7.530  19.430  26.038  0.00  0.00    +0.248 C 
ATOM     30  O   UNL     1      -6.622  19.583  25.235  0.00  0.00    -0.270 OA
ATOM     31  H   UNL     1      -9.468  19.774  26.612  0.00  0.00    +0.155 HD
BRANCH  14  15
ATOM     15  C   UNL     1      -7.321  18.400  27.101  0.00  0.00    +0.037 A 
ATOM     16  C   UNL     1      -5.975  17.996  27.513  0.00  0.00    +0.013 A 
ATOM     17  C   UNL     1      -5.801  16.988  28.528  0.00  0.00    +0.005 A 
ATOM     18  C   UNL     1      -6.979  16.377  29.140  0.00  0.00    -0.033 A 
ATOM     28  C   UNL     1      -8.303  16.800  28.716  0.00  0.00    +0.005 A 
ATOM     29  C   UNL     1      -8.477  17.788  27.720  0.00  0.00    +0.013 A 
BRANCH  18  19
ATOM     19  C   UNL     1      -6.888  15.279  30.216  0.00  0.00    +0.119 C 
BRANCH  19  20
ATOM     20  N   UNL     1      -5.945  14.149  29.961  0.00  0.00    -0.302 NA
ATOM     21  C   UNL     1      -6.261  13.421  28.652  0.00  0.00    +0.066 C 
ATOM     22  C   UNL     1      -5.252  12.256  28.390  0.00  0.00    -0.064 C 
ATOM     23  N   UNL     1      -5.282  11.284  29.571  0.00  0.00    +0.379 N 
ATOM     24  C   UNL     1      -4.376  10.157  29.302  0.00  0.00    -0.096 C 
ATOM     25  H   UNL     1      -6.316  10.876  29.647  0.00  0.00    -0.082 HD
ATOM     26  C   UNL     1      -4.971  12.001  30.877  0.00  0.00    -0.064 C 
ATOM     27  C   UNL     1      -5.962  13.175  31.113  0.00  0.00    +0.066 C 
ENDBRANCH  19  20
ENDBRANCH  18  19
ENDBRANCH  14  15
ENDBRANCH  12  13
TORSDOF 6
ENDMDL
MODEL 4
REMARK VINA RESULT:      -7.9      2.374     12.221
REMARK  Name = C:\Users\Docking\Desktop\test protocol\1iep_ligandH.pdb
REMARK  8 active torsions:
REMARK  status: ('A' for Active; 'I' for Inactive)
REMARK    1  A    between atoms: _5  and  _11
REMARK    2  A    between atoms: _19  and  _21
REMARK    3  A    between atoms: _22  and  _66
REMARK    4  A    between atoms: _27  and  _30
REMARK    5  A    between atoms: _32  and  _33
REMARK    6  A    between atoms: _38  and  _43
REMARK    7  A    between atoms: _43  and  _46
REMARK    8  A    between atoms: _53  and  _55
REMARK                            x       y       z     vdW  Elec       q    Type
REMARK                         _______ _______ _______ _____ _____    ______ ____
ROOT
ATOM     10  C   UNL     1      -8.084  18.671  25.615  0.00  0.00    +0.038 A 
ATOM     11  C   UNL     1      -8.799  19.830  26.013  0.00  0.00    +0.047 A 
ATOM     12  C   UNL     1      -9.707  20.505  25.100  0.00  0.00    +0.035 A 
ATOM     32  C   UNL     1      -9.867  19.971  23.788  0.00  0.00    +0.024 A 
ATOM     33  C   UNL     1      -9.147  18.795  23.366  0.00  0.00    +0.007 A 
ATOM     34  C   UNL     1      -8.248  18.126  24.262  0.00  0.00    -0.029 A 
ATOM     35  C   UNL     1      -7.498  16.873  23.753  0.00  0.00    +0.045 C 
ENDROOT
BRANCH  10   9
ATOM      4  C   UNL     1      -7.234  15.737  29.316  0.00  0.00    +0.077 A 
ATOM      5  C   UNL     1      -8.624  15.407  29.450  0.00  0.00    +0.048 A 
ATOM      6  C   UNL     1      -9.526  16.020  28.552  0.00  0.00    +0.116 A 
ATOM      7  N   UNL     1      -9.061  16.895  27.594  0.00  0.00    -0.223 NA
ATOM      8  C   UNL     1      -7.715  17.192  27.493  0.00  0.00    +0.220 A 
ATOM      9  N   UNL     1      -7.224  18.064  26.532  0.00  0.00    -0.283 N 
ATOM     36  H   UNL     1      -6.225  18.263  26.495  0.00  0.00    +0.155 HD
ATOM     37  N   UNL     1      -6.833  16.622  28.340  0.00  0.00    -0.214 NA
BRANCH   4   3
ATOM      1  C   UNL     1      -5.109  14.720  32.439  0.00  0.00    +0.020 A 
ATOM      2  C   UNL     1      -6.172  15.288  31.642  0.00  0.00    +0.013 A 
ATOM      3  C   UNL     1      -6.159  15.168  30.189  0.00  0.00    +0.019 A 
ATOM     38  C   UNL     1      -5.048  14.462  29.570  0.00  0.00    +0.120 A 
ATOM     39  N   UNL     1      -4.037  13.928  30.363  0.00  0.00    -0.263 NA
ATOM     40  C   UNL     1      -4.038  14.038  31.761  0.00  0.00    +0.111 A 
ENDBRANCH   4   3
ENDBRANCH  10   9
BRANCH  12  13
ATOM     13  N   UNL     1     -10.454  21.689  25.446  0.00  0.00    -0.281 N 
ATOM     14  C   UNL     1     -10.152  23.006  25.139  0.00  0.00    +0.248 C 
ATOM     30  O   UNL     1      -9.076  23.384  24.700  0.00  0.00    -0.270 OA
ATOM     31  H   UNL     1     -11.308  21.538  25.982  0.00  0.00    +0.155 HD
BRANCH  14  15
ATOM     15  C   UNL     1     -11.191  24.056  25.365  0.00  0.00    +0.037 A 
ATOM     16  C   UNL     1     -12.091  23.999  26.519  0.00  0.00    +0.013 A 
ATOM     17  C   UNL     1     -13.096  25.016  26.704  0.00  0.00    +0.005 A 
ATOM     18  C   UNL     1     -13.204  26.101  25.732  0.00  0.00    -0.033 A 
ATOM     28  C   UNL     1     -12.294  26.136  24.599  0.00  0.00    +0.005 A 
ATOM     29  C   UNL     1     -11.309  25.141  24.414  0.00  0.00    +0.013 A 
BRANCH  18  19
ATOM     19  C   UNL     1     -14.260  27.217  25.839  0.00  0.00    +0.119 C 
BRANCH  19  20
ATOM     20  N   UNL     1     -13.808  28.537  26.371  0.00  0.00    -0.302 NA
ATOM     21  C   UNL     1     -13.396  28.452  27.844  0.00  0.00    +0.066 C 
ATOM     22  C   UNL     1     -12.905  29.837  28.378  0.00  0.00    -0.064 C 
ATOM     23  N   UNL     1     -14.010  30.877  28.184  0.00  0.00    +0.379 N 
ATOM     24  C   UNL     1     -13.573  32.166  28.738  0.00  0.00    -0.096 C 
ATOM     25  H   UNL     1     -14.897  30.540  28.769  0.00  0.00    -0.082 HD
ATOM     26  C   UNL     1     -14.427  30.966  26.723  0.00  0.00    -0.064 C 
ATOM     27  C   UNL     1     -14.886  29.578  26.193  0.00  0.00    +0.066 C 
ENDBRANCH  19  20
ENDBRANCH  18  19
ENDBRANCH  14  15
ENDBRANCH  12  13
TORSDOF 6
ENDMDL
MODEL 5
REMARK VINA RESULT:      -7.9     10.222     16.736
REMARK  Name = C:\Users\Docking\Desktop\test protocol\1iep_ligandH.pdb
REMARK  8 active torsions:
REMARK  status: ('A' for Active; 'I' for Inactive)
REMARK    1  A    between atoms: _5  and  _11
REMARK    2  A    between atoms: _19  and  _21
REMARK    3  A    between atoms: _22  and  _66
REMARK    4  A    between atoms: _27  and  _30
REMARK    5  A    between atoms: _32  and  _33
REMARK    6  A    between atoms: _38  and  _43
REMARK    7  A    between atoms: _43  and  _46
REMARK    8  A    between atoms: _53  and  _55
REMARK                            x       y       z     vdW  Elec       q    Type
REMARK                         _______ _______ _______ _____ _____    ______ ____
ROOT
ATOM     10  C   UNL     1     -13.783  30.299  27.639  0.00  0.00    +0.038 A 
ATOM     11  C   UNL     1     -14.448  31.002  26.602  0.00  0.00    +0.047 A 
ATOM     12  C   UNL     1     -15.198  30.296  25.575  0.00  0.00    +0.035 A 
ATOM     32  C   UNL     1     -15.252  28.873  25.636  0.00  0.00    +0.024 A 
ATOM     33  C   UNL     1     -14.581  28.142  26.683  0.00  0.00    +0.007 A 
ATOM     34  C   UNL     1     -13.838  28.833  27.697  0.00  0.00    -0.029 A 
ATOM     35  C   UNL     1     -13.133  27.998  28.791  0.00  0.00    +0.045 C 
ENDROOT
BRANCH  10   9
ATOM      4  C   UNL     1     -13.527  33.653  31.063  0.00  0.00    +0.077 A 
ATOM      5  C   UNL     1     -14.910  34.001  30.908  0.00  0.00    +0.048 A 
ATOM      6  C   UNL     1     -15.651  33.299  29.930  0.00  0.00    +0.116 A 
ATOM      7  N   UNL     1     -15.043  32.322  29.171  0.00  0.00    -0.223 NA
ATOM      8  C   UNL     1     -13.707  32.012  29.346  0.00  0.00    +0.220 A 
ATOM      9  N   UNL     1     -13.077  31.028  28.599  0.00  0.00    -0.283 N 
ATOM     36  H   UNL     1     -12.088  30.834  28.753  0.00  0.00    +0.155 HD
ATOM     37  N   UNL     1     -12.978  32.669  30.271  0.00  0.00    -0.214 NA
BRANCH   4   3
ATOM      1  C   UNL     1     -10.348  34.677  33.099  0.00  0.00    +0.020 A 
ATOM      2  C   UNL     1     -11.186  34.021  32.122  0.00  0.00    +0.013 A 
ATOM      3  C   UNL     1     -12.615  34.303  32.056  0.00  0.00    +0.019 A 
ATOM     38  C   UNL     1     -13.168  35.261  33.000  0.00  0.00    +0.120 A 
ATOM     39  N   UNL     1     -12.337  35.876  33.932  0.00  0.00    -0.263 NA
ATOM     40  C   UNL     1     -10.962  35.611  34.006  0.00  0.00    +0.111 A 
ENDBRANCH   4   3
ENDBRANCH  10   9
BRANCH  12  13
ATOM     13  N   UNL     1     -15.886  30.956  24.493  0.00  0.00    -0.281 N 
ATOM     14  C   UNL     1     -17.037  31.723  24.559  0.00  0.00    +0.248 C 
ATOM     30  O   UNL     1     -17.773  31.784  25.532  0.00  0.00    -0.270 OA
ATOM     31  H   UNL     1     -15.475  30.843  23.566  0.00  0.00    +0.155 HD
BRANCH  14  15
ATOM     15  C   UNL     1     -17.436  32.530  23.365  0.00  0.00    +0.037 A 
ATOM     16  C   UNL     1     -17.744  33.958  23.481  0.00  0.00    +0.013 A 
ATOM     17  C   UNL     1     -18.143  34.709  22.317  0.00  0.00    +0.005 A 
ATOM     18  C   UNL     1     -18.234  34.033  21.026  0.00  0.00    -0.033 A 
ATOM     28  C   UNL     1     -17.918  32.617  20.938  0.00  0.00    +0.005 A 
ATOM     29  C   UNL     1     -17.527  31.877  22.077  0.00  0.00    +0.013 A 
BRANCH  18  19
ATOM     19  C   UNL     1     -18.672  34.750  19.735  0.00  0.00    +0.119 C 
BRANCH  19  20
ATOM     20  N   UNL     1     -18.329  34.094  18.438  0.00  0.00    -0.302 NA
ATOM     21  C   UNL     1     -17.214  34.836  17.695  0.00  0.00    +0.066 C 
ATOM     22  C   UNL     1     -16.853  34.123  16.352  0.00  0.00    -0.064 C 
ATOM     23  N   UNL     1     -18.106  34.017  15.481  0.00  0.00    +0.379 N 
ATOM     24  C   UNL     1     -17.758  33.400  14.193  0.00  0.00    -0.096 C 
ATOM     25  H   UNL     1     -18.463  35.053  15.274  0.00  0.00    -0.082 HD
ATOM     26  C   UNL     1     -19.221  33.283  16.213  0.00  0.00    -0.064 C 
ATOM     27  C   UNL     1     -19.552  33.983  17.561  0.00  0.00    +0.066 C 
ENDBRANCH  19  20
ENDBRANCH  18  19
ENDBRANCH  14  15
ENDBRANCH  12  13
TORSDOF 6
ENDMDL
