MODEL 1
REMARK VINA RESULT:      -7.9      0.000      0.000
REMARK  Name = C:\Users\Docking\Desktop\test protocol\1iep_ligandH.pdb
REMARK  8 active torsions:
REMARK  status: ('A' for Active; 'I' for Inactive)
REMARK    1  A    between atoms: _5  and  _11
REMARK    2  A    between atoms: _19  and  _21
REMARK    3  A    between atoms: _22  and  _66
REMARK    4  A    between atoms: _27  and  _30
REMARK    5  A    between atoms: _32  and  _33
REMARK    6  A    between atoms: _38  and  _43
REMARK    7  A    between atoms: _43  and  _46
REMARK    8  A    between atoms: _53  and  _55
REMARK                            x       y       z     vdW  Elec       q    Type
REMARK                         _______ _______ _______ _____ _____    ______ ____
ROOT
ATOM     10  C   UNL     1     -10.437  23.752  24.699  0.00  0.00    +0.038 A 
ATOM     11  C   UNL     1     -10.220  22.578  25.464  0.00  0.00    +0.047 A 
ATOM     12  C   UNL     1      -9.886  21.315  24.824  0.00  0.00    +0.035 A 
ATOM     32  C   UNL     1      -9.777  21.284  23.403  0.00  0.00    +0.024 A 
ATOM     33  C   UNL     1      -9.995  22.469  22.610  0.00  0.00    +0.007 A 
ATOM     34  C   UNL     1     -10.328  23.717  23.235  0.00  0.00    -0.029 A 
ATOM     35  C   UNL     1     -10.557  24.953  22.335  0.00  0.00    +0.045 C 
ENDROOT
BRANCH  10   9
ATOM      4  C   UNL     1     -13.598  26.987  26.305  0.00  0.00    +0.077 A 
ATOM      5  C   UNL     1     -14.707  26.268  25.747  0.00  0.00    +0.048 A 
ATOM      6  C   UNL     1     -14.420  25.074  25.048  0.00  0.00    +0.116 A 
ATOM      7  N   UNL     1     -13.118  24.641  24.923  0.00  0.00    -0.223 NA
ATOM      8  C   UNL     1     -12.072  25.359  25.471  0.00  0.00    +0.220 A 
ATOM      9  N   UNL     1     -10.755  24.938  25.364  0.00  0.00    -0.283 N 
ATOM     36  H   UNL     1     -10.011  25.500  25.777  0.00  0.00    +0.155 HD
ATOM     37  N   UNL     1     -12.319  26.504  26.142  0.00  0.00    -0.214 NA
BRANCH   4   3
ATOM      1  C   UNL     1     -14.581  30.626  27.349  0.00  0.00    +0.020 A 
ATOM      2  C   UNL     1     -14.474  29.417  26.567  0.00  0.00    +0.013 A 
ATOM      3  C   UNL     1     -13.739  28.264  27.073  0.00  0.00    +0.019 A 
ATOM     38  C   UNL     1     -13.121  28.369  28.386  0.00  0.00    +0.120 A 
ATOM     39  N   UNL     1     -13.240  29.547  29.117  0.00  0.00    -0.263 NA
ATOM     40  C   UNL     1     -13.943  30.663  28.639  0.00  0.00    +0.111 A 
ENDBRANCH   4   3
ENDBRANCH  10   9
BRANCH  12  13
ATOM     13  N   UNL     1      -9.663  20.088  25.548  0.00  0.00    -0.281 N 
ATOM     14  C   UNL     1      -8.460  19.573  26.002  0.00  0.00    +0.248 C 
ATOM     30  O   UNL     1      -7.360  19.988  25.666  0.00  0.00    -0.270 OA
ATOM     31  H   UNL     1     -10.494  19.531  25.751  0.00  0.00    +0.155 HD
BRANCH  14  15
ATOM     15  C   UNL     1      -8.480  18.423  26.956  0.00  0.00    +0.037 A 
ATOM     16  C   UNL     1      -9.619  17.502  27.012  0.00  0.00    +0.013 A 
ATOM     17  C   UNL     1      -9.620  16.411  27.954  0.00  0.00    +0.005 A 
ATOM     18  C   UNL     1      -8.478  16.233  28.846  0.00  0.00    -0.033 A 
ATOM     28  C   UNL     1      -7.359  17.158  28.766  0.00  0.00    +0.005 A 
ATOM     29  C   UNL     1      -7.354  18.230  27.845  0.00  0.00    +0.013 A 
BRANCH  18  19
ATOM     19  C   UNL     1      -8.403  15.109  29.897  0.00  0.00    +0.119 C 
BRANCH  19  20
ATOM     20  N   UNL     1      -8.917  15.416  31.265  0.00  0.00    -0.302 NA
ATOM     21  C   UNL     1      -8.100  14.718  32.355  0.00  0.00    +0.066 C 
ATOM     22  C   UNL     1      -8.637  15.068  33.781  0.00  0.00    -0.064 C 
ATOM     23  N   UNL     1     -10.113  14.679  33.877  0.00  0.00    +0.379 N 
ATOM     24  C   UNL     1     -10.605  14.953  35.235  0.00  0.00    -0.096 C 
ATOM     25  H   UNL     1     -10.184  13.579  33.708  0.00  0.00    -0.082 HD
ATOM     26  C   UNL     1     -10.932  15.366  32.795  0.00  0.00    -0.064 C 
ATOM     27  C   UNL     1     -10.372  15.035  31.383  0.00  0.00    +0.066 C 
ENDBRANCH  19  20
ENDBRANCH  18  19
ENDBRANCH  14  15
ENDBRANCH  12  13
TORSDOF 6
ENDMDL
MODEL 2
REMARK VINA RESULT:      -7.8      4.211     12.910
REMARK  Name = C:\Users\Docking\Desktop\test protocol\1iep_ligandH.pdb
REMARK  8 active torsions:
REMARK  status: ('A' for Active; 'I' for Inactive)
REMARK    1  A    between atoms: _5  and  _11
REMARK    2  A    between atoms: _19  and  _21
REMARK    3  A    between atoms: _22  and  _66
REMARK    4  A    between atoms: _27  and  _30
REMARK    5  A    between atoms: _32  and  _33
REMARK    6  A    between atoms: _38  and  _43
REMARK    7  A    between atoms: _43  and  _46
REMARK    8  A    between atoms: _53  and  _55
REMARK                            x       y       z     vdW  Elec       q    Type
REMARK                         _______ _______ _______ _____ _____    ______ ____
ROOT
ATOM     10  C   UNL     1     -11.577  22.852  24.787  0.00  0.00    +0.038 A 
ATOM     11  C   UNL     1     -11.736  24.102  25.439  0.00  0.00    +0.047 A 
ATOM     12  C   UNL     1     -12.614  25.127  24.897  0.00  0.00    +0.035 A 
ATOM     32  C   UNL     1     -13.316  24.845  23.689  0.00  0.00    +0.024 A 
ATOM     33  C   UNL     1     -13.165  23.581  23.012  0.00  0.00    +0.007 A 
ATOM     34  C   UNL     1     -12.299  22.567  23.542  0.00  0.00    -0.029 A 
ATOM     35  C   UNL     1     -12.170  21.233  22.770  0.00  0.00    +0.045 C 
ENDROOT
BRANCH  10   9
ATOM      4  C   UNL     1      -7.285  20.747  25.217  0.00  0.00    +0.077 A 
ATOM      5  C   UNL     1      -6.705  21.590  24.212  0.00  0.00    +0.048 A 
ATOM      6  C   UNL     1      -7.547  22.547  23.603  0.00  0.00    +0.116 A 
ATOM      7  N   UNL     1      -8.868  22.646  23.980  0.00  0.00    -0.223 NA
ATOM      8  C   UNL     1      -9.397  21.817  24.952  0.00  0.00    +0.220 A 
ATOM      9  N   UNL     1     -10.721  21.904  25.353  0.00  0.00    -0.283 N 
ATOM     36  H   UNL     1     -11.075  21.269  26.068  0.00  0.00    +0.155 HD
ATOM     37  N   UNL     1      -8.614  20.893  25.548  0.00  0.00    -0.214 NA
BRANCH   4   3
ATOM      1  C   UNL     1      -5.963  18.376  28.034  0.00  0.00    +0.020 A 
ATOM      2  C   UNL     1      -6.724  19.409  27.370  0.00  0.00    +0.013 A 
ATOM      3  C   UNL     1      -6.523  19.689  25.954  0.00  0.00    +0.019 A 
ATOM     38  C   UNL     1      -5.537  18.899  25.233  0.00  0.00    +0.120 A 
ATOM     39  N   UNL     1      -4.817  17.912  25.899  0.00  0.00    -0.263 NA
ATOM     40  C   UNL     1      -5.001  17.635  27.262  0.00  0.00    +0.111 A 
ENDBRANCH   4   3
ENDBRANCH  10   9
BRANCH  12  13
ATOM     13  N   UNL     1     -12.809  26.417  25.511  0.00  0.00    -0.281 N 
ATOM     14  C   UNL     1     -13.910  26.863  26.225  0.00  0.00    +0.248 C 
ATOM     30  O   UNL     1     -14.988  26.289  26.262  0.00  0.00    -0.270 OA
ATOM     31  H   UNL     1     -12.044  27.083  25.406  0.00  0.00    +0.155 HD
BRANCH  14  15
ATOM     15  C   UNL     1     -13.802  28.137  26.997  0.00  0.00    +0.037 A 
ATOM     16  C   UNL     1     -13.211  28.165  28.338  0.00  0.00    +0.013 A 
ATOM     17  C   UNL     1     -13.134  29.406  29.069  0.00  0.00    +0.005 A 
ATOM     18  C   UNL     1     -13.649  30.629  28.458  0.00  0.00    -0.033 A 
ATOM     28  C   UNL     1     -14.225  30.574  27.125  0.00  0.00    +0.005 A 
ATOM     29  C   UNL     1     -14.303  29.360  26.407  0.00  0.00    +0.013 A 
BRANCH  18  19
ATOM     19  C   UNL     1     -13.627  31.993  29.173  0.00  0.00    +0.119 C 
BRANCH  19  20
ATOM     20  N   UNL     1     -14.917  32.740  29.260  0.00  0.00    -0.302 NA
ATOM     21  C   UNL     1     -15.173  33.592  28.013  0.00  0.00    +0.066 C 
ATOM     22  C   UNL     1     -16.537  34.349  28.111  0.00  0.00    -0.064 C 
ATOM     23  N   UNL     1     -16.547  35.217  29.371  0.00  0.00    +0.379 N 
ATOM     24  C   UNL     1     -17.805  35.974  29.435  0.00  0.00    -0.096 C 
ATOM     25  H   UNL     1     -15.714  35.952  29.281  0.00  0.00    -0.082 HD
ATOM     26  C   UNL     1     -16.291  34.378  30.615  0.00  0.00    -0.064 C 
ATOM     27  C   UNL     1     -14.947  33.607  30.495  0.00  0.00    +0.066 C 
ENDBRANCH  19  20
ENDBRANCH  18  19
ENDBRANCH  14  15
ENDBRANCH  12  13
TORSDOF 6
ENDMDL
MODEL 3
REMARK VINA RESULT:      -7.8      4.909     12.799
REMARK  Name = C:\Users\Docking\Desktop\test protocol\1iep_ligandH.pdb
REMARK  8 active torsions:
REMARK  status: ('A' for Active; 'I' for Inactive)
REMARK    1  A    between atoms: _5  and  _11
REMARK    2  A    between atoms: _19  and  _21
REMARK    3  A    between atoms: _22  and  _66
REMARK    4  A    between atoms: _27  and  _30
REMARK    5  A    between atoms: _32  and  _33
REMARK    6  A    between atoms: _38  and  _43
REMARK    7  A    between atoms: _43  and  _46
REMARK    8  A    between atoms: _53  and  _55
REMARK                            x       y       z     vdW  Elec       q    Type
REMARK                         _______ _______ _______ _____ _____    ______ ____
ROOT
ATOM     10  C   UNL     1     -13.022  23.510  24.953  0.00  0.00    +0.038 A 
ATOM     11  C   UNL     1     -13.129  24.729  25.669  0.00  0.00    +0.047 A 
ATOM     12  C   UNL     1     -14.248  25.634  25.452  0.00  0.00    +0.035 A 
ATOM     32  C   UNL     1     -15.240  25.264  24.498  0.00  0.00    +0.024 A 
ATOM     33  C   UNL     1     -15.146  24.029  23.760  0.00  0.00    +0.007 A 
ATOM     34  C   UNL     1     -14.044  23.134  23.969  0.00  0.00    -0.029 A 
ATOM     35  C   UNL     1     -13.991  21.826  23.144  0.00  0.00    +0.045 C 
ENDROOT
BRANCH  10   9
ATOM      4  C   UNL     1      -8.449  22.219  24.277  0.00  0.00    +0.077 A 
ATOM      5  C   UNL     1      -8.230  23.273  23.328  0.00  0.00    +0.048 A 
ATOM      6  C   UNL     1      -9.322  24.120  23.036  0.00  0.00    +0.116 A 
ATOM      7  N   UNL     1     -10.537  23.921  23.653  0.00  0.00    -0.223 NA
ATOM      8  C   UNL     1     -10.715  22.894  24.562  0.00  0.00    +0.220 A 
ATOM      9  N   UNL     1     -11.927  22.679  25.201  0.00  0.00    -0.283 N 
ATOM     36  H   UNL     1     -12.020  21.907  25.860  0.00  0.00    +0.155 HD
ATOM     37  N   UNL     1      -9.688  22.070  24.857  0.00  0.00    -0.214 NA
BRANCH   4   3
ATOM      1  C   UNL     1      -6.638  19.068  25.724  0.00  0.00    +0.020 A 
ATOM      2  C   UNL     1      -7.696  19.976  25.344  0.00  0.00    +0.013 A 
ATOM      3  C   UNL     1      -7.392  21.243  24.692  0.00  0.00    +0.019 A 
ATOM     38  C   UNL     1      -5.996  21.565  24.435  0.00  0.00    +0.120 A 
ATOM     39  N   UNL     1      -4.998  20.672  24.814  0.00  0.00    -0.263 NA
ATOM     40  C   UNL     1      -5.279  19.450  25.444  0.00  0.00    +0.111 A 
ENDBRANCH   4   3
ENDBRANCH  10   9
BRANCH  12  13
ATOM     13  N   UNL     1     -14.406  26.889  26.144  0.00  0.00    -0.281 N 
ATOM     14  C   UNL     1     -13.444  27.608  26.835  0.00  0.00    +0.248 C 
ATOM     30  O   UNL     1     -12.345  27.172  27.144  0.00  0.00    -0.270 OA
ATOM     31  H   UNL     1     -15.341  27.297  26.122  0.00  0.00    +0.155 HD
BRANCH  14  15
ATOM     15  C   UNL     1     -13.753  29.008  27.255  0.00  0.00    +0.037 A 
ATOM     16  C   UNL     1     -13.075  29.626  28.398  0.00  0.00    +0.013 A 
ATOM     17  C   UNL     1     -13.404  30.973  28.792  0.00  0.00    +0.005 A 
ATOM     18  C   UNL     1     -14.416  31.712  28.041  0.00  0.00    -0.033 A 
ATOM     28  C   UNL     1     -15.069  31.077  26.908  0.00  0.00    +0.005 A 
ATOM     29  C   UNL     1     -14.750  29.757  26.519  0.00  0.00    +0.013 A 
BRANCH  18  19
ATOM     19  C   UNL     1     -14.845  33.146  28.404  0.00  0.00    +0.119 C 
BRANCH  19  20
ATOM     20  N   UNL     1     -15.085  33.443  29.848  0.00  0.00    -0.302 NA
ATOM     21  C   UNL     1     -16.239  34.430  30.047  0.00  0.00    +0.066 C 
ATOM     22  C   UNL     1     -16.492  34.712  31.564  0.00  0.00    -0.064 C 
ATOM     23  N   UNL     1     -15.208  35.245  32.201  0.00  0.00    +0.379 N 
ATOM     24  C   UNL     1     -15.458  35.566  33.614  0.00  0.00    -0.096 C 
ATOM     25  H   UNL     1     -14.941  36.194  31.680  0.00  0.00    -0.082 HD
ATOM     26  C   UNL     1     -14.054  34.272  32.005  0.00  0.00    -0.064 C 
ATOM     27  C   UNL     1     -13.831  33.975  30.496  0.00  0.00    +0.066 C 
ENDBRANCH  19  20
ENDBRANCH  18  19
ENDBRANCH  14  15
ENDBRANCH  12  13
TORSDOF 6
ENDMDL
MODEL 4
REMARK VINA RESULT:      -7.7      2.220      3.091
REMARK  Name = C:\Users\Docking\Desktop\test protocol\1iep_ligandH.pdb
REMARK  8 active torsions:
REMARK  status: ('A' for Active; 'I' for Inactive)
REMARK    1  A    between atoms: _5  and  _11
REMARK    2  A    between atoms: _19  and  _21
REMARK    3  A    between atoms: _22  and  _66
REMARK    4  A    between atoms: _27  and  _30
REMARK    5  A    between atoms: _32  and  _33
REMARK    6  A    between atoms: _38  and  _43
REMARK    7  A    between atoms: _43  and  _46
REMARK    8  A    between atoms: _53  and  _55
REMARK                            x       y       z     vdW  Elec       q    Type
REMARK                         _______ _______ _______ _____ _____    ______ ____
ROOT
ATOM     10  C   UNL     1     -10.473  23.795  24.469  0.00  0.00    +0.038 A 
ATOM     11  C   UNL     1     -10.035  22.683  25.234  0.00  0.00    +0.047 A 
ATOM     12  C   UNL     1      -9.694  21.420  24.598  0.00  0.00    +0.035 A 
ATOM     32  C   UNL     1      -9.808  21.325  23.181  0.00  0.00    +0.024 A 
ATOM     33  C   UNL     1     -10.252  22.444  22.388  0.00  0.00    +0.007 A 
ATOM     34  C   UNL     1     -10.592  23.692  23.009  0.00  0.00    -0.029 A 
ATOM     35  C   UNL     1     -11.069  24.856  22.111  0.00  0.00    +0.045 C 
ENDROOT
BRANCH  10   9
ATOM      4  C   UNL     1     -13.631  26.941  26.247  0.00  0.00    +0.077 A 
ATOM      5  C   UNL     1     -14.749  26.164  25.795  0.00  0.00    +0.048 A 
ATOM      6  C   UNL     1     -14.469  24.965  25.103  0.00  0.00    +0.116 A 
ATOM      7  N   UNL     1     -13.163  24.581  24.885  0.00  0.00    -0.223 NA
ATOM      8  C   UNL     1     -12.108  25.355  25.332  0.00  0.00    +0.220 A 
ATOM      9  N   UNL     1     -10.788  24.984  25.131  0.00  0.00    -0.283 N 
ATOM     36  H   UNL     1     -10.038  25.586  25.470  0.00  0.00    +0.155 HD
ATOM     37  N   UNL     1     -12.350  26.505  25.994  0.00  0.00    -0.214 NA
BRANCH   4   3
ATOM      1  C   UNL     1     -14.621  30.591  27.249  0.00  0.00    +0.020 A 
ATOM      2  C   UNL     1     -14.522  29.368  26.486  0.00  0.00    +0.013 A 
ATOM      3  C   UNL     1     -13.766  28.231  26.995  0.00  0.00    +0.019 A 
ATOM     38  C   UNL     1     -13.116  28.365  28.291  0.00  0.00    +0.120 A 
ATOM     39  N   UNL     1     -13.228  29.556  29.002  0.00  0.00    -0.263 NA
ATOM     40  C   UNL     1     -13.952  30.657  28.521  0.00  0.00    +0.111 A 
ENDBRANCH   4   3
ENDBRANCH  10   9
BRANCH  12  13
ATOM     13  N   UNL     1      -9.252  20.255  25.324  0.00  0.00    -0.281 N 
ATOM     14  C   UNL     1      -7.954  19.896  25.648  0.00  0.00    +0.248 C 
ATOM     30  O   UNL     1      -6.954  20.416  25.175  0.00  0.00    -0.270 OA
ATOM     31  H   UNL     1      -9.985  19.618  25.637  0.00  0.00    +0.155 HD
BRANCH  14  15
ATOM     15  C   UNL     1      -7.734  18.789  26.628  0.00  0.00    +0.037 A 
ATOM     16  C   UNL     1      -8.845  17.953  27.091  0.00  0.00    +0.013 A 
ATOM     17  C   UNL     1      -8.608  16.903  28.050  0.00  0.00    +0.005 A 
ATOM     18  C   UNL     1      -7.254  16.683  28.551  0.00  0.00    -0.033 A 
ATOM     28  C   UNL     1      -6.170  17.523  28.071  0.00  0.00    +0.005 A 
ATOM     29  C   UNL     1      -6.398  18.554  27.132  0.00  0.00    +0.013 A 
BRANCH  18  19
ATOM     19  C   UNL     1      -6.913  15.599  29.592  0.00  0.00    +0.119 C 
BRANCH  19  20
ATOM     20  N   UNL     1      -5.513  15.081  29.606  0.00  0.00    -0.302 NA
ATOM     21  C   UNL     1      -5.332  13.888  28.663  0.00  0.00    +0.066 C 
ATOM     22  C   UNL     1      -3.856  13.372  28.673  0.00  0.00    -0.064 C 
ATOM     23  N   UNL     1      -3.459  12.999  30.102  0.00  0.00    +0.379 N 
ATOM     24  C   UNL     1      -2.091  12.459  30.106  0.00  0.00    -0.096 C 
ATOM     25  H   UNL     1      -4.144  12.187  30.442  0.00  0.00    -0.082 HD
ATOM     26  C   UNL     1      -3.638  14.179  31.047  0.00  0.00    -0.064 C 
ATOM     27  C   UNL     1      -5.101  14.702  31.007  0.00  0.00    +0.066 C 
ENDBRANCH  19  20
ENDBRANCH  18  19
ENDBRANCH  14  15
ENDBRANCH  12  13
TORSDOF 6
ENDMDL
MODEL 5
REMARK VINA RESULT:      -7.6     12.197     15.177
REMARK  Name = C:\Users\Docking\Desktop\test protocol\1iep_ligandH.pdb
REMARK  8 active torsions:
REMARK  status: ('A' for Active; 'I' for Inactive)
REMARK    1  A    between atoms: _5  and  _11
REMARK    2  A    between atoms: _19  and  _21
REMARK    3  A    between atoms: _22  and  _66
REMARK    4  A    between atoms: _27  and  _30
REMARK    5  A    between atoms: _32  and  _33
REMARK    6  A    between atoms: _38  and  _43
REMARK    7  A    between atoms: _43  and  _46
REMARK    8  A    between atoms: _53  and  _55
REMARK                            x       y       z     vdW  Elec       q    Type
REMARK                         _______ _______ _______ _____ _____    ______ ____
ROOT
ATOM     10  C   UNL     1     -17.953  35.249  26.285  0.00  0.00    +0.038 A 
ATOM     11  C   UNL     1     -17.428  34.390  25.286  0.00  0.00    +0.047 A 
ATOM     12  C   UNL     1     -18.072  34.263  23.988  0.00  0.00    +0.035 A 
ATOM     32  C   UNL     1     -19.249  35.027  23.740  0.00  0.00    +0.024 A 
ATOM     33  C   UNL     1     -19.798  35.904  24.745  0.00  0.00    +0.007 A 
ATOM     34  C   UNL     1     -19.168  36.032  26.028  0.00  0.00    -0.029 A 
ATOM     35  C   UNL     1     -19.804  36.982  27.069  0.00  0.00    +0.045 C 
ENDROOT
BRANCH  10   9
ATOM      4  C   UNL     1     -14.867  33.571  29.556  0.00  0.00    +0.077 A 
ATOM      5  C   UNL     1     -14.563  32.415  28.762  0.00  0.00    +0.048 A 
ATOM      6  C   UNL     1     -15.228  32.286  27.522  0.00  0.00    +0.116 A 
ATOM      7  N   UNL     1     -16.127  33.248  27.115  0.00  0.00    -0.223 NA
ATOM      8  C   UNL     1     -16.399  34.350  27.906  0.00  0.00    +0.220 A 
ATOM      9  N   UNL     1     -17.294  35.333  27.513  0.00  0.00    -0.283 N 
ATOM     36  H   UNL     1     -17.472  36.127  28.128  0.00  0.00    +0.155 HD
ATOM     37  N   UNL     1     -15.778  34.495  29.095  0.00  0.00    -0.214 NA
BRANCH   4   3
ATOM      1  C   UNL     1     -12.288  33.873  32.481  0.00  0.00    +0.020 A 
ATOM      2  C   UNL     1     -12.840  33.585  31.177  0.00  0.00    +0.013 A 
ATOM      3  C   UNL     1     -14.244  33.850  30.888  0.00  0.00    +0.019 A 
ATOM     38  C   UNL     1     -15.068  34.412  31.948  0.00  0.00    +0.120 A 
ATOM     39  N   UNL     1     -14.509  34.677  33.194  0.00  0.00    -0.263 NA
ATOM     40  C   UNL     1     -13.160  34.425  33.484  0.00  0.00    +0.111 A 
ENDBRANCH   4   3
ENDBRANCH  10   9
BRANCH  12  13
ATOM     13  N   UNL     1     -17.589  33.401  22.938  0.00  0.00    -0.281 N 
ATOM     14  C   UNL     1     -17.436  32.024  22.969  0.00  0.00    +0.248 C 
ATOM     30  O   UNL     1     -17.491  31.345  23.983  0.00  0.00    -0.270 OA
ATOM     31  H   UNL     1     -17.328  33.861  22.066  0.00  0.00    +0.155 HD
BRANCH  14  15
ATOM     15  C   UNL     1     -17.170  31.298  21.689  0.00  0.00    +0.037 A 
ATOM     16  C   UNL     1     -17.785  29.998  21.411  0.00  0.00    +0.013 A 
ATOM     17  C   UNL     1     -17.498  29.312  20.177  0.00  0.00    +0.005 A 
ATOM     18  C   UNL     1     -16.591  29.926  19.210  0.00  0.00    -0.033 A 
ATOM     28  C   UNL     1     -15.998  31.219  19.509  0.00  0.00    +0.005 A 
ATOM     29  C   UNL     1     -16.277  31.894  20.719  0.00  0.00    +0.013 A 
BRANCH  18  19
ATOM     19  C   UNL     1     -16.211  29.255  17.876  0.00  0.00    +0.119 C 
BRANCH  19  20
ATOM     20  N   UNL     1     -14.828  28.704  17.758  0.00  0.00    -0.302 NA
ATOM     21  C   UNL     1     -14.221  28.967  16.377  0.00  0.00    +0.066 C 
ATOM     22  C   UNL     1     -12.766  28.403  16.277  0.00  0.00    -0.064 C 
ATOM     23  N   UNL     1     -12.780  26.905  16.587  0.00  0.00    +0.379 N 
ATOM     24  C   UNL     1     -11.423  26.361  16.438  0.00  0.00    -0.096 C 
ATOM     25  H   UNL     1     -13.429  26.409  15.828  0.00  0.00    -0.082 HD
ATOM     26  C   UNL     1     -13.384  26.635  17.958  0.00  0.00    -0.064 C 
ATOM     27  C   UNL     1     -14.819  27.225  18.055  0.00  0.00    +0.066 C 
ENDBRANCH  19  20
ENDBRANCH  18  19
ENDBRANCH  14  15
ENDBRANCH  12  13
TORSDOF 6
ENDMDL
