MODEL 1
REMARK VINA RESULT:      -8.4      0.000      0.000
REMARK  Name = C:\Users\Docking\Desktop\test protocol\1iep_ligandH.pdb
REMARK  8 active torsions:
REMARK  status: ('A' for Active; 'I' for Inactive)
REMARK    1  A    between atoms: _5  and  _11
REMARK    2  A    between atoms: _19  and  _21
REMARK    3  A    between atoms: _22  and  _66
REMARK    4  A    between atoms: _27  and  _30
REMARK    5  A    between atoms: _32  and  _33
REMARK    6  A    between atoms: _38  and  _43
REMARK    7  A    between atoms: _43  and  _46
REMARK    8  A    between atoms: _53  and  _55
REMARK                            x       y       z     vdW  Elec       q    Type
REMARK                         _______ _______ _______ _____ _____    ______ ____
ROOT
ATOM     10  C   UNL     1     -13.335  25.632  26.547  0.00  0.00    +0.038 A 
ATOM     11  C   UNL     1     -13.129  26.895  27.157  0.00  0.00    +0.047 A 
ATOM     12  C   UNL     1     -14.142  27.937  27.092  0.00  0.00    +0.035 A 
ATOM     32  C   UNL     1     -15.356  27.657  26.400  0.00  0.00    +0.024 A 
ATOM     33  C   UNL     1     -15.582  26.378  25.773  0.00  0.00    +0.007 A 
ATOM     34  C   UNL     1     -14.585  25.348  25.831  0.00  0.00    -0.029 A 
ATOM     35  C   UNL     1     -14.879  23.998  25.135  0.00  0.00    +0.045 C 
ENDROOT
BRANCH  10   9
ATOM      4  C   UNL     1      -9.414  23.431  24.867  0.00  0.00    +0.077 A 
ATOM      5  C   UNL     1      -9.385  24.253  23.692  0.00  0.00    +0.048 A 
ATOM      6  C   UNL     1     -10.400  25.225  23.554  0.00  0.00    +0.116 A 
ATOM      7  N   UNL     1     -11.369  25.357  24.526  0.00  0.00    -0.223 NA
ATOM      8  C   UNL     1     -11.369  24.547  25.646  0.00  0.00    +0.220 A 
ATOM      9  N   UNL     1     -12.329  24.668  26.640  0.00  0.00    -0.283 N 
ATOM     36  H   UNL     1     -12.299  24.047  27.448  0.00  0.00    +0.155 HD
ATOM     37  N   UNL     1     -10.411  23.610  25.801  0.00  0.00    -0.214 NA
BRANCH   4   3
ATOM      1  C   UNL     1      -6.185  21.225  24.795  0.00  0.00    +0.020 A 
ATOM      2  C   UNL     1      -7.122  22.277  24.477  0.00  0.00    +0.013 A 
ATOM      3  C   UNL     1      -8.408  22.361  25.158  0.00  0.00    +0.019 A 
ATOM     38  C   UNL     1      -8.717  21.357  26.164  0.00  0.00    +0.120 A 
ATOM     39  N   UNL     1      -7.796  20.354  26.449  0.00  0.00    -0.263 NA
ATOM     40  C   UNL     1      -6.556  20.262  25.798  0.00  0.00    +0.111 A 
ENDBRANCH   4   3
ENDBRANCH  10   9
BRANCH  12  13
ATOM     13  N   UNL     1     -13.985  29.242  27.686  0.00  0.00    -0.281 N 
ATOM     14  C   UNL     1     -14.363  30.467  27.162  0.00  0.00    +0.248 C 
ATOM     30  O   UNL     1     -14.704  30.647  26.002  0.00  0.00    -0.270 OA
ATOM     31  H   UNL     1     -13.541  29.265  28.604  0.00  0.00    +0.155 HD
BRANCH  14  15
ATOM     15  C   UNL     1     -14.348  31.668  28.051  0.00  0.00    +0.037 A 
ATOM     16  C   UNL     1     -15.322  32.749  27.884  0.00  0.00    +0.013 A 
ATOM     17  C   UNL     1     -15.274  33.905  28.744  0.00  0.00    +0.005 A 
ATOM     18  C   UNL     1     -14.248  33.985  29.781  0.00  0.00    -0.033 A 
ATOM     28  C   UNL     1     -13.296  32.895  29.927  0.00  0.00    +0.005 A 
ATOM     29  C   UNL     1     -13.340  31.761  29.085  0.00  0.00    +0.013 A 
BRANCH  18  19
ATOM     19  C   UNL     1     -14.108  35.190  30.729  0.00  0.00    +0.119 C 
BRANCH  19  20
ATOM     20  N   UNL     1     -13.209  35.030  31.911  0.00  0.00    -0.302 NA
ATOM     21  C   UNL     1     -13.919  35.369  33.224  0.00  0.00    +0.066 C 
ATOM     22  C   UNL     1     -12.970  35.175  34.451  0.00  0.00    -0.064 C 
ATOM     23  N   UNL     1     -11.723  36.042  34.270  0.00  0.00    +0.379 N 
ATOM     24  C   UNL     1     -10.856  35.905  35.449  0.00  0.00    -0.096 C 
ATOM     25  H   UNL     1     -12.055  37.104  34.215  0.00  0.00    -0.082 HD
ATOM     26  C   UNL     1     -11.012  35.712  32.965  0.00  0.00    -0.064 C 
ATOM     27  C   UNL     1     -11.972  35.881  31.755  0.00  0.00    +0.066 C 
ENDBRANCH  19  20
ENDBRANCH  18  19
ENDBRANCH  14  15
ENDBRANCH  12  13
TORSDOF 6
ENDMDL
MODEL 2
REMARK VINA RESULT:      -8.2      4.646     14.115
REMARK  Name = C:\Users\Docking\Desktop\test protocol\1iep_ligandH.pdb
REMARK  8 active torsions:
REMARK  status: ('A' for Active; 'I' for Inactive)
REMARK    1  A    between atoms: _5  and  _11
REMARK    2  A    between atoms: _19  and  _21
REMARK    3  A    between atoms: _22  and  _66
REMARK    4  A    between atoms: _27  and  _30
REMARK    5  A    between atoms: _32  and  _33
REMARK    6  A    between atoms: _38  and  _43
REMARK    7  A    between atoms: _43  and  _46
REMARK    8  A    between atoms: _53  and  _55
REMARK                            x       y       z     vdW  Elec       q    Type
REMARK                         _______ _______ _______ _____ _____    ______ ____
ROOT
ATOM     10  C   UNL     1     -10.356  24.539  25.562  0.00  0.00    +0.038 A 
ATOM     11  C   UNL     1     -10.124  23.473  26.468  0.00  0.00    +0.047 A 
ATOM     12  C   UNL     1      -9.556  22.212  26.017  0.00  0.00    +0.035 A 
ATOM     32  C   UNL     1      -9.234  22.072  24.636  0.00  0.00    +0.024 A 
ATOM     33  C   UNL     1      -9.465  23.145  23.700  0.00  0.00    +0.007 A 
ATOM     34  C   UNL     1     -10.027  24.390  24.139  0.00  0.00    -0.029 A 
ATOM     35  C   UNL     1     -10.258  25.504  23.091  0.00  0.00    +0.045 C 
ENDROOT
BRANCH  10   9
ATOM      4  C   UNL     1     -14.090  27.393  26.539  0.00  0.00    +0.077 A 
ATOM      5  C   UNL     1     -15.028  26.446  26.009  0.00  0.00    +0.048 A 
ATOM      6  C   UNL     1     -14.508  25.239  25.488  0.00  0.00    +0.116 A 
ATOM      7  N   UNL     1     -13.150  25.008  25.501  0.00  0.00    -0.223 NA
ATOM      8  C   UNL     1     -12.272  25.943  26.019  0.00  0.00    +0.220 A 
ATOM      9  N   UNL     1     -10.903  25.728  26.050  0.00  0.00    -0.283 N 
ATOM     36  H   UNL     1     -10.289  26.446  26.433  0.00  0.00    +0.155 HD
ATOM     37  N   UNL     1     -12.744  27.104  26.521  0.00  0.00    -0.214 NA
BRANCH   4   3
ATOM      1  C   UNL     1     -15.315  31.086  26.939  0.00  0.00    +0.020 A 
ATOM      2  C   UNL     1     -14.945  29.834  26.321  0.00  0.00    +0.013 A 
ATOM      3  C   UNL     1     -14.485  28.711  27.128  0.00  0.00    +0.019 A 
ATOM     38  C   UNL     1     -14.412  28.889  28.571  0.00  0.00    +0.120 A 
ATOM     39  N   UNL     1     -14.773  30.107  29.138  0.00  0.00    -0.263 NA
ATOM     40  C   UNL     1     -15.215  31.195  28.371  0.00  0.00    +0.111 A 
ENDBRANCH   4   3
ENDBRANCH  10   9
BRANCH  12  13
ATOM     13  N   UNL     1      -9.305  21.092  26.890  0.00  0.00    -0.281 N 
ATOM     14  C   UNL     1      -9.847  19.819  26.818  0.00  0.00    +0.248 C 
ATOM     30  O   UNL     1     -10.797  19.511  26.114  0.00  0.00    -0.270 OA
ATOM     31  H   UNL     1      -8.649  21.258  27.653  0.00  0.00    +0.155 HD
BRANCH  14  15
ATOM     15  C   UNL     1      -9.256  18.734  27.660  0.00  0.00    +0.037 A 
ATOM     16  C   UNL     1      -7.805  18.590  27.805  0.00  0.00    +0.013 A 
ATOM     17  C   UNL     1      -7.261  17.525  28.609  0.00  0.00    +0.005 A 
ATOM     18  C   UNL     1      -8.170  16.596  29.277  0.00  0.00    -0.033 A 
ATOM     28  C   UNL     1      -9.605  16.765  29.120  0.00  0.00    +0.005 A 
ATOM     29  C   UNL     1     -10.142  17.807  28.331  0.00  0.00    +0.013 A 
BRANCH  18  19
ATOM     19  C   UNL     1      -7.677  15.417  30.137  0.00  0.00    +0.119 C 
BRANCH  19  20
ATOM     20  N   UNL     1      -6.221  15.090  30.080  0.00  0.00    -0.302 NA
ATOM     21  C   UNL     1      -5.949  13.820  29.269  0.00  0.00    +0.066 C 
ATOM     22  C   UNL     1      -4.420  13.505  29.201  0.00  0.00    -0.064 C 
ATOM     23  N   UNL     1      -3.865  13.371  30.620  0.00  0.00    +0.379 N 
ATOM     24  C   UNL     1      -2.439  13.018  30.558  0.00  0.00    -0.096 C 
ATOM     25  H   UNL     1      -4.401  12.528  31.114  0.00  0.00    -0.082 HD
ATOM     26  C   UNL     1      -4.133  14.629  31.434  0.00  0.00    -0.064 C 
ATOM     27  C   UNL     1      -5.654  14.949  31.471  0.00  0.00    +0.066 C 
ENDBRANCH  19  20
ENDBRANCH  18  19
ENDBRANCH  14  15
ENDBRANCH  12  13
TORSDOF 6
ENDMDL
MODEL 3
REMARK VINA RESULT:      -8.2      2.556      3.502
REMARK  Name = C:\Users\Docking\Desktop\test protocol\1iep_ligandH.pdb
REMARK  8 active torsions:
REMARK  status: ('A' for Active; 'I' for Inactive)
REMARK    1  A    between atoms: _5  and  _11
REMARK    2  A    between atoms: _19  and  _21
REMARK    3  A    between atoms: _22  and  _66
REMARK    4  A    between atoms: _27  and  _30
REMARK    5  A    between atoms: _32  and  _33
REMARK    6  A    between atoms: _38  and  _43
REMARK    7  A    between atoms: _43  and  _46
REMARK    8  A    between atoms: _53  and  _55
REMARK                            x       y       z     vdW  Elec       q    Type
REMARK                         _______ _______ _______ _____ _____    ______ ____
ROOT
ATOM     10  C   UNL     1     -13.693  24.708  26.208  0.00  0.00    +0.038 A 
ATOM     11  C   UNL     1     -13.669  25.967  26.861  0.00  0.00    +0.047 A 
ATOM     12  C   UNL     1     -14.727  26.943  26.654  0.00  0.00    +0.035 A 
ATOM     32  C   UNL     1     -15.797  26.603  25.775  0.00  0.00    +0.024 A 
ATOM     33  C   UNL     1     -15.837  25.329  25.102  0.00  0.00    +0.007 A 
ATOM     34  C   UNL     1     -14.794  24.363  25.301  0.00  0.00    -0.029 A 
ATOM     35  C   UNL     1     -14.886  23.015  24.548  0.00  0.00    +0.045 C 
ENDROOT
BRANCH  10   9
ATOM      4  C   UNL     1      -9.418  22.807  25.136  0.00  0.00    +0.077 A 
ATOM      5  C   UNL     1      -9.260  23.660  23.993  0.00  0.00    +0.048 A 
ATOM      6  C   UNL     1     -10.304  24.568  23.712  0.00  0.00    +0.116 A 
ATOM      7  N   UNL     1     -11.419  24.613  24.520  0.00  0.00    -0.223 NA
ATOM      8  C   UNL     1     -11.542  23.775  25.613  0.00  0.00    +0.220 A 
ATOM      9  N   UNL     1     -12.651  23.809  26.444  0.00  0.00    -0.283 N 
ATOM     36  H   UNL     1     -12.707  23.169  27.236  0.00  0.00    +0.155 HD
ATOM     37  N   UNL     1     -10.559  22.898  25.902  0.00  0.00    -0.214 NA
BRANCH   4   3
ATOM      1  C   UNL     1      -6.175  20.630  25.340  0.00  0.00    +0.020 A 
ATOM      2  C   UNL     1      -7.123  21.620  24.885  0.00  0.00    +0.013 A 
ATOM      3  C   UNL     1      -8.400  21.796  25.565  0.00  0.00    +0.019 A 
ATOM     38  C   UNL     1      -8.689  20.948  26.712  0.00  0.00    +0.120 A 
ATOM     39  N   UNL     1      -7.757  20.002  27.126  0.00  0.00    -0.263 NA
ATOM     40  C   UNL     1      -6.525  19.822  26.479  0.00  0.00    +0.111 A 
ENDBRANCH   4   3
ENDBRANCH  10   9
BRANCH  12  13
ATOM     13  N   UNL     1     -14.751  28.240  27.284  0.00  0.00    -0.281 N 
ATOM     14  C   UNL     1     -13.679  29.070  27.566  0.00  0.00    +0.248 C 
ATOM     30  O   UNL     1     -12.507  28.727  27.513  0.00  0.00    -0.270 OA
ATOM     31  H   UNL     1     -15.671  28.589  27.554  0.00  0.00    +0.155 HD
BRANCH  14  15
ATOM     15  C   UNL     1     -13.947  30.480  27.982  0.00  0.00    +0.037 A 
ATOM     16  C   UNL     1     -13.163  31.123  29.040  0.00  0.00    +0.013 A 
ATOM     17  C   UNL     1     -13.454  32.478  29.434  0.00  0.00    +0.005 A 
ATOM     18  C   UNL     1     -14.534  33.202  28.767  0.00  0.00    -0.033 A 
ATOM     28  C   UNL     1     -15.293  32.542  27.717  0.00  0.00    +0.005 A 
ATOM     29  C   UNL     1     -15.011  31.213  27.329  0.00  0.00    +0.013 A 
BRANCH  18  19
ATOM     19  C   UNL     1     -14.928  34.644  29.137  0.00  0.00    +0.119 C 
BRANCH  19  20
ATOM     20  N   UNL     1     -16.385  34.938  29.287  0.00  0.00    -0.302 NA
ATOM     21  C   UNL     1     -16.883  35.923  28.225  0.00  0.00    +0.066 C 
ATOM     22  C   UNL     1     -18.414  36.202  28.382  0.00  0.00    -0.064 C 
ATOM     23  N   UNL     1     -18.690  36.736  29.789  0.00  0.00    +0.379 N 
ATOM     24  C   UNL     1     -20.120  37.054  29.921  0.00  0.00    -0.096 C 
ATOM     25  H   UNL     1     -18.120  37.686  29.908  0.00  0.00    -0.082 HD
ATOM     26  C   UNL     1     -18.195  35.764  30.851  0.00  0.00    -0.064 C 
ATOM     27  C   UNL     1     -16.680  35.471  30.667  0.00  0.00    +0.066 C 
ENDBRANCH  19  20
ENDBRANCH  18  19
ENDBRANCH  14  15
ENDBRANCH  12  13
TORSDOF 6
ENDMDL
MODEL 4
REMARK VINA RESULT:      -8.0      6.980     12.882
REMARK  Name = C:\Users\Docking\Desktop\test protocol\1iep_ligandH.pdb
REMARK  8 active torsions:
REMARK  status: ('A' for Active; 'I' for Inactive)
REMARK    1  A    between atoms: _5  and  _11
REMARK    2  A    between atoms: _19  and  _21
REMARK    3  A    between atoms: _22  and  _66
REMARK    4  A    between atoms: _27  and  _30
REMARK    5  A    between atoms: _32  and  _33
REMARK    6  A    between atoms: _38  and  _43
REMARK    7  A    between atoms: _43  and  _46
REMARK    8  A    between atoms: _53  and  _55
REMARK                            x       y       z     vdW  Elec       q    Type
REMARK                         _______ _______ _______ _____ _____    ______ ____
ROOT
ATOM     10  C   UNL     1     -17.056  35.703  27.973  0.00  0.00    +0.038 A 
ATOM     11  C   UNL     1     -16.711  34.827  26.913  0.00  0.00    +0.047 A 
ATOM     12  C   UNL     1     -17.609  34.616  25.788  0.00  0.00    +0.035 A 
ATOM     32  C   UNL     1     -18.851  35.316  25.775  0.00  0.00    +0.024 A 
ATOM     33  C   UNL     1     -19.218  36.210  26.845  0.00  0.00    +0.007 A 
ATOM     34  C   UNL     1     -18.337  36.420  27.958  0.00  0.00    -0.029 A 
ATOM     35  C   UNL     1     -18.785  37.385  29.080  0.00  0.00    +0.045 C 
ENDROOT
BRANCH  10   9
ATOM      4  C   UNL     1     -13.436  34.171  30.728  0.00  0.00    +0.077 A 
ATOM      5  C   UNL     1     -13.349  32.924  30.023  0.00  0.00    +0.048 A 
ATOM      6  C   UNL     1     -14.259  32.714  28.962  0.00  0.00    +0.116 A 
ATOM      7  N   UNL     1     -15.182  33.684  28.639  0.00  0.00    -0.223 NA
ATOM      8  C   UNL     1     -15.240  34.875  29.341  0.00  0.00    +0.220 A 
ATOM      9  N   UNL     1     -16.156  35.868  29.028  0.00  0.00    -0.283 N 
ATOM     36  H   UNL     1     -16.172  36.729  29.574  0.00  0.00    +0.155 HD
ATOM     37  N   UNL     1     -14.384  35.099  30.359  0.00  0.00    -0.214 NA
BRANCH   4   3
ATOM      1  C   UNL     1     -10.298  35.155  32.845  0.00  0.00    +0.020 A 
ATOM      2  C   UNL     1     -11.117  34.800  31.709  0.00  0.00    +0.013 A 
ATOM      3  C   UNL     1     -12.542  34.542  31.870  0.00  0.00    +0.019 A 
ATOM     38  C   UNL     1     -13.113  34.655  33.204  0.00  0.00    +0.120 A 
ATOM     39  N   UNL     1     -12.299  34.998  34.279  0.00  0.00    -0.263 NA
ATOM     40  C   UNL     1     -10.926  35.246  34.137  0.00  0.00    +0.111 A 
ENDBRANCH   4   3
ENDBRANCH  10   9
BRANCH  12  13
ATOM     13  N   UNL     1     -17.316  33.732  24.687  0.00  0.00    -0.281 N 
ATOM     14  C   UNL     1     -17.623  32.386  24.570  0.00  0.00    +0.248 C 
ATOM     30  O   UNL     1     -18.010  31.683  25.492  0.00  0.00    -0.270 OA
ATOM     31  H   UNL     1     -16.823  34.149  23.898  0.00  0.00    +0.155 HD
BRANCH  14  15
ATOM     15  C   UNL     1     -17.463  31.722  23.241  0.00  0.00    +0.037 A 
ATOM     16  C   UNL     1     -16.584  32.283  22.212  0.00  0.00    +0.013 A 
ATOM     17  C   UNL     1     -16.461  31.632  20.932  0.00  0.00    +0.005 A 
ATOM     18  C   UNL     1     -17.220  30.410  20.675  0.00  0.00    -0.033 A 
ATOM     28  C   UNL     1     -18.080  29.872  21.715  0.00  0.00    +0.005 A 
ATOM     29  C   UNL     1     -18.204  30.508  22.971  0.00  0.00    +0.013 A 
BRANCH  18  19
ATOM     19  C   UNL     1     -17.166  29.659  19.331  0.00  0.00    +0.119 C 
BRANCH  19  20
ATOM     20  N   UNL     1     -15.816  29.381  18.756  0.00  0.00    -0.302 NA
ATOM     21  C   UNL     1     -15.583  30.135  17.444  0.00  0.00    +0.066 C 
ATOM     22  C   UNL     1     -14.157  29.850  16.869  0.00  0.00    -0.064 C 
ATOM     23  N   UNL     1     -13.984  28.344  16.666  0.00  0.00    +0.379 N 
ATOM     24  C   UNL     1     -12.666  28.077  16.071  0.00  0.00    -0.096 C 
ATOM     25  H   UNL     1     -14.759  28.010  15.937  0.00  0.00    -0.082 HD
ATOM     26  C   UNL     1     -14.217  27.586  17.965  0.00  0.00    -0.064 C 
ATOM     27  C   UNL     1     -15.625  27.899  18.543  0.00  0.00    +0.066 C 
ENDBRANCH  19  20
ENDBRANCH  18  19
ENDBRANCH  14  15
ENDBRANCH  12  13
TORSDOF 6
ENDMDL
MODEL 5
REMARK VINA RESULT:      -8.0      4.793     12.981
REMARK  Name = C:\Users\Docking\Desktop\test protocol\1iep_ligandH.pdb
REMARK  8 active torsions:
REMARK  status: ('A' for Active; 'I' for Inactive)
REMARK    1  A    between atoms: _5  and  _11
REMARK    2  A    between atoms: _19  and  _21
REMARK    3  A    between atoms: _22  and  _66
REMARK    4  A    between atoms: _27  and  _30
REMARK    5  A    between atoms: _32  and  _33
REMARK    6  A    between atoms: _38  and  _43
REMARK    7  A    between atoms: _43  and  _46
REMARK    8  A    between atoms: _53  and  _55
REMARK                            x       y       z     vdW  Elec       q    Type
REMARK                         _______ _______ _______ _____ _____    ______ ____
ROOT
ATOM     10  C   UNL     1     -11.154  24.534  24.819  0.00  0.00    +0.038 A 
ATOM     11  C   UNL     1     -10.817  23.403  25.606  0.00  0.00    +0.047 A 
ATOM     12  C   UNL     1     -10.571  22.107  24.994  0.00  0.00    +0.035 A 
ATOM     32  C   UNL     1     -10.675  21.998  23.577  0.00  0.00    +0.024 A 
ATOM     33  C   UNL     1     -11.017  23.137  22.761  0.00  0.00    +0.007 A 
ATOM     34  C   UNL     1     -11.264  24.418  23.360  0.00  0.00    -0.029 A 
ATOM     35  C   UNL     1     -11.634  25.603  22.437  0.00  0.00    +0.045 C 
ENDROOT
BRANCH  10   9
ATOM      4  C   UNL     1     -14.068  27.846  26.712  0.00  0.00    +0.077 A 
ATOM      5  C   UNL     1     -15.241  27.093  26.373  0.00  0.00    +0.048 A 
ATOM      6  C   UNL     1     -15.052  25.862  25.706  0.00  0.00    +0.116 A 
ATOM      7  N   UNL     1     -13.779  25.426  25.405  0.00  0.00    -0.223 NA
ATOM      8  C   UNL     1     -12.669  26.177  25.744  0.00  0.00    +0.220 A 
ATOM      9  N   UNL     1     -11.380  25.755  25.459  0.00  0.00    -0.283 N 
ATOM     36  H   UNL     1     -10.588  26.342  25.719  0.00  0.00    +0.155 HD
ATOM     37  N   UNL     1     -12.824  27.357  26.381  0.00  0.00    -0.214 NA
BRANCH   4   3
ATOM      1  C   UNL     1     -13.479  30.697  29.324  0.00  0.00    +0.020 A 
ATOM      2  C   UNL     1     -13.412  29.405  28.681  0.00  0.00    +0.013 A 
ATOM      3  C   UNL     1     -14.104  29.164  27.421  0.00  0.00    +0.019 A 
ATOM     38  C   UNL     1     -14.860  30.260  26.833  0.00  0.00    +0.120 A 
ATOM     39  N   UNL     1     -14.907  31.493  27.477  0.00  0.00    -0.263 NA
ATOM     40  C   UNL     1     -14.247  31.736  28.690  0.00  0.00    +0.111 A 
ENDBRANCH   4   3
ENDBRANCH  10   9
BRANCH  12  13
ATOM     13  N   UNL     1     -10.233  20.922  25.743  0.00  0.00    -0.281 N 
ATOM     14  C   UNL     1      -8.984  20.525  26.191  0.00  0.00    +0.248 C 
ATOM     30  O   UNL     1      -7.929  21.025  25.830  0.00  0.00    -0.270 OA
ATOM     31  H   UNL     1     -11.009  20.300  25.970  0.00  0.00    +0.155 HD
BRANCH  14  15
ATOM     15  C   UNL     1      -8.892  19.400  27.171  0.00  0.00    +0.037 A 
ATOM     16  C   UNL     1      -7.619  19.046  27.804  0.00  0.00    +0.013 A 
ATOM     17  C   UNL     1      -7.555  17.946  28.733  0.00  0.00    +0.005 A 
ATOM     18  C   UNL     1      -8.770  17.193  29.037  0.00  0.00    -0.033 A 
ATOM     28  C   UNL     1     -10.020  17.570  28.399  0.00  0.00    +0.005 A 
ATOM     29  C   UNL     1     -10.087  18.647  27.487  0.00  0.00    +0.013 A 
BRANCH  18  19
ATOM     19  C   UNL     1      -8.790  15.991  30.000  0.00  0.00    +0.119 C 
BRANCH  19  20
ATOM     20  N   UNL     1      -8.437  16.253  31.427  0.00  0.00    -0.302 NA
ATOM     21  C   UNL     1      -8.030  14.972  32.162  0.00  0.00    +0.066 C 
ATOM     22  C   UNL     1      -7.641  15.267  33.647  0.00  0.00    -0.064 C 
ATOM     23  N   UNL     1      -8.816  15.947  34.353  0.00  0.00    +0.379 N 
ATOM     24  C   UNL     1      -8.475  16.173  35.765  0.00  0.00    -0.096 C 
ATOM     25  H   UNL     1      -9.681  15.245  34.322  0.00  0.00    -0.082 HD
ATOM     26  C   UNL     1      -9.228  17.220  33.627  0.00  0.00    -0.064 C 
ATOM     27  C   UNL     1      -9.584  16.920  32.144  0.00  0.00    +0.066 C 
ENDBRANCH  19  20
ENDBRANCH  18  19
ENDBRANCH  14  15
ENDBRANCH  12  13
TORSDOF 6
ENDMDL
