MODEL 1
REMARK VINA RESULT:      -8.4      0.000      0.000
REMARK  Name = C:\Users\Docking\Desktop\test protocol\1iep_ligandH.pdb
REMARK  8 active torsions:
REMARK  status: ('A' for Active; 'I' for Inactive)
REMARK    1  A    between atoms: _5  and  _11
REMARK    2  A    between atoms: _19  and  _21
REMARK    3  A    between atoms: _22  and  _66
REMARK    4  A    between atoms: _27  and  _30
REMARK    5  A    between atoms: _32  and  _33
REMARK    6  A    between atoms: _38  and  _43
REMARK    7  A    between atoms: _43  and  _46
REMARK    8  A    between atoms: _53  and  _55
REMARK                            x       y       z     vdW  Elec       q    Type
REMARK                         _______ _______ _______ _____ _____    ______ ____
ROOT
ATOM     10  C   UNL     1      44.773  48.025   1.929  0.00  0.00    +0.038 A 
ATOM     11  C   UNL     1      45.589  48.862   1.125  0.00  0.00    +0.047 A 
ATOM     12  C   UNL     1      46.707  49.596   1.696  0.00  0.00    +0.035 A 
ATOM     32  C   UNL     1      46.968  49.453   3.090  0.00  0.00    +0.024 A 
ATOM     33  C   UNL     1      46.148  48.608   3.923  0.00  0.00    +0.007 A 
ATOM     34  C   UNL     1      45.042  47.883   3.365  0.00  0.00    -0.029 A 
ATOM     35  C   UNL     1      44.193  46.997   4.306  0.00  0.00    +0.045 C 
ENDROOT
BRANCH  10   9
ATOM      4  C   UNL     1      40.246  47.786   0.351  0.00  0.00    +0.077 A 
ATOM      5  C   UNL     1      39.962  49.124   0.784  0.00  0.00    +0.048 A 
ATOM      6  C   UNL     1      41.006  49.837   1.415  0.00  0.00    +0.116 A 
ATOM      7  N   UNL     1      42.238  49.247   1.594  0.00  0.00    -0.223 NA
ATOM      8  C   UNL     1      42.478  47.954   1.166  0.00  0.00    +0.220 A 
ATOM      9  N   UNL     1      43.712  47.343   1.329  0.00  0.00    -0.283 N 
ATOM     36  H   UNL     1      43.847  46.385   1.006  0.00  0.00    +0.155 HD
ATOM     37  N   UNL     1      41.498  47.251   0.562  0.00  0.00    -0.214 NA
BRANCH   4   3
ATOM      1  C   UNL     1      37.061  46.515  -1.529  0.00  0.00    +0.020 A 
ATOM      2  C   UNL     1      37.991  47.407  -0.876  0.00  0.00    +0.013 A 
ATOM      3  C   UNL     1      39.248  46.906  -0.334  0.00  0.00    +0.019 A 
ATOM     38  C   UNL     1      39.536  45.487  -0.472  0.00  0.00    +0.120 A 
ATOM     39  N   UNL     1      38.620  44.651  -1.104  0.00  0.00    -0.263 NA
ATOM     40  C   UNL     1      37.407  45.122  -1.628  0.00  0.00    +0.111 A 
ENDBRANCH   4   3
ENDBRANCH  10   9
BRANCH  12  13
ATOM     13  N   UNL     1      47.565  50.466   0.931  0.00  0.00    -0.281 N 
ATOM     14  C   UNL     1      47.814  50.434  -0.431  0.00  0.00    +0.248 C 
ATOM     30  O   UNL     1      47.501  49.512  -1.169  0.00  0.00    -0.270 OA
ATOM     31  H   UNL     1      48.047  51.195   1.458  0.00  0.00    +0.155 HD
BRANCH  14  15
ATOM     15  C   UNL     1      48.528  51.586  -1.062  0.00  0.00    +0.037 A 
ATOM     16  C   UNL     1      48.488  51.803  -2.511  0.00  0.00    +0.013 A 
ATOM     17  C   UNL     1      49.199  52.912  -3.095  0.00  0.00    +0.005 A 
ATOM     18  C   UNL     1      49.955  53.814  -2.230  0.00  0.00    -0.033 A 
ATOM     28  C   UNL     1      49.973  53.578  -0.796  0.00  0.00    +0.005 A 
ATOM     29  C   UNL     1      49.278  52.492  -0.219  0.00  0.00    +0.013 A 
BRANCH  18  19
ATOM     19  C   UNL     1      50.761  55.010  -2.770  0.00  0.00    +0.119 C 
BRANCH  19  20
ATOM     20  N   UNL     1      51.695  54.749  -3.905  0.00  0.00    -0.302 NA
ATOM     21  C   UNL     1      53.144  55.093  -3.548  0.00  0.00    +0.066 C 
ATOM     22  C   UNL     1      54.111  54.793  -4.739  0.00  0.00    -0.064 C 
ATOM     23  N   UNL     1      53.656  55.577  -5.972  0.00  0.00    +0.379 N 
ATOM     24  C   UNL     1      54.597  55.342  -7.077  0.00  0.00    -0.096 C 
ATOM     25  H   UNL     1      53.698  56.661  -5.716  0.00  0.00    -0.082 HD
ATOM     26  C   UNL     1      52.216  55.243  -6.332  0.00  0.00    -0.064 C 
ATOM     27  C   UNL     1      51.267  55.517  -5.132  0.00  0.00    +0.066 C 
ENDBRANCH  19  20
ENDBRANCH  18  19
ENDBRANCH  14  15
ENDBRANCH  12  13
TORSDOF 6
ENDMDL
MODEL 2
REMARK VINA RESULT:      -8.1      1.678      2.336
REMARK  Name = C:\Users\Docking\Desktop\test protocol\1iep_ligandH.pdb
REMARK  8 active torsions:
REMARK  status: ('A' for Active; 'I' for Inactive)
REMARK    1  A    between atoms: _5  and  _11
REMARK    2  A    between atoms: _19  and  _21
REMARK    3  A    between atoms: _22  and  _66
REMARK    4  A    between atoms: _27  and  _30
REMARK    5  A    between atoms: _32  and  _33
REMARK    6  A    between atoms: _38  and  _43
REMARK    7  A    between atoms: _43  and  _46
REMARK    8  A    between atoms: _53  and  _55
REMARK                            x       y       z     vdW  Elec       q    Type
REMARK                         _______ _______ _______ _____ _____    ______ ____
ROOT
ATOM     10  C   UNL     1      43.249  47.042   0.415  0.00  0.00    +0.038 A 
ATOM     11  C   UNL     1      43.965  48.064  -0.258  0.00  0.00    +0.047 A 
ATOM     12  C   UNL     1      45.219  48.577   0.270  0.00  0.00    +0.035 A 
ATOM     32  C   UNL     1      45.717  48.024   1.486  0.00  0.00    +0.024 A 
ATOM     33  C   UNL     1      45.001  46.986   2.185  0.00  0.00    +0.007 A 
ATOM     34  C   UNL     1      43.762  46.477   1.669  0.00  0.00    -0.029 A 
ATOM     35  C   UNL     1      43.034  45.368   2.463  0.00  0.00    +0.045 C 
ENDROOT
BRANCH  10   9
ATOM      4  C   UNL     1      38.504  47.351  -0.242  0.00  0.00    +0.077 A 
ATOM      5  C   UNL     1      38.402  48.501   0.609  0.00  0.00    +0.048 A 
ATOM      6  C   UNL     1      39.592  48.978   1.202  0.00  0.00    +0.116 A 
ATOM      7  N   UNL     1      40.790  48.343   0.955  0.00  0.00    -0.223 NA
ATOM      8  C   UNL     1      40.854  47.235   0.131  0.00  0.00    +0.220 A 
ATOM      9  N   UNL     1      42.050  46.586  -0.138  0.00  0.00    -0.283 N 
ATOM     36  H   UNL     1      42.054  45.768  -0.745  0.00  0.00    +0.155 HD
ATOM     37  N   UNL     1      39.731  46.760  -0.446  0.00  0.00    -0.214 NA
BRANCH   4   3
ATOM      1  C   UNL     1      35.828  46.437  -2.945  0.00  0.00    +0.020 A 
ATOM      2  C   UNL     1      36.966  47.065  -2.313  0.00  0.00    +0.013 A 
ATOM      3  C   UNL     1      37.336  46.731  -0.944  0.00  0.00    +0.019 A 
ATOM     38  C   UNL     1      36.528  45.749  -0.236  0.00  0.00    +0.120 A 
ATOM     39  N   UNL     1      35.437  45.162  -0.869  0.00  0.00    -0.263 NA
ATOM     40  C   UNL     1      35.071  45.477  -2.186  0.00  0.00    +0.111 A 
ENDBRANCH   4   3
ENDBRANCH  10   9
BRANCH  12  13
ATOM     13  N   UNL     1      45.987  49.619  -0.365  0.00  0.00    -0.281 N 
ATOM     14  C   UNL     1      47.157  50.210   0.083  0.00  0.00    +0.248 C 
ATOM     30  O   UNL     1      47.609  50.078   1.211  0.00  0.00    -0.270 OA
ATOM     31  H   UNL     1      45.623  49.964  -1.254  0.00  0.00    +0.155 HD
BRANCH  14  15
ATOM     15  C   UNL     1      47.930  51.083  -0.851  0.00  0.00    +0.037 A 
ATOM     16  C   UNL     1      49.393  51.133  -0.811  0.00  0.00    +0.013 A 
ATOM     17  C   UNL     1      50.113  51.997  -1.712  0.00  0.00    +0.005 A 
ATOM     18  C   UNL     1      49.369  52.819  -2.664  0.00  0.00    -0.033 A 
ATOM     28  C   UNL     1      47.918  52.746  -2.686  0.00  0.00    +0.005 A 
ATOM     29  C   UNL     1      47.209  51.901  -1.803  0.00  0.00    +0.013 A 
BRANCH  18  19
ATOM     19  C   UNL     1      50.054  53.785  -3.648  0.00  0.00    +0.119 C 
BRANCH  19  20
ATOM     20  N   UNL     1      51.421  54.268  -3.293  0.00  0.00    -0.302 NA
ATOM     21  C   UNL     1      51.388  55.317  -2.177  0.00  0.00    +0.066 C 
ATOM     22  C   UNL     1      52.829  55.795  -1.802  0.00  0.00    -0.064 C 
ATOM     23  N   UNL     1      53.519  56.352  -3.049  0.00  0.00    +0.379 N 
ATOM     24  C   UNL     1      54.852  56.855  -2.688  0.00  0.00    -0.096 C 
ATOM     25  H   UNL     1      52.916  57.218  -3.410  0.00  0.00    -0.082 HD
ATOM     26  C   UNL     1      53.554  55.317  -4.164  0.00  0.00    -0.064 C 
ATOM     27  C   UNL     1      52.119  54.827  -4.508  0.00  0.00    +0.066 C 
ENDBRANCH  19  20
ENDBRANCH  18  19
ENDBRANCH  14  15
ENDBRANCH  12  13
TORSDOF 6
ENDMDL
MODEL 3
REMARK VINA RESULT:      -8.0      1.660      2.153
REMARK  Name = C:\Users\Docking\Desktop\test protocol\1iep_ligandH.pdb
REMARK  8 active torsions:
REMARK  status: ('A' for Active; 'I' for Inactive)
REMARK    1  A    between atoms: _5  and  _11
REMARK    2  A    between atoms: _19  and  _21
REMARK    3  A    between atoms: _22  and  _66
REMARK    4  A    between atoms: _27  and  _30
REMARK    5  A    between atoms: _32  and  _33
REMARK    6  A    between atoms: _38  and  _43
REMARK    7  A    between atoms: _43  and  _46
REMARK    8  A    between atoms: _53  and  _55
REMARK                            x       y       z     vdW  Elec       q    Type
REMARK                         _______ _______ _______ _____ _____    ______ ____
ROOT
ATOM     10  C   UNL     1      45.662  48.757   0.737  0.00  0.00    +0.038 A 
ATOM     11  C   UNL     1      46.210  49.678  -0.193  0.00  0.00    +0.047 A 
ATOM     12  C   UNL     1      47.389  50.465   0.133  0.00  0.00    +0.035 A 
ATOM     32  C   UNL     1      47.987  50.286   1.414  0.00  0.00    +0.024 A 
ATOM     33  C   UNL     1      47.444  49.355   2.371  0.00  0.00    +0.007 A 
ATOM     34  C   UNL     1      46.279  48.578   2.057  0.00  0.00    -0.029 A 
ATOM     35  C   UNL     1      45.736  47.600   3.124  0.00  0.00    +0.045 C 
ENDROOT
BRANCH  10   9
ATOM      4  C   UNL     1      40.905  48.202   0.425  0.00  0.00    +0.077 A 
ATOM      5  C   UNL     1      40.657  49.460   1.068  0.00  0.00    +0.048 A 
ATOM      6  C   UNL     1      41.781  50.216   1.470  0.00  0.00    +0.116 A 
ATOM      7  N   UNL     1      43.053  49.740   1.241  0.00  0.00    -0.223 NA
ATOM      8  C   UNL     1      43.258  48.522   0.619  0.00  0.00    +0.220 A 
ATOM      9  N   UNL     1      44.529  48.027   0.371  0.00  0.00    -0.283 N 
ATOM     36  H   UNL     1      44.637  47.121  -0.083  0.00  0.00    +0.155 HD
ATOM     37  N   UNL     1      42.201  47.780   0.227  0.00  0.00    -0.214 NA
BRANCH   4   3
ATOM      1  C   UNL     1      37.476  46.839  -0.873  0.00  0.00    +0.020 A 
ATOM      2  C   UNL     1      38.487  47.761  -0.408  0.00  0.00    +0.013 A 
ATOM      3  C   UNL     1      39.821  47.290  -0.061  0.00  0.00    +0.019 A 
ATOM     38  C   UNL     1      40.104  45.869  -0.196  0.00  0.00    +0.120 A 
ATOM     39  N   UNL     1      39.110  45.005  -0.645  0.00  0.00    -0.263 NA
ATOM     40  C   UNL     1      37.822  45.446  -0.981  0.00  0.00    +0.111 A 
ENDBRANCH   4   3
ENDBRANCH  10   9
BRANCH  12  13
ATOM     13  N   UNL     1      47.984  51.421  -0.767  0.00  0.00    -0.281 N 
ATOM     14  C   UNL     1      48.931  52.390  -0.476  0.00  0.00    +0.248 C 
ATOM     30  O   UNL     1      49.254  52.723   0.654  0.00  0.00    -0.270 OA
ATOM     31  H   UNL     1      47.670  51.378  -1.737  0.00  0.00    +0.155 HD
BRANCH  14  15
ATOM     15  C   UNL     1      49.606  53.101  -1.604  0.00  0.00    +0.037 A 
ATOM     16  C   UNL     1      49.064  53.055  -2.965  0.00  0.00    +0.013 A 
ATOM     17  C   UNL     1      49.745  53.736  -4.037  0.00  0.00    +0.005 A 
ATOM     18  C   UNL     1      50.975  54.471  -3.753  0.00  0.00    -0.033 A 
ATOM     28  C   UNL     1      51.488  54.504  -2.393  0.00  0.00    +0.005 A 
ATOM     29  C   UNL     1      50.824  53.837  -1.339  0.00  0.00    +0.013 A 
BRANCH  18  19
ATOM     19  C   UNL     1      51.779  55.209  -4.840  0.00  0.00    +0.119 C 
BRANCH  19  20
ATOM     20  N   UNL     1      51.836  54.581  -6.193  0.00  0.00    -0.302 NA
ATOM     21  C   UNL     1      52.999  55.123  -7.029  0.00  0.00    +0.066 C 
ATOM     22  C   UNL     1      53.057  54.438  -8.434  0.00  0.00    -0.064 C 
ATOM     23  N   UNL     1      51.725  54.650  -9.157  0.00  0.00    +0.379 N 
ATOM     24  C   UNL     1      51.797  54.058 -10.501  0.00  0.00    -0.096 C 
ATOM     25  H   UNL     1      51.578  55.748  -9.278  0.00  0.00    -0.082 HD
ATOM     26  C   UNL     1      50.563  54.117  -8.331  0.00  0.00    -0.064 C 
ATOM     27  C   UNL     1      50.532  54.782  -6.927  0.00  0.00    +0.066 C 
ENDBRANCH  19  20
ENDBRANCH  18  19
ENDBRANCH  14  15
ENDBRANCH  12  13
TORSDOF 6
ENDMDL
MODEL 4
REMARK VINA RESULT:      -7.8      1.484      2.524
REMARK  Name = C:\Users\Docking\Desktop\test protocol\1iep_ligandH.pdb
REMARK  8 active torsions:
REMARK  status: ('A' for Active; 'I' for Inactive)
REMARK    1  A    between atoms: _5  and  _11
REMARK    2  A    between atoms: _19  and  _21
REMARK    3  A    between atoms: _22  and  _66
REMARK    4  A    between atoms: _27  and  _30
REMARK    5  A    between atoms: _32  and  _33
REMARK    6  A    between atoms: _38  and  _43
REMARK    7  A    between atoms: _43  and  _46
REMARK    8  A    between atoms: _53  and  _55
REMARK                            x       y       z     vdW  Elec       q    Type
REMARK                         _______ _______ _______ _____ _____    ______ ____
ROOT
ATOM     10  C   UNL     1      45.862  49.205   0.426  0.00  0.00    +0.038 A 
ATOM     11  C   UNL     1      46.411  50.053  -0.569  0.00  0.00    +0.047 A 
ATOM     12  C   UNL     1      47.609  50.837  -0.312  0.00  0.00    +0.035 A 
ATOM     32  C   UNL     1      48.224  50.731   0.969  0.00  0.00    +0.024 A 
ATOM     33  C   UNL     1      47.679  49.875   1.993  0.00  0.00    +0.007 A 
ATOM     34  C   UNL     1      46.496  49.101   1.746  0.00  0.00    -0.029 A 
ATOM     35  C   UNL     1      45.952  48.204   2.883  0.00  0.00    +0.045 C 
ENDROOT
BRANCH  10   9
ATOM      4  C   UNL     1      41.106  48.570   0.532  0.00  0.00    +0.077 A 
ATOM      5  C   UNL     1      40.901  49.782   1.271  0.00  0.00    +0.048 A 
ATOM      6  C   UNL     1      42.046  50.536   1.611  0.00  0.00    +0.116 A 
ATOM      7  N   UNL     1      43.298  50.102   1.234  0.00  0.00    -0.223 NA
ATOM      8  C   UNL     1      43.461  48.927   0.522  0.00  0.00    +0.220 A 
ATOM      9  N   UNL     1      44.710  48.475   0.126  0.00  0.00    -0.283 N 
ATOM     36  H   UNL     1      44.789  47.600  -0.391  0.00  0.00    +0.155 HD
ATOM     37  N   UNL     1      42.383  48.188   0.187  0.00  0.00    -0.214 NA
BRANCH   4   3
ATOM      1  C   UNL     1      37.592  47.218  -0.531  0.00  0.00    +0.020 A 
ATOM      2  C   UNL     1      38.629  48.132  -0.109  0.00  0.00    +0.013 A 
ATOM      3  C   UNL     1      39.995  47.666   0.096  0.00  0.00    +0.019 A 
ATOM     38  C   UNL     1      40.281  46.259  -0.138  0.00  0.00    +0.120 A 
ATOM     39  N   UNL     1      39.263  45.402  -0.543  0.00  0.00    -0.263 NA
ATOM     40  C   UNL     1      37.944  45.838  -0.741  0.00  0.00    +0.111 A 
ENDBRANCH   4   3
ENDBRANCH  10   9
BRANCH  12  13
ATOM     13  N   UNL     1      48.208  51.722  -1.281  0.00  0.00    -0.281 N 
ATOM     14  C   UNL     1      48.925  52.883  -1.046  0.00  0.00    +0.248 C 
ATOM     30  O   UNL     1      48.979  53.455   0.033  0.00  0.00    -0.270 OA
ATOM     31  H   UNL     1      48.088  51.460  -2.260  0.00  0.00    +0.155 HD
BRANCH  14  15
ATOM     15  C   UNL     1      49.680  53.507  -2.174  0.00  0.00    +0.037 A 
ATOM     16  C   UNL     1      50.659  54.571  -1.938  0.00  0.00    +0.013 A 
ATOM     17  C   UNL     1      51.361  55.168  -3.046  0.00  0.00    +0.005 A 
ATOM     18  C   UNL     1      51.087  54.700  -4.403  0.00  0.00    -0.033 A 
ATOM     28  C   UNL     1      50.115  53.639  -4.609  0.00  0.00    +0.005 A 
ATOM     29  C   UNL     1      49.424  53.052  -3.525  0.00  0.00    +0.013 A 
BRANCH  18  19
ATOM     19  C   UNL     1      51.774  55.293  -5.647  0.00  0.00    +0.119 C 
BRANCH  19  20
ATOM     20  N   UNL     1      53.248  55.523  -5.570  0.00  0.00    -0.302 NA
ATOM     21  C   UNL     1      53.863  55.770  -6.950  0.00  0.00    +0.066 C 
ATOM     22  C   UNL     1      55.402  56.030  -6.849  0.00  0.00    -0.064 C 
ATOM     23  N   UNL     1      56.073  54.841  -6.162  0.00  0.00    +0.379 N 
ATOM     24  C   UNL     1      57.527  55.056  -6.117  0.00  0.00    -0.096 C 
ATOM     25  H   UNL     1      55.884  53.938  -6.788  0.00  0.00    -0.082 HD
ATOM     26  C   UNL     1      55.466  54.586  -4.790  0.00  0.00    -0.064 C 
ATOM     27  C   UNL     1      53.932  54.358  -4.898  0.00  0.00    +0.066 C 
ENDBRANCH  19  20
ENDBRANCH  18  19
ENDBRANCH  14  15
ENDBRANCH  12  13
TORSDOF 6
ENDMDL
MODEL 5
REMARK VINA RESULT:      -7.7     24.948     27.374
REMARK  Name = C:\Users\Docking\Desktop\test protocol\1iep_ligandH.pdb
REMARK  8 active torsions:
REMARK  status: ('A' for Active; 'I' for Inactive)
REMARK    1  A    between atoms: _5  and  _11
REMARK    2  A    between atoms: _19  and  _21
REMARK    3  A    between atoms: _22  and  _66
REMARK    4  A    between atoms: _27  and  _30
REMARK    5  A    between atoms: _32  and  _33
REMARK    6  A    between atoms: _38  and  _43
REMARK    7  A    between atoms: _43  and  _46
REMARK    8  A    between atoms: _53  and  _55
REMARK                            x       y       z     vdW  Elec       q    Type
REMARK                         _______ _______ _______ _____ _____    ______ ____
ROOT
ATOM     10  C   UNL     1      48.636  36.138 -25.659  0.00  0.00    +0.038 A 
ATOM     11  C   UNL     1      48.303  37.413 -25.134  0.00  0.00    +0.047 A 
ATOM     12  C   UNL     1      47.925  38.512 -26.008  0.00  0.00    +0.035 A 
ATOM     32  C   UNL     1      47.893  38.277 -27.413  0.00  0.00    +0.024 A 
ATOM     33  C   UNL     1      48.228  36.988 -27.965  0.00  0.00    +0.007 A 
ATOM     34  C   UNL     1      48.605  35.901 -27.107  0.00  0.00    -0.029 A 
ATOM     35  C   UNL     1      48.961  34.542 -27.754  0.00  0.00    +0.045 C 
ENDROOT
BRANCH  10   9
ATOM      4  C   UNL     1      51.820  33.871 -22.874  0.00  0.00    +0.077 A 
ATOM      5  C   UNL     1      52.871  34.779 -23.234  0.00  0.00    +0.048 A 
ATOM      6  C   UNL     1      52.552  35.812 -24.145  0.00  0.00    +0.116 A 
ATOM      7  N   UNL     1      51.274  35.919 -24.651  0.00  0.00    -0.223 NA
ATOM      8  C   UNL     1      50.285  35.025 -24.284  0.00  0.00    +0.220 A 
ATOM      9  N   UNL     1      48.992  35.118 -24.774  0.00  0.00    -0.283 N 
ATOM     36  H   UNL     1      48.292  34.435 -24.484  0.00  0.00    +0.155 HD
ATOM     37  N   UNL     1      50.565  34.029 -23.417  0.00  0.00    -0.214 NA
BRANCH   4   3
ATOM      1  C   UNL     1      51.442  30.425 -21.062  0.00  0.00    +0.020 A 
ATOM      2  C   UNL     1      51.229  31.497 -22.008  0.00  0.00    +0.013 A 
ATOM      3  C   UNL     1      52.000  32.731 -21.921  0.00  0.00    +0.019 A 
ATOM     38  C   UNL     1      52.987  32.849 -20.859  0.00  0.00    +0.120 A 
ATOM     39  N   UNL     1      53.169  31.801 -19.962  0.00  0.00    -0.263 NA
ATOM     40  C   UNL     1      52.432  30.610 -20.034  0.00  0.00    +0.111 A 
ENDBRANCH   4   3
ENDBRANCH  10   9
BRANCH  12  13
ATOM     13  N   UNL     1      47.586  39.830 -25.532  0.00  0.00    -0.281 N 
ATOM     14  C   UNL     1      48.446  40.839 -25.132  0.00  0.00    +0.248 C 
ATOM     30  O   UNL     1      49.640  40.685 -24.919  0.00  0.00    -0.270 OA
ATOM     31  H   UNL     1      46.590  40.046 -25.485  0.00  0.00    +0.155 HD
BRANCH  14  15
ATOM     15  C   UNL     1      47.900  42.215 -24.924  0.00  0.00    +0.037 A 
ATOM     16  C   UNL     1      48.784  43.350 -24.650  0.00  0.00    +0.013 A 
ATOM     17  C   UNL     1      48.229  44.664 -24.436  0.00  0.00    +0.005 A 
ATOM     18  C   UNL     1      46.781  44.848 -24.498  0.00  0.00    -0.033 A 
ATOM     28  C   UNL     1      45.928  43.705 -24.776  0.00  0.00    +0.005 A 
ATOM     29  C   UNL     1      46.468  42.416 -24.985  0.00  0.00    +0.013 A 
BRANCH  18  19
ATOM     19  C   UNL     1      46.101  46.209 -24.262  0.00  0.00    +0.119 C 
BRANCH  19  20
ATOM     20  N   UNL     1      46.986  47.409 -24.167  0.00  0.00    -0.302 NA
ATOM     21  C   UNL     1      46.632  48.291 -22.966  0.00  0.00    +0.066 C 
ATOM     22  C   UNL     1      47.582  49.529 -22.870  0.00  0.00    -0.064 C 
ATOM     23  N   UNL     1      47.505  50.329 -24.171  0.00  0.00    +0.379 N 
ATOM     24  C   UNL     1      48.353  51.526 -24.061  0.00  0.00    -0.096 C 
ATOM     25  H   UNL     1      46.452  50.671 -24.295  0.00  0.00    -0.082 HD
ATOM     26  C   UNL     1      47.853  49.459 -25.370  0.00  0.00    -0.064 C 
ATOM     27  C   UNL     1      46.922  48.217 -25.440  0.00  0.00    +0.066 C 
ENDBRANCH  19  20
ENDBRANCH  18  19
ENDBRANCH  14  15
ENDBRANCH  12  13
TORSDOF 6
ENDMDL
