MODEL 1
REMARK VINA RESULT:      -8.3      0.000      0.000
REMARK  Name = C:\Users\Docking\Desktop\test protocol\1iep_ligandH.pdb
REMARK  8 active torsions:
REMARK  status: ('A' for Active; 'I' for Inactive)
REMARK    1  A    between atoms: _5  and  _11
REMARK    2  A    between atoms: _19  and  _21
REMARK    3  A    between atoms: _22  and  _66
REMARK    4  A    between atoms: _27  and  _30
REMARK    5  A    between atoms: _32  and  _33
REMARK    6  A    between atoms: _38  and  _43
REMARK    7  A    between atoms: _43  and  _46
REMARK    8  A    between atoms: _53  and  _55
REMARK                            x       y       z     vdW  Elec       q    Type
REMARK                         _______ _______ _______ _____ _____    ______ ____
ROOT
ATOM     10  C   UNL     1      23.176  30.426  14.747  0.00  0.00    +0.038 A 
ATOM     11  C   UNL     1      22.002  30.533  13.958  0.00  0.00    +0.047 A 
ATOM     12  C   UNL     1      20.907  31.406  14.351  0.00  0.00    +0.035 A 
ATOM     32  C   UNL     1      21.043  32.160  15.553  0.00  0.00    +0.024 A 
ATOM     33  C   UNL     1      22.228  32.063  16.368  0.00  0.00    +0.007 A 
ATOM     34  C   UNL     1      23.310  31.201  15.986  0.00  0.00    -0.029 A 
ATOM     35  C   UNL     1      24.555  31.132  16.902  0.00  0.00    +0.045 C 
ENDROOT
BRANCH  10   9
ATOM      4  C   UNL     1      25.738  26.385  15.112  0.00  0.00    +0.077 A 
ATOM      5  C   UNL     1      25.000  25.950  16.262  0.00  0.00    +0.048 A 
ATOM      6  C   UNL     1      23.973  26.799  16.733  0.00  0.00    +0.116 A 
ATOM      7  N   UNL     1      23.713  27.992  16.093  0.00  0.00    -0.223 NA
ATOM      8  C   UNL     1      24.445  28.381  14.986  0.00  0.00    +0.220 A 
ATOM      9  N   UNL     1      24.196  29.572  14.322  0.00  0.00    -0.283 N 
ATOM     36  H   UNL     1      24.763  29.828  13.514  0.00  0.00    +0.155 HD
ATOM     37  N   UNL     1      25.432  27.589  14.518  0.00  0.00    -0.214 NA
BRANCH   4   3
ATOM      1  C   UNL     1      28.141  24.728  12.507  0.00  0.00    +0.020 A 
ATOM      2  C   UNL     1      27.051  25.503  13.053  0.00  0.00    +0.013 A 
ATOM      3  C   UNL     1      26.851  25.596  14.494  0.00  0.00    +0.019 A 
ATOM     38  C   UNL     1      27.780  24.889  15.362  0.00  0.00    +0.120 A 
ATOM     39  N   UNL     1      28.821  24.149  14.807  0.00  0.00    -0.263 NA
ATOM     40  C   UNL     1      29.022  24.051  13.423  0.00  0.00    +0.111 A 
ENDBRANCH   4   3
ENDBRANCH  10   9
BRANCH  12  13
ATOM     13  N   UNL     1      19.688  31.549  13.594  0.00  0.00    -0.281 N 
ATOM     14  C   UNL     1      19.280  32.632  12.833  0.00  0.00    +0.248 C 
ATOM     30  O   UNL     1      19.807  33.734  12.861  0.00  0.00    -0.270 OA
ATOM     31  H   UNL     1      19.049  30.754  13.622  0.00  0.00    +0.155 HD
BRANCH  14  15
ATOM     15  C   UNL     1      18.107  32.472  11.920  0.00  0.00    +0.037 A 
ATOM     16  C   UNL     1      17.091  31.445  12.161  0.00  0.00    +0.013 A 
ATOM     17  C   UNL     1      15.979  31.301  11.255  0.00  0.00    +0.005 A 
ATOM     18  C   UNL     1      15.877  32.189  10.100  0.00  0.00    -0.033 A 
ATOM     28  C   UNL     1      16.897  33.203   9.887  0.00  0.00    +0.005 A 
ATOM     29  C   UNL     1      17.988  33.346  10.773  0.00  0.00    +0.013 A 
BRANCH  18  19
ATOM     19  C   UNL     1      14.736  32.093   9.069  0.00  0.00    +0.119 C 
BRANCH  19  20
ATOM     20  N   UNL     1      14.626  30.826   8.286  0.00  0.00    -0.302 NA
ATOM     21  C   UNL     1      13.583  29.874   8.878  0.00  0.00    +0.066 C 
ATOM     22  C   UNL     1      13.465  28.564   8.033  0.00  0.00    -0.064 C 
ATOM     23  N   UNL     1      14.834  27.886   7.955  0.00  0.00    +0.379 N 
ATOM     24  C   UNL     1      14.715  26.624   7.211  0.00  0.00    -0.096 C 
ATOM     25  H   UNL     1      15.148  27.637   8.995  0.00  0.00    -0.082 HD
ATOM     26  C   UNL     1      15.878  28.827   7.370  0.00  0.00    -0.064 C 
ATOM     27  C   UNL     1      15.966  30.138   8.200  0.00  0.00    +0.066 C 
ENDBRANCH  19  20
ENDBRANCH  18  19
ENDBRANCH  14  15
ENDBRANCH  12  13
TORSDOF 6
ENDMDL
MODEL 2
REMARK VINA RESULT:      -8.2      3.929     13.726
REMARK  Name = C:\Users\Docking\Desktop\test protocol\1iep_ligandH.pdb
REMARK  8 active torsions:
REMARK  status: ('A' for Active; 'I' for Inactive)
REMARK    1  A    between atoms: _5  and  _11
REMARK    2  A    between atoms: _19  and  _21
REMARK    3  A    between atoms: _22  and  _66
REMARK    4  A    between atoms: _27  and  _30
REMARK    5  A    between atoms: _32  and  _33
REMARK    6  A    between atoms: _38  and  _43
REMARK    7  A    between atoms: _43  and  _46
REMARK    8  A    between atoms: _53  and  _55
REMARK                            x       y       z     vdW  Elec       q    Type
REMARK                         _______ _______ _______ _____ _____    ______ ____
ROOT
ATOM     10  C   UNL     1      15.200  32.436   8.075  0.00  0.00    +0.038 A 
ATOM     11  C   UNL     1      16.117  32.519   9.153  0.00  0.00    +0.047 A 
ATOM     12  C   UNL     1      16.714  31.322   9.727  0.00  0.00    +0.035 A 
ATOM     32  C   UNL     1      16.355  30.058   9.177  0.00  0.00    +0.024 A 
ATOM     33  C   UNL     1      15.423  29.955   8.081  0.00  0.00    +0.007 A 
ATOM     34  C   UNL     1      14.829  31.131   7.513  0.00  0.00    -0.029 A 
ATOM     35  C   UNL     1      13.832  30.961   6.344  0.00  0.00    +0.045 C 
ENDROOT
BRANCH  10   9
ATOM      4  C   UNL     1      11.940  35.959   8.104  0.00  0.00    +0.077 A 
ATOM      5  C   UNL     1      11.242  35.384   9.218  0.00  0.00    +0.048 A 
ATOM      6  C   UNL     1      11.751  34.178   9.750  0.00  0.00    +0.116 A 
ATOM      7  N   UNL     1      12.874  33.598   9.201  0.00  0.00    -0.223 NA
ATOM      8  C   UNL     1      13.522  34.178   8.125  0.00  0.00    +0.220 A 
ATOM      9  N   UNL     1      14.657  33.616   7.562  0.00  0.00    -0.283 N 
ATOM     36  H   UNL     1      15.102  34.071   6.765  0.00  0.00    +0.155 HD
ATOM     37  N   UNL     1      13.055  35.329   7.599  0.00  0.00    -0.214 NA
BRANCH   4   3
ATOM      1  C   UNL     1      12.031  39.380   6.211  0.00  0.00    +0.020 A 
ATOM      2  C   UNL     1      12.482  38.164   6.847  0.00  0.00    +0.013 A 
ATOM      3  C   UNL     1      11.527  37.232   7.434  0.00  0.00    +0.019 A 
ATOM     38  C   UNL     1      10.112  37.563   7.360  0.00  0.00    +0.120 A 
ATOM     39  N   UNL     1       9.707  38.743   6.743  0.00  0.00    -0.263 NA
ATOM     40  C   UNL     1      10.617  39.648   6.175  0.00  0.00    +0.111 A 
ENDBRANCH   4   3
ENDBRANCH  10   9
BRANCH  12  13
ATOM     13  N   UNL     1      17.645  31.344  10.828  0.00  0.00    -0.281 N 
ATOM     14  C   UNL     1      17.361  31.401  12.183  0.00  0.00    +0.248 C 
ATOM     30  O   UNL     1      16.261  31.658  12.648  0.00  0.00    -0.270 OA
ATOM     31  H   UNL     1      18.633  31.314  10.578  0.00  0.00    +0.155 HD
BRANCH  14  15
ATOM     15  C   UNL     1      18.462  31.149  13.162  0.00  0.00    +0.037 A 
ATOM     16  C   UNL     1      18.330  30.133  14.209  0.00  0.00    +0.013 A 
ATOM     17  C   UNL     1      19.400  29.922  15.152  0.00  0.00    +0.005 A 
ATOM     18  C   UNL     1      20.613  30.730  15.050  0.00  0.00    -0.033 A 
ATOM     28  C   UNL     1      20.720  31.727  13.998  0.00  0.00    +0.005 A 
ATOM     29  C   UNL     1      19.673  31.937  13.073  0.00  0.00    +0.013 A 
BRANCH  18  19
ATOM     19  C   UNL     1      21.797  30.588  16.025  0.00  0.00    +0.119 C 
BRANCH  19  20
ATOM     20  N   UNL     1      22.465  29.254  16.100  0.00  0.00    -0.302 NA
ATOM     21  C   UNL     1      23.669  29.267  17.046  0.00  0.00    +0.066 C 
ATOM     22  C   UNL     1      24.342  27.859  17.130  0.00  0.00    -0.064 C 
ATOM     23  N   UNL     1      24.760  27.412  15.728  0.00  0.00    +0.379 N 
ATOM     24  C   UNL     1      25.446  26.114  15.811  0.00  0.00    -0.096 C 
ATOM     25  H   UNL     1      25.493  28.158  15.340  0.00  0.00    -0.082 HD
ATOM     26  C   UNL     1      23.569  27.399  14.780  0.00  0.00    -0.064 C 
ATOM     27  C   UNL     1      22.890  28.796  14.727  0.00  0.00    +0.066 C 
ENDBRANCH  19  20
ENDBRANCH  18  19
ENDBRANCH  14  15
ENDBRANCH  12  13
TORSDOF 6
ENDMDL
MODEL 3
REMARK VINA RESULT:      -8.2      3.876     14.035
REMARK  Name = C:\Users\Docking\Desktop\test protocol\1iep_ligandH.pdb
REMARK  8 active torsions:
REMARK  status: ('A' for Active; 'I' for Inactive)
REMARK    1  A    between atoms: _5  and  _11
REMARK    2  A    between atoms: _19  and  _21
REMARK    3  A    between atoms: _22  and  _66
REMARK    4  A    between atoms: _27  and  _30
REMARK    5  A    between atoms: _32  and  _33
REMARK    6  A    between atoms: _38  and  _43
REMARK    7  A    between atoms: _43  and  _46
REMARK    8  A    between atoms: _53  and  _55
REMARK                            x       y       z     vdW  Elec       q    Type
REMARK                         _______ _______ _______ _____ _____    ______ ____
ROOT
ATOM     10  C   UNL     1      14.196  31.856   9.297  0.00  0.00    +0.038 A 
ATOM     11  C   UNL     1      15.297  32.165  10.136  0.00  0.00    +0.047 A 
ATOM     12  C   UNL     1      16.491  31.335  10.147  0.00  0.00    +0.035 A 
ATOM     32  C   UNL     1      16.531  30.198   9.288  0.00  0.00    +0.024 A 
ATOM     33  C   UNL     1      15.420  29.868   8.430  0.00  0.00    +0.007 A 
ATOM     34  C   UNL     1      14.239  30.682   8.417  0.00  0.00    -0.029 A 
ATOM     35  C   UNL     1      13.076  30.277   7.481  0.00  0.00    +0.045 C 
ENDROOT
BRANCH  10   9
ATOM      4  C   UNL     1      11.584  35.502   7.588  0.00  0.00    +0.077 A 
ATOM      5  C   UNL     1      12.548  35.792   6.566  0.00  0.00    +0.048 A 
ATOM      6  C   UNL     1      13.706  34.983   6.519  0.00  0.00    +0.116 A 
ATOM      7  N   UNL     1      13.876  33.964   7.431  0.00  0.00    -0.223 NA
ATOM      8  C   UNL     1      12.927  33.713   8.405  0.00  0.00    +0.220 A 
ATOM      9  N   UNL     1      13.074  32.688   9.327  0.00  0.00    -0.283 N 
ATOM     36  H   UNL     1      12.355  32.540  10.035  0.00  0.00    +0.155 HD
ATOM     37  N   UNL     1      11.814  34.472   8.472  0.00  0.00    -0.214 NA
BRANCH   4   3
ATOM      1  C   UNL     1       7.892  36.451   8.467  0.00  0.00    +0.020 A 
ATOM      2  C   UNL     1       9.098  35.669   8.317  0.00  0.00    +0.013 A 
ATOM      3  C   UNL     1      10.308  36.266   7.765  0.00  0.00    +0.019 A 
ATOM     38  C   UNL     1      10.264  37.666   7.373  0.00  0.00    +0.120 A 
ATOM     39  N   UNL     1       9.088  38.393   7.528  0.00  0.00    -0.263 NA
ATOM     40  C   UNL     1       7.917  37.830   8.056  0.00  0.00    +0.111 A 
ENDBRANCH   4   3
ENDBRANCH  10   9
BRANCH  12  13
ATOM     13  N   UNL     1      17.637  31.595  10.983  0.00  0.00    -0.281 N 
ATOM     14  C   UNL     1      18.282  32.803  11.192  0.00  0.00    +0.248 C 
ATOM     30  O   UNL     1      18.102  33.808  10.520  0.00  0.00    -0.270 OA
ATOM     31  H   UNL     1      18.018  30.791  11.482  0.00  0.00    +0.155 HD
BRANCH  14  15
ATOM     15  C   UNL     1      19.284  32.905  12.296  0.00  0.00    +0.037 A 
ATOM     16  C   UNL     1      19.874  34.192  12.670  0.00  0.00    +0.013 A 
ATOM     17  C   UNL     1      20.851  34.260  13.729  0.00  0.00    +0.005 A 
ATOM     18  C   UNL     1      21.242  33.035  14.422  0.00  0.00    -0.033 A 
ATOM     28  C   UNL     1      20.636  31.772  14.034  0.00  0.00    +0.005 A 
ATOM     29  C   UNL     1      19.680  31.701  12.997  0.00  0.00    +0.013 A 
BRANCH  18  19
ATOM     19  C   UNL     1      22.291  33.010  15.548  0.00  0.00    +0.119 C 
BRANCH  19  20
ATOM     20  N   UNL     1      22.785  31.673  15.994  0.00  0.00    -0.302 NA
ATOM     21  C   UNL     1      22.371  31.360  17.435  0.00  0.00    +0.066 C 
ATOM     22  C   UNL     1      22.876  29.948  17.878  0.00  0.00    -0.064 C 
ATOM     23  N   UNL     1      24.397  29.881  17.724  0.00  0.00    +0.379 N 
ATOM     24  C   UNL     1      24.881  28.575  18.194  0.00  0.00    -0.096 C 
ATOM     25  H   UNL     1      24.838  30.664  18.384  0.00  0.00    -0.082 HD
ATOM     26  C   UNL     1      24.816  30.194  16.295  0.00  0.00    -0.064 C 
ATOM     27  C   UNL     1      24.285  31.587  15.855  0.00  0.00    +0.066 C 
ENDBRANCH  19  20
ENDBRANCH  18  19
ENDBRANCH  14  15
ENDBRANCH  12  13
TORSDOF 6
ENDMDL
MODEL 4
REMARK VINA RESULT:      -8.0      4.146     14.069
REMARK  Name = C:\Users\Docking\Desktop\test protocol\1iep_ligandH.pdb
REMARK  8 active torsions:
REMARK  status: ('A' for Active; 'I' for Inactive)
REMARK    1  A    between atoms: _5  and  _11
REMARK    2  A    between atoms: _19  and  _21
REMARK    3  A    between atoms: _22  and  _66
REMARK    4  A    between atoms: _27  and  _30
REMARK    5  A    between atoms: _32  and  _33
REMARK    6  A    between atoms: _38  and  _43
REMARK    7  A    between atoms: _43  and  _46
REMARK    8  A    between atoms: _53  and  _55
REMARK                            x       y       z     vdW  Elec       q    Type
REMARK                         _______ _______ _______ _____ _____    ______ ____
ROOT
ATOM     10  C   UNL     1      15.152  32.657   7.802  0.00  0.00    +0.038 A 
ATOM     11  C   UNL     1      16.031  32.627   8.915  0.00  0.00    +0.047 A 
ATOM     12  C   UNL     1      16.564  31.371   9.419  0.00  0.00    +0.035 A 
ATOM     32  C   UNL     1      16.184  30.164   8.764  0.00  0.00    +0.024 A 
ATOM     33  C   UNL     1      15.291  30.175   7.632  0.00  0.00    +0.007 A 
ATOM     34  C   UNL     1      14.760  31.411   7.132  0.00  0.00    -0.029 A 
ATOM     35  C   UNL     1      13.801  31.363   5.919  0.00  0.00    +0.045 C 
ENDROOT
BRANCH  10   9
ATOM      4  C   UNL     1      11.804  36.093   7.673  0.00  0.00    +0.077 A 
ATOM      5  C   UNL     1      10.930  35.357   8.539  0.00  0.00    +0.048 A 
ATOM      6  C   UNL     1      11.376  34.094   8.990  0.00  0.00    +0.116 A 
ATOM      7  N   UNL     1      12.607  33.614   8.598  0.00  0.00    -0.223 NA
ATOM      8  C   UNL     1      13.425  34.350   7.760  0.00  0.00    +0.220 A 
ATOM      9  N   UNL     1      14.670  33.890   7.359  0.00  0.00    -0.283 N 
ATOM     36  H   UNL     1      15.241  34.460   6.734  0.00  0.00    +0.155 HD
ATOM     37  N   UNL     1      13.021  35.558   7.315  0.00  0.00    -0.214 NA
BRANCH   4   3
ATOM      1  C   UNL     1       9.846  39.245   6.433  0.00  0.00    +0.020 A 
ATOM      2  C   UNL     1      10.110  37.932   6.977  0.00  0.00    +0.013 A 
ATOM      3  C   UNL     1      11.476  37.444   7.116  0.00  0.00    +0.019 A 
ATOM     38  C   UNL     1      12.562  38.315   6.693  0.00  0.00    +0.120 A 
ATOM     39  N   UNL     1      12.278  39.574   6.171  0.00  0.00    -0.263 NA
ATOM     40  C   UNL     1      10.967  40.054   6.031  0.00  0.00    +0.111 A 
ENDBRANCH   4   3
ENDBRANCH  10   9
BRANCH  12  13
ATOM     13  N   UNL     1      17.453  31.278  10.551  0.00  0.00    -0.281 N 
ATOM     14  C   UNL     1      17.169  31.538  11.881  0.00  0.00    +0.248 C 
ATOM     30  O   UNL     1      16.157  32.099  12.275  0.00  0.00    -0.270 OA
ATOM     31  H   UNL     1      18.409  30.986  10.345  0.00  0.00    +0.155 HD
BRANCH  14  15
ATOM     15  C   UNL     1      18.158  31.129  12.924  0.00  0.00    +0.037 A 
ATOM     16  C   UNL     1      19.505  31.704  12.962  0.00  0.00    +0.013 A 
ATOM     17  C   UNL     1      20.445  31.278  13.968  0.00  0.00    +0.005 A 
ATOM     18  C   UNL     1      20.040  30.273  14.948  0.00  0.00    -0.033 A 
ATOM     28  C   UNL     1      18.695  29.723  14.891  0.00  0.00    +0.005 A 
ATOM     29  C   UNL     1      17.772  30.137  13.905  0.00  0.00    +0.013 A 
BRANCH  18  19
ATOM     19  C   UNL     1      20.984  29.745  16.044  0.00  0.00    +0.119 C 
BRANCH  19  20
ATOM     20  N   UNL     1      22.384  30.264  16.049  0.00  0.00    -0.302 NA
ATOM     21  C   UNL     1      23.414  29.138  16.183  0.00  0.00    +0.066 C 
ATOM     22  C   UNL     1      24.874  29.697  16.164  0.00  0.00    -0.064 C 
ATOM     23  N   UNL     1      25.040  30.721  17.288  0.00  0.00    +0.379 N 
ATOM     24  C   UNL     1      26.428  31.205  17.309  0.00  0.00    -0.096 C 
ATOM     25  H   UNL     1      24.850  30.196  18.253  0.00  0.00    -0.082 HD
ATOM     26  C   UNL     1      24.019  31.842  17.163  0.00  0.00    -0.064 C 
ATOM     27  C   UNL     1      22.572  31.274  17.154  0.00  0.00    +0.066 C 
ENDBRANCH  19  20
ENDBRANCH  18  19
ENDBRANCH  14  15
ENDBRANCH  12  13
TORSDOF 6
ENDMDL
MODEL 5
REMARK VINA RESULT:      -8.0      2.599     11.942
REMARK  Name = C:\Users\Docking\Desktop\test protocol\1iep_ligandH.pdb
REMARK  8 active torsions:
REMARK  status: ('A' for Active; 'I' for Inactive)
REMARK    1  A    between atoms: _5  and  _11
REMARK    2  A    between atoms: _19  and  _21
REMARK    3  A    between atoms: _22  and  _66
REMARK    4  A    between atoms: _27  and  _30
REMARK    5  A    between atoms: _32  and  _33
REMARK    6  A    between atoms: _38  and  _43
REMARK    7  A    between atoms: _43  and  _46
REMARK    8  A    between atoms: _53  and  _55
REMARK                            x       y       z     vdW  Elec       q    Type
REMARK                         _______ _______ _______ _____ _____    ______ ____
ROOT
ATOM     10  C   UNL     1      14.355  30.881   8.629  0.00  0.00    +0.038 A 
ATOM     11  C   UNL     1      15.419  31.042   9.552  0.00  0.00    +0.047 A 
ATOM     12  C   UNL     1      16.392  32.112   9.400  0.00  0.00    +0.035 A 
ATOM     32  C   UNL     1      16.250  33.002   8.296  0.00  0.00    +0.024 A 
ATOM     33  C   UNL     1      15.175  32.852   7.347  0.00  0.00    +0.007 A 
ATOM     34  C   UNL     1      14.213  31.797   7.491  0.00  0.00    -0.029 A 
ATOM     35  C   UNL     1      13.085  31.680   6.440  0.00  0.00    +0.045 C 
ENDROOT
BRANCH  10   9
ATOM      4  C   UNL     1      12.931  26.340   8.000  0.00  0.00    +0.077 A 
ATOM      5  C   UNL     1      14.076  26.031   7.192  0.00  0.00    +0.048 A 
ATOM      6  C   UNL     1      15.003  27.070   6.956  0.00  0.00    +0.116 A 
ATOM      7  N   UNL     1      14.792  28.321   7.494  0.00  0.00    -0.223 NA
ATOM      8  C   UNL     1      13.677  28.587   8.267  0.00  0.00    +0.220 A 
ATOM      9  N   UNL     1      13.449  29.836   8.823  0.00  0.00    -0.283 N 
ATOM     36  H   UNL     1      12.610  29.993   9.382  0.00  0.00    +0.155 HD
ATOM     37  N   UNL     1      12.775  27.612   8.505  0.00  0.00    -0.214 NA
BRANCH   4   3
ATOM      1  C   UNL     1      10.137  23.617   7.716  0.00  0.00    +0.020 A 
ATOM      2  C   UNL     1      11.160  24.563   7.333  0.00  0.00    +0.013 A 
ATOM      3  C   UNL     1      11.863  25.348   8.340  0.00  0.00    +0.019 A 
ATOM     38  C   UNL     1      11.506  25.148   9.737  0.00  0.00    +0.120 A 
ATOM     39  N   UNL     1      10.516  24.231  10.075  0.00  0.00    -0.263 NA
ATOM     40  C   UNL     1       9.831  23.472   9.115  0.00  0.00    +0.111 A 
ENDBRANCH   4   3
ENDBRANCH  10   9
BRANCH  12  13
ATOM     13  N   UNL     1      17.498  32.320  10.301  0.00  0.00    -0.281 N 
ATOM     14  C   UNL     1      17.532  33.108  11.440  0.00  0.00    +0.248 C 
ATOM     30  O   UNL     1      16.676  33.926  11.740  0.00  0.00    -0.270 OA
ATOM     31  H   UNL     1      18.361  31.826  10.072  0.00  0.00    +0.155 HD
BRANCH  14  15
ATOM     15  C   UNL     1      18.692  32.978  12.373  0.00  0.00    +0.037 A 
ATOM     16  C   UNL     1      19.344  34.160  12.944  0.00  0.00    +0.013 A 
ATOM     17  C   UNL     1      20.472  34.007  13.828  0.00  0.00    +0.005 A 
ATOM     18  C   UNL     1      20.954  32.666  14.149  0.00  0.00    -0.033 A 
ATOM     28  C   UNL     1      20.285  31.511  13.573  0.00  0.00    +0.005 A 
ATOM     29  C   UNL     1      19.180  31.657  12.705  0.00  0.00    +0.013 A 
BRANCH  18  19
ATOM     19  C   UNL     1      22.164  32.409  15.067  0.00  0.00    +0.119 C 
BRANCH  19  20
ATOM     20  N   UNL     1      22.541  30.986  15.320  0.00  0.00    -0.302 NA
ATOM     21  C   UNL     1      22.743  30.702  16.811  0.00  0.00    +0.066 C 
ATOM     22  C   UNL     1      23.114  29.204  17.060  0.00  0.00    -0.064 C 
ATOM     23  N   UNL     1      24.375  28.855  16.267  0.00  0.00    +0.379 N 
ATOM     24  C   UNL     1      24.760  27.464  16.544  0.00  0.00    -0.096 C 
ATOM     25  H   UNL     1      25.197  29.513  16.633  0.00  0.00    -0.082 HD
ATOM     26  C   UNL     1      24.184  29.138  14.783  0.00  0.00    -0.064 C 
ATOM     27  C   UNL     1      23.786  30.622  14.549  0.00  0.00    +0.066 C 
ENDBRANCH  19  20
ENDBRANCH  18  19
ENDBRANCH  14  15
ENDBRANCH  12  13
TORSDOF 6
ENDMDL
