MODEL 1
REMARK VINA RESULT:      -9.2      0.000      0.000
REMARK  Name = C:\Users\Docking\Desktop\test protocol\1iep_ligandH.pdb
REMARK  8 active torsions:
REMARK  status: ('A' for Active; 'I' for Inactive)
REMARK    1  A    between atoms: _5  and  _11
REMARK    2  A    between atoms: _19  and  _21
REMARK    3  A    between atoms: _22  and  _66
REMARK    4  A    between atoms: _27  and  _30
REMARK    5  A    between atoms: _32  and  _33
REMARK    6  A    between atoms: _38  and  _43
REMARK    7  A    between atoms: _43  and  _46
REMARK    8  A    between atoms: _53  and  _55
REMARK                            x       y       z     vdW  Elec       q    Type
REMARK                         _______ _______ _______ _____ _____    ______ ____
ROOT
ATOM     10  C   UNL     1       3.944   6.380  29.317  0.00  0.00    +0.038 A 
ATOM     11  C   UNL     1       2.537   6.208  29.294  0.00  0.00    +0.047 A 
ATOM     12  C   UNL     1       1.679   6.892  30.249  0.00  0.00    +0.035 A 
ATOM     32  C   UNL     1       2.289   7.748  31.212  0.00  0.00    +0.024 A 
ATOM     33  C   UNL     1       3.718   7.934  31.250  0.00  0.00    +0.007 A 
ATOM     34  C   UNL     1       4.569   7.260  30.313  0.00  0.00    -0.029 A 
ATOM     35  C   UNL     1       6.096   7.491  30.404  0.00  0.00    +0.045 C 
ENDROOT
BRANCH  10   9
ATOM      4  C   UNL     1       4.468   4.040  25.159  0.00  0.00    +0.077 A 
ATOM      5  C   UNL     1       3.073   4.163  24.847  0.00  0.00    +0.048 A 
ATOM      6  C   UNL     1       2.254   4.829  25.785  0.00  0.00    +0.116 A 
ATOM      7  N   UNL     1       2.799   5.331  26.947  0.00  0.00    -0.223 NA
ATOM      8  C   UNL     1       4.148   5.194  27.219  0.00  0.00    +0.220 A 
ATOM      9  N   UNL     1       4.720   5.698  28.377  0.00  0.00    -0.283 N 
ATOM     36  H   UNL     1       5.718   5.570  28.544  0.00  0.00    +0.155 HD
ATOM     37  N   UNL     1       4.952   4.561  26.339  0.00  0.00    -0.214 NA
BRANCH   4   3
ATOM      1  C   UNL     1       7.811   2.960  23.439  0.00  0.00    +0.020 A 
ATOM      2  C   UNL     1       6.893   3.639  24.324  0.00  0.00    +0.013 A 
ATOM      3  C   UNL     1       5.462   3.366  24.266  0.00  0.00    +0.019 A 
ATOM     38  C   UNL     1       4.990   2.391  23.295  0.00  0.00    +0.120 A 
ATOM     39  N   UNL     1       5.897   1.753  22.454  0.00  0.00    -0.263 NA
ATOM     40  C   UNL     1       7.276   2.010  22.499  0.00  0.00    +0.111 A 
ENDBRANCH   4   3
ENDBRANCH  10   9
BRANCH  12  13
ATOM     13  N   UNL     1       0.245   6.750  30.280  0.00  0.00    -0.281 N 
ATOM     14  C   UNL     1      -0.707   7.599  29.741  0.00  0.00    +0.248 C 
ATOM     30  O   UNL     1      -0.475   8.728  29.333  0.00  0.00    -0.270 OA
ATOM     31  H   UNL     1      -0.112   5.922  30.757  0.00  0.00    +0.155 HD
BRANCH  14  15
ATOM     15  C   UNL     1      -2.125   7.134  29.655  0.00  0.00    +0.037 A 
ATOM     16  C   UNL     1      -3.240   8.036  29.954  0.00  0.00    +0.013 A 
ATOM     17  C   UNL     1      -4.598   7.556  29.880  0.00  0.00    +0.005 A 
ATOM     18  C   UNL     1      -4.847   6.167  29.504  0.00  0.00    -0.033 A 
ATOM     28  C   UNL     1      -3.722   5.295  29.208  0.00  0.00    +0.005 A 
ATOM     29  C   UNL     1      -2.390   5.761  29.280  0.00  0.00    +0.013 A 
BRANCH  18  19
ATOM     19  C   UNL     1      -6.262   5.564  29.421  0.00  0.00    +0.119 C 
BRANCH  19  20
ATOM     20  N   UNL     1      -6.583   4.441  30.352  0.00  0.00    -0.302 NA
ATOM     21  C   UNL     1      -6.631   3.092  29.631  0.00  0.00    +0.066 C 
ATOM     22  C   UNL     1      -6.945   1.926  30.624  0.00  0.00    -0.064 C 
ATOM     23  N   UNL     1      -8.271   2.208  31.333  0.00  0.00    +0.379 N 
ATOM     24  C   UNL     1      -8.598   1.086  32.225  0.00  0.00    -0.096 C 
ATOM     25  H   UNL     1      -9.066   2.264  30.554  0.00  0.00    -0.082 HD
ATOM     26  C   UNL     1      -8.233   3.550  32.051  0.00  0.00    -0.064 C 
ATOM     27  C   UNL     1      -7.891   4.697  31.061  0.00  0.00    +0.066 C 
ENDBRANCH  19  20
ENDBRANCH  18  19
ENDBRANCH  14  15
ENDBRANCH  12  13
TORSDOF 6
ENDMDL
MODEL 2
REMARK VINA RESULT:      -9.0      8.708     15.773
REMARK  Name = C:\Users\Docking\Desktop\test protocol\1iep_ligandH.pdb
REMARK  8 active torsions:
REMARK  status: ('A' for Active; 'I' for Inactive)
REMARK    1  A    between atoms: _5  and  _11
REMARK    2  A    between atoms: _19  and  _21
REMARK    3  A    between atoms: _22  and  _66
REMARK    4  A    between atoms: _27  and  _30
REMARK    5  A    between atoms: _32  and  _33
REMARK    6  A    between atoms: _38  and  _43
REMARK    7  A    between atoms: _43  and  _46
REMARK    8  A    between atoms: _53  and  _55
REMARK                            x       y       z     vdW  Elec       q    Type
REMARK                         _______ _______ _______ _____ _____    ______ ____
ROOT
ATOM     10  C   UNL     1       5.335  -0.835  22.021  0.00  0.00    +0.038 A 
ATOM     11  C   UNL     1       4.834  -0.946  20.699  0.00  0.00    +0.047 A 
ATOM     12  C   UNL     1       5.449  -1.843  19.734  0.00  0.00    +0.035 A 
ATOM     32  C   UNL     1       6.572  -2.615  20.150  0.00  0.00    +0.024 A 
ATOM     33  C   UNL     1       7.096  -2.514  21.489  0.00  0.00    +0.007 A 
ATOM     34  C   UNL     1       6.495  -1.629  22.445  0.00  0.00    -0.029 A 
ATOM     35  C   UNL     1       7.102  -1.556  23.866  0.00  0.00    +0.045 C 
ENDROOT
BRANCH  10   9
ATOM      4  C   UNL     1       5.121   3.302  24.445  0.00  0.00    +0.077 A 
ATOM      5  C   UNL     1       6.383   3.742  23.923  0.00  0.00    +0.048 A 
ATOM      6  C   UNL     1       7.059   2.870  23.040  0.00  0.00    +0.116 A 
ATOM      7  N   UNL     1       6.504   1.653  22.709  0.00  0.00    -0.223 NA
ATOM      8  C   UNL     1       5.286   1.259  23.232  0.00  0.00    +0.220 A 
ATOM      9  N   UNL     1       4.705   0.042  22.907  0.00  0.00    -0.283 N 
ATOM     36  H   UNL     1       3.809  -0.215  23.319  0.00  0.00    +0.155 HD
ATOM     37  N   UNL     1       4.621   2.072  24.079  0.00  0.00    -0.214 NA
BRANCH   4   3
ATOM      1  C   UNL     1       2.106   5.159  26.108  0.00  0.00    +0.020 A 
ATOM      2  C   UNL     1       2.868   4.371  25.166  0.00  0.00    +0.013 A 
ATOM      3  C   UNL     1       4.285   4.112  25.387  0.00  0.00    +0.019 A 
ATOM     38  C   UNL     1       4.906   4.669  26.579  0.00  0.00    +0.120 A 
ATOM     39  N   UNL     1       4.148   5.425  27.467  0.00  0.00    -0.263 NA
ATOM     40  C   UNL     1       2.783   5.682  27.265  0.00  0.00    +0.111 A 
ENDBRANCH   4   3
ENDBRANCH  10   9
BRANCH  12  13
ATOM     13  N   UNL     1       4.989  -1.992  18.375  0.00  0.00    -0.281 N 
ATOM     14  C   UNL     1       4.388  -3.098  17.796  0.00  0.00    +0.248 C 
ATOM     30  O   UNL     1       4.349  -4.209  18.304  0.00  0.00    -0.270 OA
ATOM     31  H   UNL     1       5.121  -1.184  17.767  0.00  0.00    +0.155 HD
BRANCH  14  15
ATOM     15  C   UNL     1       3.751  -2.952  16.451  0.00  0.00    +0.037 A 
ATOM     16  C   UNL     1       2.591  -3.761  16.068  0.00  0.00    +0.013 A 
ATOM     17  C   UNL     1       2.007  -3.612  14.759  0.00  0.00    +0.005 A 
ATOM     18  C   UNL     1       2.582  -2.649  13.823  0.00  0.00    -0.033 A 
ATOM     28  C   UNL     1       3.730  -1.856  14.231  0.00  0.00    +0.005 A 
ATOM     29  C   UNL     1       4.306  -1.999  15.513  0.00  0.00    +0.013 A 
BRANCH  18  19
ATOM     19  C   UNL     1       2.036  -2.440  12.398  0.00  0.00    +0.119 C 
BRANCH  19  20
ATOM     20  N   UNL     1       2.190  -3.570  11.434  0.00  0.00    -0.302 NA
ATOM     21  C   UNL     1       3.627  -4.098  11.392  0.00  0.00    +0.066 C 
ATOM     22  C   UNL     1       3.765  -5.294  10.395  0.00  0.00    -0.064 C 
ATOM     23  N   UNL     1       3.310  -4.850   9.004  0.00  0.00    +0.379 N 
ATOM     24  C   UNL     1       3.493  -5.955   8.052  0.00  0.00    -0.096 C 
ATOM     25  H   UNL     1       3.974  -4.014   8.683  0.00  0.00    -0.082 HD
ATOM     26  C   UNL     1       1.884  -4.321   9.037  0.00  0.00    -0.064 C 
ATOM     27  C   UNL     1       1.751  -3.152  10.052  0.00  0.00    +0.066 C 
ENDBRANCH  19  20
ENDBRANCH  18  19
ENDBRANCH  14  15
ENDBRANCH  12  13
TORSDOF 6
ENDMDL
MODEL 3
REMARK VINA RESULT:      -8.8     18.750     22.028
REMARK  Name = C:\Users\Docking\Desktop\test protocol\1iep_ligandH.pdb
REMARK  8 active torsions:
REMARK  status: ('A' for Active; 'I' for Inactive)
REMARK    1  A    between atoms: _5  and  _11
REMARK    2  A    between atoms: _19  and  _21
REMARK    3  A    between atoms: _22  and  _66
REMARK    4  A    between atoms: _27  and  _30
REMARK    5  A    between atoms: _32  and  _33
REMARK    6  A    between atoms: _38  and  _43
REMARK    7  A    between atoms: _43  and  _46
REMARK    8  A    between atoms: _53  and  _55
REMARK                            x       y       z     vdW  Elec       q    Type
REMARK                         _______ _______ _______ _____ _____    ______ ____
ROOT
ATOM     10  C   UNL     1       1.901  -3.595  11.285  0.00  0.00    +0.038 A 
ATOM     11  C   UNL     1       1.448  -2.419  10.634  0.00  0.00    +0.047 A 
ATOM     12  C   UNL     1       1.972  -1.110  10.993  0.00  0.00    +0.035 A 
ATOM     32  C   UNL     1       2.960  -1.036  12.018  0.00  0.00    +0.024 A 
ATOM     33  C   UNL     1       3.431  -2.221  12.691  0.00  0.00    +0.007 A 
ATOM     34  C   UNL     1       2.916  -3.514  12.343  0.00  0.00    -0.029 A 
ATOM     35  C   UNL     1       3.453  -4.750  13.101  0.00  0.00    +0.045 C 
ENDROOT
BRANCH  10   9
ATOM      4  C   UNL     1       1.889  -7.538   8.549  0.00  0.00    +0.077 A 
ATOM      5  C   UNL     1       3.034  -7.098   7.805  0.00  0.00    +0.048 A 
ATOM      6  C   UNL     1       3.592  -5.847   8.154  0.00  0.00    +0.116 A 
ATOM      7  N   UNL     1       3.038  -5.102   9.172  0.00  0.00    -0.223 NA
ATOM      8  C   UNL     1       1.932  -5.555   9.867  0.00  0.00    +0.220 A 
ATOM      9  N   UNL     1       1.364  -4.825  10.900  0.00  0.00    -0.283 N 
ATOM     36  H   UNL     1       0.544  -5.190  11.384  0.00  0.00    +0.155 HD
ATOM     37  N   UNL     1       1.380  -6.745   9.553  0.00  0.00    -0.214 NA
BRANCH   4   3
ATOM      1  C   UNL     1      -0.544 -10.260   7.143  0.00  0.00    +0.020 A 
ATOM      2  C   UNL     1       0.098  -8.981   7.345  0.00  0.00    +0.013 A 
ATOM      3  C   UNL     1       1.189  -8.838   8.301  0.00  0.00    +0.019 A 
ATOM     38  C   UNL     1       1.609 -10.018   9.043  0.00  0.00    +0.120 A 
ATOM     39  N   UNL     1       0.971 -11.235   8.829  0.00  0.00    -0.263 NA
ATOM     40  C   UNL     1      -0.081 -11.385   7.912  0.00  0.00    +0.111 A 
ENDBRANCH   4   3
ENDBRANCH  10   9
BRANCH  12  13
ATOM     13  N   UNL     1       1.544   0.119  10.373  0.00  0.00    -0.281 N 
ATOM     14  C   UNL     1       0.905   1.195  10.967  0.00  0.00    +0.248 C 
ATOM     30  O   UNL     1       0.410   1.174  12.085  0.00  0.00    -0.270 OA
ATOM     31  H   UNL     1       1.736   0.207   9.375  0.00  0.00    +0.155 HD
BRANCH  14  15
ATOM     15  C   UNL     1       0.785   2.475  10.205  0.00  0.00    +0.037 A 
ATOM     16  C   UNL     1       1.972   3.195   9.737  0.00  0.00    +0.013 A 
ATOM     17  C   UNL     1       1.829   4.436   9.018  0.00  0.00    +0.005 A 
ATOM     18  C   UNL     1       0.492   4.965   8.761  0.00  0.00    -0.033 A 
ATOM     28  C   UNL     1      -0.669   4.227   9.232  0.00  0.00    +0.005 A 
ATOM     29  C   UNL     1      -0.533   3.011   9.938  0.00  0.00    +0.013 A 
BRANCH  18  19
ATOM     19  C   UNL     1       0.245   6.292   8.021  0.00  0.00    +0.119 C 
BRANCH  19  20
ATOM     20  N   UNL     1      -0.857   6.319   7.014  0.00  0.00    -0.302 NA
ATOM     21  C   UNL     1      -0.503   5.525   5.753  0.00  0.00    +0.066 C 
ATOM     22  C   UNL     1      -1.677   5.545   4.720  0.00  0.00    -0.064 C 
ATOM     23  N   UNL     1      -2.019   6.994   4.369  0.00  0.00    +0.379 N 
ATOM     24  C   UNL     1      -3.083   7.015   3.355  0.00  0.00    -0.096 C 
ATOM     25  H   UNL     1      -1.111   7.456   3.917  0.00  0.00    -0.082 HD
ATOM     26  C   UNL     1      -2.370   7.791   5.618  0.00  0.00    -0.064 C 
ATOM     27  C   UNL     1      -1.209   7.741   6.650  0.00  0.00    +0.066 C 
ENDBRANCH  19  20
ENDBRANCH  18  19
ENDBRANCH  14  15
ENDBRANCH  12  13
TORSDOF 6
ENDMDL
MODEL 4
REMARK VINA RESULT:      -8.7     18.702     22.315
REMARK  Name = C:\Users\Docking\Desktop\test protocol\1iep_ligandH.pdb
REMARK  8 active torsions:
REMARK  status: ('A' for Active; 'I' for Inactive)
REMARK    1  A    between atoms: _5  and  _11
REMARK    2  A    between atoms: _19  and  _21
REMARK    3  A    between atoms: _22  and  _66
REMARK    4  A    between atoms: _27  and  _30
REMARK    5  A    between atoms: _32  and  _33
REMARK    6  A    between atoms: _38  and  _43
REMARK    7  A    between atoms: _43  and  _46
REMARK    8  A    between atoms: _53  and  _55
REMARK                            x       y       z     vdW  Elec       q    Type
REMARK                         _______ _______ _______ _____ _____    ______ ____
ROOT
ATOM     10  C   UNL     1       1.799  -3.526  11.289  0.00  0.00    +0.038 A 
ATOM     11  C   UNL     1       1.319  -2.363  10.633  0.00  0.00    +0.047 A 
ATOM     12  C   UNL     1       1.808  -1.041  10.992  0.00  0.00    +0.035 A 
ATOM     32  C   UNL     1       2.788  -0.940  12.022  0.00  0.00    +0.024 A 
ATOM     33  C   UNL     1       3.287  -2.111  12.699  0.00  0.00    +0.007 A 
ATOM     34  C   UNL     1       2.806  -3.417  12.351  0.00  0.00    -0.029 A 
ATOM     35  C   UNL     1       3.371  -4.637  13.115  0.00  0.00    +0.045 C 
ENDROOT
BRANCH  10   9
ATOM      4  C   UNL     1       1.928  -7.495   8.593  0.00  0.00    +0.077 A 
ATOM      5  C   UNL     1       3.081  -7.039   7.872  0.00  0.00    +0.048 A 
ATOM      6  C   UNL     1       3.606  -5.774   8.220  0.00  0.00    +0.116 A 
ATOM      7  N   UNL     1       3.014  -5.030   9.217  0.00  0.00    -0.223 NA
ATOM      8  C   UNL     1       1.902  -5.498   9.892  0.00  0.00    +0.220 A 
ATOM      9  N   UNL     1       1.295  -4.770  10.904  0.00  0.00    -0.283 N 
ATOM     36  H   UNL     1       0.472  -5.147  11.373  0.00  0.00    +0.155 HD
ATOM     37  N   UNL     1       1.381  -6.702   9.577  0.00  0.00    -0.214 NA
BRANCH   4   3
ATOM      1  C   UNL     1      -0.415 -10.279   7.157  0.00  0.00    +0.020 A 
ATOM      2  C   UNL     1       0.197  -8.986   7.361  0.00  0.00    +0.013 A 
ATOM      3  C   UNL     1       1.260  -8.811   8.343  0.00  0.00    +0.019 A 
ATOM     38  C   UNL     1       1.684  -9.974   9.107  0.00  0.00    +0.120 A 
ATOM     39  N   UNL     1       1.075 -11.206   8.891  0.00  0.00    -0.263 NA
ATOM     40  C   UNL     1       0.050 -11.386   7.950  0.00  0.00    +0.111 A 
ENDBRANCH   4   3
ENDBRANCH  10   9
BRANCH  12  13
ATOM     13  N   UNL     1       1.352   0.176  10.367  0.00  0.00    -0.281 N 
ATOM     14  C   UNL     1       0.822   1.300  10.978  0.00  0.00    +0.248 C 
ATOM     30  O   UNL     1       0.460   1.347  12.144  0.00  0.00    -0.270 OA
ATOM     31  H   UNL     1       1.429   0.212   9.350  0.00  0.00    +0.155 HD
BRANCH  14  15
ATOM     15  C   UNL     1       0.657   2.549  10.174  0.00  0.00    +0.037 A 
ATOM     16  C   UNL     1      -0.670   3.031   9.782  0.00  0.00    +0.013 A 
ATOM     17  C   UNL     1      -0.800   4.229   8.992  0.00  0.00    +0.005 A 
ATOM     18  C   UNL     1       0.402   4.955   8.589  0.00  0.00    -0.033 A 
ATOM     28  C   UNL     1       1.705   4.458   8.995  0.00  0.00    +0.005 A 
ATOM     29  C   UNL     1       1.837   3.283   9.769  0.00  0.00    +0.013 A 
BRANCH  18  19
ATOM     19  C   UNL     1       0.358   6.231   7.727  0.00  0.00    +0.119 C 
BRANCH  19  20
ATOM     20  N   UNL     1       0.703   6.092   6.281  0.00  0.00    -0.302 NA
ATOM     21  C   UNL     1      -0.179   6.973   5.392  0.00  0.00    +0.066 C 
ATOM     22  C   UNL     1       0.210   6.832   3.885  0.00  0.00    -0.064 C 
ATOM     23  N   UNL     1       0.104   5.363   3.469  0.00  0.00    +0.379 N 
ATOM     24  C   UNL     1       0.414   5.236   2.037  0.00  0.00    -0.096 C 
ATOM     25  H   UNL     1      -0.955   5.046   3.616  0.00  0.00    -0.082 HD
ATOM     26  C   UNL     1       0.977   4.480   4.349  0.00  0.00    -0.064 C 
ATOM     27  C   UNL     1       0.601   4.650   5.848  0.00  0.00    +0.066 C 
ENDBRANCH  19  20
ENDBRANCH  18  19
ENDBRANCH  14  15
ENDBRANCH  12  13
TORSDOF 6
ENDMDL
MODEL 5
REMARK VINA RESULT:      -8.5      7.827     15.091
REMARK  Name = C:\Users\Docking\Desktop\test protocol\1iep_ligandH.pdb
REMARK  8 active torsions:
REMARK  status: ('A' for Active; 'I' for Inactive)
REMARK    1  A    between atoms: _5  and  _11
REMARK    2  A    between atoms: _19  and  _21
REMARK    3  A    between atoms: _22  and  _66
REMARK    4  A    between atoms: _27  and  _30
REMARK    5  A    between atoms: _32  and  _33
REMARK    6  A    between atoms: _38  and  _43
REMARK    7  A    between atoms: _43  and  _46
REMARK    8  A    between atoms: _53  and  _55
REMARK                            x       y       z     vdW  Elec       q    Type
REMARK                         _______ _______ _______ _____ _____    ______ ____
ROOT
ATOM     10  C   UNL     1       5.551  -0.411  21.895  0.00  0.00    +0.038 A 
ATOM     11  C   UNL     1       5.350  -0.201  20.507  0.00  0.00    +0.047 A 
ATOM     12  C   UNL     1       6.052  -1.001  19.516  0.00  0.00    +0.035 A 
ATOM     32  C   UNL     1       6.950  -2.009  19.973  0.00  0.00    +0.024 A 
ATOM     33  C   UNL     1       7.167  -2.236  21.381  0.00  0.00    +0.007 A 
ATOM     34  C   UNL     1       6.479  -1.448  22.363  0.00  0.00    -0.029 A 
ATOM     35  C   UNL     1       6.756  -1.730  23.858  0.00  0.00    +0.045 C 
ENDROOT
BRANCH  10   9
ATOM      4  C   UNL     1       5.146   3.478  24.678  0.00  0.00    +0.077 A 
ATOM      5  C   UNL     1       6.451   3.949  24.312  0.00  0.00    +0.048 A 
ATOM      6  C   UNL     1       7.197   3.157  23.411  0.00  0.00    +0.116 A 
ATOM      7  N   UNL     1       6.667   1.984  22.918  0.00  0.00    -0.223 NA
ATOM      8  C   UNL     1       5.406   1.558  23.293  0.00  0.00    +0.220 A 
ATOM      9  N   UNL     1       4.851   0.386  22.804  0.00  0.00    -0.283 N 
ATOM     36  H   UNL     1       3.920   0.102  23.110  0.00  0.00    +0.155 HD
ATOM     37  N   UNL     1       4.674   2.296  24.154  0.00  0.00    -0.214 NA
BRANCH   4   3
ATOM      1  C   UNL     1       3.758   5.422  27.776  0.00  0.00    +0.020 A 
ATOM      2  C   UNL     1       4.677   4.726  26.905  0.00  0.00    +0.013 A 
ATOM      3  C   UNL     1       4.235   4.205  25.618  0.00  0.00    +0.019 A 
ATOM     38  C   UNL     1       2.845   4.407  25.238  0.00  0.00    +0.120 A 
ATOM     39  N   UNL     1       1.982   5.080  26.097  0.00  0.00    -0.263 NA
ATOM     40  C   UNL     1       2.396   5.584  27.339  0.00  0.00    +0.111 A 
ENDBRANCH   4   3
ENDBRANCH  10   9
BRANCH  12  13
ATOM     13  N   UNL     1       5.894  -0.828  18.093  0.00  0.00    -0.281 N 
ATOM     14  C   UNL     1       5.223  -1.652  17.204  0.00  0.00    +0.248 C 
ATOM     30  O   UNL     1       4.835  -2.781  17.466  0.00  0.00    -0.270 OA
ATOM     31  H   UNL     1       6.330   0.003  17.692  0.00  0.00    +0.155 HD
BRANCH  14  15
ATOM     15  C   UNL     1       4.956  -1.155  15.820  0.00  0.00    +0.037 A 
ATOM     16  C   UNL     1       5.840  -0.177  15.180  0.00  0.00    +0.013 A 
ATOM     17  C   UNL     1       5.551   0.299  13.850  0.00  0.00    +0.005 A 
ATOM     18  C   UNL     1       4.371  -0.206  13.150  0.00  0.00    -0.033 A 
ATOM     28  C   UNL     1       3.515  -1.179  13.806  0.00  0.00    +0.005 A 
ATOM     29  C   UNL     1       3.795  -1.647  15.110  0.00  0.00    +0.013 A 
BRANCH  18  19
ATOM     19  C   UNL     1       3.974   0.262  11.738  0.00  0.00    +0.119 C 
BRANCH  19  20
ATOM     20  N   UNL     1       2.981   1.373  11.639  0.00  0.00    -0.302 NA
ATOM     21  C   UNL     1       1.618   0.883  11.142  0.00  0.00    +0.066 C 
ATOM     22  C   UNL     1       0.585   2.054  11.066  0.00  0.00    -0.064 C 
ATOM     23  N   UNL     1       1.131   3.155  10.155  0.00  0.00    +0.379 N 
ATOM     24  C   UNL     1       0.137   4.231  10.035  0.00  0.00    -0.096 C 
ATOM     25  H   UNL     1       1.275   2.713   9.141  0.00  0.00    -0.082 HD
ATOM     26  C   UNL     1       2.488   3.646  10.641  0.00  0.00    -0.064 C 
ATOM     27  C   UNL     1       3.498   2.469  10.740  0.00  0.00    +0.066 C 
ENDBRANCH  19  20
ENDBRANCH  18  19
ENDBRANCH  14  15
ENDBRANCH  12  13
TORSDOF 6
ENDMDL
