MODEL 1
REMARK VINA RESULT:      -8.2      0.000      0.000
REMARK  Name = C:\Users\Docking\Desktop\test protocol\1iep_ligandH.pdb
REMARK  8 active torsions:
REMARK  status: ('A' for Active; 'I' for Inactive)
REMARK    1  A    between atoms: _5  and  _11
REMARK    2  A    between atoms: _19  and  _21
REMARK    3  A    between atoms: _22  and  _66
REMARK    4  A    between atoms: _27  and  _30
REMARK    5  A    between atoms: _32  and  _33
REMARK    6  A    between atoms: _38  and  _43
REMARK    7  A    between atoms: _43  and  _46
REMARK    8  A    between atoms: _53  and  _55
REMARK                            x       y       z     vdW  Elec       q    Type
REMARK                         _______ _______ _______ _____ _____    ______ ____
ROOT
ATOM     10  C   UNL     1     -18.345  30.077  22.434  0.00  0.00    +0.038 A 
ATOM     11  C   UNL     1     -17.962  30.500  23.732  0.00  0.00    +0.047 A 
ATOM     12  C   UNL     1     -16.825  31.386  23.930  0.00  0.00    +0.035 A 
ATOM     32  C   UNL     1     -16.101  31.823  22.783  0.00  0.00    +0.024 A 
ATOM     33  C   UNL     1     -16.476  31.402  21.456  0.00  0.00    +0.007 A 
ATOM     34  C   UNL     1     -17.595  30.527  21.254  0.00  0.00    -0.029 A 
ATOM     35  C   UNL     1     -17.947  30.102  19.810  0.00  0.00    +0.045 C 
ENDROOT
BRANCH  10   9
ATOM      4  C   UNL     1     -20.421  25.762  22.752  0.00  0.00    +0.077 A 
ATOM      5  C   UNL     1     -19.204  25.143  23.194  0.00  0.00    +0.048 A 
ATOM      6  C   UNL     1     -18.065  25.969  23.319  0.00  0.00    +0.116 A 
ATOM      7  N   UNL     1     -18.148  27.313  23.023  0.00  0.00    -0.223 NA
ATOM      8  C   UNL     1     -19.337  27.877  22.598  0.00  0.00    +0.220 A 
ATOM      9  N   UNL     1     -19.445  29.227  22.302  0.00  0.00    -0.283 N 
ATOM     36  H   UNL     1     -20.338  29.603  21.984  0.00  0.00    +0.155 HD
ATOM     37  N   UNL     1     -20.438  27.109  22.469  0.00  0.00    -0.214 NA
BRANCH   4   3
ATOM      1  C   UNL     1     -23.688  24.275  21.197  0.00  0.00    +0.020 A 
ATOM      2  C   UNL     1     -22.447  25.005  21.317  0.00  0.00    +0.013 A 
ATOM      3  C   UNL     1     -21.710  25.022  22.574  0.00  0.00    +0.019 A 
ATOM     38  C   UNL     1     -22.260  24.282  23.700  0.00  0.00    +0.120 A 
ATOM     39  N   UNL     1     -23.458  23.588  23.556  0.00  0.00    -0.263 NA
ATOM     40  C   UNL     1     -24.176  23.567  22.351  0.00  0.00    +0.111 A 
ENDBRANCH   4   3
ENDBRANCH  10   9
BRANCH  12  13
ATOM     13  N   UNL     1     -16.384  31.842  25.225  0.00  0.00    -0.281 N 
ATOM     14  C   UNL     1     -15.479  31.235  26.080  0.00  0.00    +0.248 C 
ATOM     30  O   UNL     1     -15.068  30.091  25.952  0.00  0.00    -0.270 OA
ATOM     31  H   UNL     1     -16.790  32.719  25.552  0.00  0.00    +0.155 HD
BRANCH  14  15
ATOM     15  C   UNL     1     -14.966  32.005  27.254  0.00  0.00    +0.037 A 
ATOM     16  C   UNL     1     -15.387  33.386  27.500  0.00  0.00    +0.013 A 
ATOM     17  C   UNL     1     -14.864  34.112  28.630  0.00  0.00    +0.005 A 
ATOM     18  C   UNL     1     -13.914  33.455  29.525  0.00  0.00    -0.033 A 
ATOM     28  C   UNL     1     -13.517  32.082  29.260  0.00  0.00    +0.005 A 
ATOM     29  C   UNL     1     -14.027  31.368  28.153  0.00  0.00    +0.013 A 
BRANCH  18  19
ATOM     19  C   UNL     1     -13.288  34.160  30.743  0.00  0.00    +0.119 C 
BRANCH  19  20
ATOM     20  N   UNL     1     -14.168  35.073  31.531  0.00  0.00    -0.302 NA
ATOM     21  C   UNL     1     -13.440  35.675  32.736  0.00  0.00    +0.066 C 
ATOM     22  C   UNL     1     -14.368  36.645  33.536  0.00  0.00    -0.064 C 
ATOM     23  N   UNL     1     -15.624  35.894  33.982  0.00  0.00    +0.379 N 
ATOM     24  C   UNL     1     -16.472  36.788  34.784  0.00  0.00    -0.096 C 
ATOM     25  H   UNL     1     -15.300  35.055  34.640  0.00  0.00    -0.082 HD
ATOM     26  C   UNL     1     -16.353  35.291  32.789  0.00  0.00    -0.064 C 
ATOM     27  C   UNL     1     -15.413  34.351  31.985  0.00  0.00    +0.066 C 
ENDBRANCH  19  20
ENDBRANCH  18  19
ENDBRANCH  14  15
ENDBRANCH  12  13
TORSDOF 6
ENDMDL
MODEL 2
REMARK VINA RESULT:      -7.9     14.430     17.101
REMARK  Name = C:\Users\Docking\Desktop\test protocol\1iep_ligandH.pdb
REMARK  8 active torsions:
REMARK  status: ('A' for Active; 'I' for Inactive)
REMARK    1  A    between atoms: _5  and  _11
REMARK    2  A    between atoms: _19  and  _21
REMARK    3  A    between atoms: _22  and  _66
REMARK    4  A    between atoms: _27  and  _30
REMARK    5  A    between atoms: _32  and  _33
REMARK    6  A    between atoms: _38  and  _43
REMARK    7  A    between atoms: _43  and  _46
REMARK    8  A    between atoms: _53  and  _55
REMARK                            x       y       z     vdW  Elec       q    Type
REMARK                         _______ _______ _______ _____ _____    ______ ____
ROOT
ATOM     10  C   UNL     1      -7.003  15.663  29.706  0.00  0.00    +0.038 A 
ATOM     11  C   UNL     1      -7.365  16.820  28.970  0.00  0.00    +0.047 A 
ATOM     12  C   UNL     1      -6.391  17.528  28.153  0.00  0.00    +0.035 A 
ATOM     32  C   UNL     1      -5.057  17.028  28.108  0.00  0.00    +0.024 A 
ATOM     33  C   UNL     1      -4.671  15.854  28.851  0.00  0.00    +0.007 A 
ATOM     34  C   UNL     1      -5.627  15.153  29.659  0.00  0.00    -0.029 A 
ATOM     35  C   UNL     1      -5.156  13.903  30.440  0.00  0.00    +0.045 C 
ENDROOT
BRANCH  10   9
ATOM      4  C   UNL     1      -9.791  15.344  33.599  0.00  0.00    +0.077 A 
ATOM      5  C   UNL     1      -9.238  16.541  34.166  0.00  0.00    +0.048 A 
ATOM      6  C   UNL     1      -8.233  17.204  33.427  0.00  0.00    +0.116 A 
ATOM      7  N   UNL     1      -7.820  16.700  32.212  0.00  0.00    -0.223 NA
ATOM      8  C   UNL     1      -8.373  15.543  31.696  0.00  0.00    +0.220 A 
ATOM      9  N   UNL     1      -7.978  15.022  30.473  0.00  0.00    -0.283 N 
ATOM     36  H   UNL     1      -8.405  14.162  30.130  0.00  0.00    +0.155 HD
ATOM     37  N   UNL     1      -9.333  14.890  32.383  0.00  0.00    -0.214 NA
BRANCH   4   3
ATOM      1  C   UNL     1     -11.749  13.110  36.144  0.00  0.00    +0.020 A 
ATOM      2  C   UNL     1     -10.682  13.882  35.551  0.00  0.00    +0.013 A 
ATOM      3  C   UNL     1     -10.862  14.532  34.259  0.00  0.00    +0.019 A 
ATOM     38  C   UNL     1     -12.145  14.381  33.588  0.00  0.00    +0.120 A 
ATOM     39  N   UNL     1     -13.154  13.629  34.183  0.00  0.00    -0.263 NA
ATOM     40  C   UNL     1     -12.991  12.998  35.425  0.00  0.00    +0.111 A 
ENDBRANCH   4   3
ENDBRANCH  10   9
BRANCH  12  13
ATOM     13  N   UNL     1      -6.698  18.712  27.391  0.00  0.00    -0.281 N 
ATOM     14  C   UNL     1      -7.129  18.791  26.077  0.00  0.00    +0.248 C 
ATOM     30  O   UNL     1      -7.111  17.859  25.286  0.00  0.00    -0.270 OA
ATOM     31  H   UNL     1      -6.584  19.600  27.879  0.00  0.00    +0.155 HD
BRANCH  14  15
ATOM     15  C   UNL     1      -7.641  20.097  25.562  0.00  0.00    +0.037 A 
ATOM     16  C   UNL     1      -6.966  20.800  24.468  0.00  0.00    +0.013 A 
ATOM     17  C   UNL     1      -7.470  22.067  24.002  0.00  0.00    +0.005 A 
ATOM     18  C   UNL     1      -8.659  22.639  24.629  0.00  0.00    -0.033 A 
ATOM     28  C   UNL     1      -9.313  21.918  25.709  0.00  0.00    +0.005 A 
ATOM     29  C   UNL     1      -8.820  20.677  26.169  0.00  0.00    +0.013 A 
BRANCH  18  19
ATOM     19  C   UNL     1      -9.255  23.996  24.210  0.00  0.00    +0.119 C 
BRANCH  19  20
ATOM     20  N   UNL     1     -10.725  24.185  24.399  0.00  0.00    -0.302 NA
ATOM     21  C   UNL     1     -11.308  25.187  23.399  0.00  0.00    +0.066 C 
ATOM     22  C   UNL     1     -12.850  25.356  23.597  0.00  0.00    -0.064 C 
ATOM     23  N   UNL     1     -13.132  25.798  25.034  0.00  0.00    +0.379 N 
ATOM     24  C   UNL     1     -14.576  26.014  25.206  0.00  0.00    -0.096 C 
ATOM     25  H   UNL     1     -12.622  26.777  25.192  0.00  0.00    -0.082 HD
ATOM     26  C   UNL     1     -12.553  24.809  26.035  0.00  0.00    -0.064 C 
ATOM     27  C   UNL     1     -11.026  24.626  25.811  0.00  0.00    +0.066 C 
ENDBRANCH  19  20
ENDBRANCH  18  19
ENDBRANCH  14  15
ENDBRANCH  12  13
TORSDOF 6
ENDMDL
MODEL 3
REMARK VINA RESULT:      -7.8     13.262     16.165
REMARK  Name = C:\Users\Docking\Desktop\test protocol\1iep_ligandH.pdb
REMARK  8 active torsions:
REMARK  status: ('A' for Active; 'I' for Inactive)
REMARK    1  A    between atoms: _5  and  _11
REMARK    2  A    between atoms: _19  and  _21
REMARK    3  A    between atoms: _22  and  _66
REMARK    4  A    between atoms: _27  and  _30
REMARK    5  A    between atoms: _32  and  _33
REMARK    6  A    between atoms: _38  and  _43
REMARK    7  A    between atoms: _43  and  _46
REMARK    8  A    between atoms: _53  and  _55
REMARK                            x       y       z     vdW  Elec       q    Type
REMARK                         _______ _______ _______ _____ _____    ______ ____
ROOT
ATOM     10  C   UNL     1      -7.995  16.906  29.081  0.00  0.00    +0.038 A 
ATOM     11  C   UNL     1      -8.491  18.099  28.496  0.00  0.00    +0.047 A 
ATOM     12  C   UNL     1      -7.653  18.922  27.639  0.00  0.00    +0.035 A 
ATOM     32  C   UNL     1      -6.314  18.499  27.395  0.00  0.00    +0.024 A 
ATOM     33  C   UNL     1      -5.793  17.289  27.981  0.00  0.00    +0.007 A 
ATOM     34  C   UNL     1      -6.615  16.474  28.830  0.00  0.00    -0.029 A 
ATOM     35  C   UNL     1      -6.001  15.191  29.437  0.00  0.00    +0.045 C 
ENDROOT
BRANCH  10   9
ATOM      4  C   UNL     1      -9.837  15.769  33.364  0.00  0.00    +0.077 A 
ATOM      5  C   UNL     1      -9.020  16.737  34.038  0.00  0.00    +0.048 A 
ATOM      6  C   UNL     1      -8.134  17.502  33.247  0.00  0.00    +0.116 A 
ATOM      7  N   UNL     1      -8.078  17.306  31.884  0.00  0.00    -0.223 NA
ATOM      8  C   UNL     1      -8.878  16.363  31.266  0.00  0.00    +0.220 A 
ATOM      9  N   UNL     1      -8.844  16.154  29.896  0.00  0.00    -0.283 N 
ATOM     36  H   UNL     1      -9.445  15.444  29.479  0.00  0.00    +0.155 HD
ATOM     37  N   UNL     1      -9.732  15.618  32.000  0.00  0.00    -0.214 NA
BRANCH   4   3
ATOM      1  C   UNL     1     -11.483  13.273  35.886  0.00  0.00    +0.020 A 
ATOM      2  C   UNL     1     -10.492  14.109  35.249  0.00  0.00    +0.013 A 
ATOM      3  C   UNL     1     -10.825  14.887  34.063  0.00  0.00    +0.019 A 
ATOM     38  C   UNL     1     -12.180  14.796  33.541  0.00  0.00    +0.120 A 
ATOM     39  N   UNL     1     -13.113  13.981  34.175  0.00  0.00    -0.263 NA
ATOM     40  C   UNL     1     -12.804  13.227  35.316  0.00  0.00    +0.111 A 
ENDBRANCH   4   3
ENDBRANCH  10   9
BRANCH  12  13
ATOM     13  N   UNL     1      -8.099  20.148  27.024  0.00  0.00    -0.281 N 
ATOM     14  C   UNL     1      -8.312  20.398  25.679  0.00  0.00    +0.248 C 
ATOM     30  O   UNL     1      -7.943  19.665  24.773  0.00  0.00    -0.270 OA
ATOM     31  H   UNL     1      -8.281  20.926  27.659  0.00  0.00    +0.155 HD
BRANCH  14  15
ATOM     15  C   UNL     1      -9.024  21.651  25.280  0.00  0.00    +0.037 A 
ATOM     16  C   UNL     1      -9.536  22.586  26.285  0.00  0.00    +0.013 A 
ATOM     17  C   UNL     1     -10.234  23.778  25.874  0.00  0.00    +0.005 A 
ATOM     18  C   UNL     1     -10.423  24.042  24.450  0.00  0.00    -0.033 A 
ATOM     28  C   UNL     1      -9.900  23.100  23.474  0.00  0.00    +0.005 A 
ATOM     29  C   UNL     1      -9.216  21.930  23.873  0.00  0.00    +0.013 A 
BRANCH  18  19
ATOM     19  C   UNL     1     -11.174  25.279  23.921  0.00  0.00    +0.119 C 
BRANCH  19  20
ATOM     20  N   UNL     1     -12.665  25.202  23.867  0.00  0.00    -0.302 NA
ATOM     21  C   UNL     1     -13.316  25.782  25.126  0.00  0.00    +0.066 C 
ATOM     22  C   UNL     1     -14.875  25.714  25.043  0.00  0.00    -0.064 C 
ATOM     23  N   UNL     1     -15.309  24.263  24.829  0.00  0.00    +0.379 N 
ATOM     24  C   UNL     1     -16.777  24.188  24.808  0.00  0.00    -0.096 C 
ATOM     25  H   UNL     1     -14.952  23.671  25.703  0.00  0.00    -0.082 HD
ATOM     26  C   UNL     1     -14.664  23.677  23.581  0.00  0.00    -0.064 C 
ATOM     27  C   UNL     1     -13.115  23.777  23.660  0.00  0.00    +0.066 C 
ENDBRANCH  19  20
ENDBRANCH  18  19
ENDBRANCH  14  15
ENDBRANCH  12  13
TORSDOF 6
ENDMDL
MODEL 4
REMARK VINA RESULT:      -7.8     14.393     17.385
REMARK  Name = C:\Users\Docking\Desktop\test protocol\1iep_ligandH.pdb
REMARK  8 active torsions:
REMARK  status: ('A' for Active; 'I' for Inactive)
REMARK    1  A    between atoms: _5  and  _11
REMARK    2  A    between atoms: _19  and  _21
REMARK    3  A    between atoms: _22  and  _66
REMARK    4  A    between atoms: _27  and  _30
REMARK    5  A    between atoms: _32  and  _33
REMARK    6  A    between atoms: _38  and  _43
REMARK    7  A    between atoms: _43  and  _46
REMARK    8  A    between atoms: _53  and  _55
REMARK                            x       y       z     vdW  Elec       q    Type
REMARK                         _______ _______ _______ _____ _____    ______ ____
ROOT
ATOM     10  C   UNL     1      -7.070  15.833  29.623  0.00  0.00    +0.038 A 
ATOM     11  C   UNL     1      -7.427  16.964  28.845  0.00  0.00    +0.047 A 
ATOM     12  C   UNL     1      -6.439  17.668  28.043  0.00  0.00    +0.035 A 
ATOM     32  C   UNL     1      -5.096  17.191  28.054  0.00  0.00    +0.024 A 
ATOM     33  C   UNL     1      -4.715  16.043  28.839  0.00  0.00    +0.007 A 
ATOM     34  C   UNL     1      -5.686  15.346  29.635  0.00  0.00    -0.029 A 
ATOM     35  C   UNL     1      -5.220  14.126  30.462  0.00  0.00    +0.045 C 
ENDROOT
BRANCH  10   9
ATOM      4  C   UNL     1      -9.807  15.433  33.545  0.00  0.00    +0.077 A 
ATOM      5  C   UNL     1      -9.196  16.575  34.161  0.00  0.00    +0.048 A 
ATOM      6  C   UNL     1      -8.176  17.234  33.438  0.00  0.00    +0.116 A 
ATOM      7  N   UNL     1      -7.804  16.775  32.193  0.00  0.00    -0.223 NA
ATOM      8  C   UNL     1      -8.413  15.669  31.629  0.00  0.00    +0.220 A 
ATOM      9  N   UNL     1      -8.060  15.195  30.375  0.00  0.00    -0.283 N 
ATOM     36  H   UNL     1      -8.528  14.372  29.997  0.00  0.00    +0.155 HD
ATOM     37  N   UNL     1      -9.388  15.022  32.300  0.00  0.00    -0.214 NA
BRANCH   4   3
ATOM      1  C   UNL     1     -11.864  13.271  36.074  0.00  0.00    +0.020 A 
ATOM      2  C   UNL     1     -10.777  14.033  35.504  0.00  0.00    +0.013 A 
ATOM      3  C   UNL     1     -10.902  14.634  34.182  0.00  0.00    +0.019 A 
ATOM     38  C   UNL     1     -12.149  14.444  33.458  0.00  0.00    +0.120 A 
ATOM     39  N   UNL     1     -13.178  13.704  34.031  0.00  0.00    -0.263 NA
ATOM     40  C   UNL     1     -13.069  13.119  35.302  0.00  0.00    +0.111 A 
ENDBRANCH   4   3
ENDBRANCH  10   9
BRANCH  12  13
ATOM     13  N   UNL     1      -6.741  18.827  27.240  0.00  0.00    -0.281 N 
ATOM     14  C   UNL     1      -7.469  18.881  26.063  0.00  0.00    +0.248 C 
ATOM     30  O   UNL     1      -7.792  17.904  25.404  0.00  0.00    -0.270 OA
ATOM     31  H   UNL     1      -6.373  19.715  27.581  0.00  0.00    +0.155 HD
BRANCH  14  15
ATOM     15  C   UNL     1      -7.886  20.215  25.532  0.00  0.00    +0.037 A 
ATOM     16  C   UNL     1      -7.226  20.809  24.366  0.00  0.00    +0.013 A 
ATOM     17  C   UNL     1      -7.636  22.104  23.885  0.00  0.00    +0.005 A 
ATOM     18  C   UNL     1      -8.714  22.814  24.571  0.00  0.00    -0.033 A 
ATOM     28  C   UNL     1      -9.354  22.200  25.722  0.00  0.00    +0.005 A 
ATOM     29  C   UNL     1      -8.954  20.931  26.197  0.00  0.00    +0.013 A 
BRANCH  18  19
ATOM     19  C   UNL     1      -9.202  24.210  24.140  0.00  0.00    +0.119 C 
BRANCH  19  20
ATOM     20  N   UNL     1     -10.208  24.273  23.038  0.00  0.00    -0.302 NA
ATOM     21  C   UNL     1      -9.550  24.453  21.668  0.00  0.00    +0.066 C 
ATOM     22  C   UNL     1     -10.616  24.494  20.525  0.00  0.00    -0.064 C 
ATOM     23  N   UNL     1     -11.612  25.622  20.800  0.00  0.00    +0.379 N 
ATOM     24  C   UNL     1     -12.581  25.700  19.698  0.00  0.00    -0.096 C 
ATOM     25  H   UNL     1     -11.042  26.580  20.818  0.00  0.00    -0.082 HD
ATOM     26  C   UNL     1     -12.269  25.451  22.162  0.00  0.00    -0.064 C 
ATOM     27  C   UNL     1     -11.200  25.382  23.288  0.00  0.00    +0.066 C 
ENDBRANCH  19  20
ENDBRANCH  18  19
ENDBRANCH  14  15
ENDBRANCH  12  13
TORSDOF 6
ENDMDL
MODEL 5
REMARK VINA RESULT:      -7.8      5.496     12.052
REMARK  Name = C:\Users\Docking\Desktop\test protocol\1iep_ligandH.pdb
REMARK  8 active torsions:
REMARK  status: ('A' for Active; 'I' for Inactive)
REMARK    1  A    between atoms: _5  and  _11
REMARK    2  A    between atoms: _19  and  _21
REMARK    3  A    between atoms: _22  and  _66
REMARK    4  A    between atoms: _27  and  _30
REMARK    5  A    between atoms: _32  and  _33
REMARK    6  A    between atoms: _38  and  _43
REMARK    7  A    between atoms: _43  and  _46
REMARK    8  A    between atoms: _53  and  _55
REMARK                            x       y       z     vdW  Elec       q    Type
REMARK                         _______ _______ _______ _____ _____    ______ ____
ROOT
ATOM     10  C   UNL     1     -15.106  32.453  27.242  0.00  0.00    +0.038 A 
ATOM     11  C   UNL     1     -16.146  33.368  26.937  0.00  0.00    +0.047 A 
ATOM     12  C   UNL     1     -17.162  33.050  25.946  0.00  0.00    +0.035 A 
ATOM     32  C   UNL     1     -17.089  31.789  25.286  0.00  0.00    +0.024 A 
ATOM     33  C   UNL     1     -16.039  30.847  25.583  0.00  0.00    +0.007 A 
ATOM     34  C   UNL     1     -15.033  31.157  26.558  0.00  0.00    -0.029 A 
ATOM     35  C   UNL     1     -13.926  30.112  26.831  0.00  0.00    +0.045 C 
ENDROOT
BRANCH  10   9
ATOM      4  C   UNL     1     -13.890  34.159  31.561  0.00  0.00    +0.077 A 
ATOM      5  C   UNL     1     -15.260  34.382  31.924  0.00  0.00    +0.048 A 
ATOM      6  C   UNL     1     -16.247  34.051  30.968  0.00  0.00    +0.116 A 
ATOM      7  N   UNL     1     -15.879  33.536  29.744  0.00  0.00    -0.223 NA
ATOM      8  C   UNL     1     -14.549  33.335  29.425  0.00  0.00    +0.220 A 
ATOM      9  N   UNL     1     -14.157  32.811  28.203  0.00  0.00    -0.283 N 
ATOM     36  H   UNL     1     -13.165  32.685  28.003  0.00  0.00    +0.155 HD
ATOM     37  N   UNL     1     -13.588  33.644  30.320  0.00  0.00    -0.214 NA
BRANCH   4   3
ATOM      1  C   UNL     1     -10.275  34.805  32.907  0.00  0.00    +0.020 A 
ATOM      2  C   UNL     1     -11.355  34.514  31.993  0.00  0.00    +0.013 A 
ATOM      3  C   UNL     1     -12.733  34.456  32.464  0.00  0.00    +0.019 A 
ATOM     38  C   UNL     1     -12.986  34.699  33.876  0.00  0.00    +0.120 A 
ATOM     39  N   UNL     1     -11.925  34.975  34.733  0.00  0.00    -0.263 NA
ATOM     40  C   UNL     1     -10.595  35.033  34.291  0.00  0.00    +0.111 A 
ENDBRANCH   4   3
ENDBRANCH  10   9
BRANCH  12  13
ATOM     13  N   UNL     1     -18.237  33.942  25.589  0.00  0.00    -0.281 N 
ATOM     14  C   UNL     1     -18.433  34.600  24.385  0.00  0.00    +0.248 C 
ATOM     30  O   UNL     1     -17.595  34.688  23.501  0.00  0.00    -0.270 OA
ATOM     31  H   UNL     1     -18.938  34.110  26.311  0.00  0.00    +0.155 HD
BRANCH  14  15
ATOM     15  C   UNL     1     -19.746  35.269  24.134  0.00  0.00    +0.037 A 
ATOM     16  C   UNL     1     -20.601  34.868  23.014  0.00  0.00    +0.013 A 
ATOM     17  C   UNL     1     -21.855  35.541  22.784  0.00  0.00    +0.005 A 
ATOM     18  C   UNL     1     -22.262  36.622  23.678  0.00  0.00    -0.033 A 
ATOM     28  C   UNL     1     -21.397  36.995  24.786  0.00  0.00    +0.005 A 
ATOM     29  C   UNL     1     -20.167  36.339  25.013  0.00  0.00    +0.013 A 
BRANCH  18  19
ATOM     19  C   UNL     1     -23.573  37.409  23.496  0.00  0.00    +0.119 C 
BRANCH  19  20
ATOM     20  N   UNL     1     -24.832  36.759  23.966  0.00  0.00    -0.302 NA
ATOM     21  C   UNL     1     -24.569  35.719  25.059  0.00  0.00    +0.066 C 
ATOM     22  C   UNL     1     -25.899  35.065  25.556  0.00  0.00    -0.064 C 
ATOM     23  N   UNL     1     -26.626  34.431  24.369  0.00  0.00    +0.379 N 
ATOM     24  C   UNL     1     -27.848  33.764  24.841  0.00  0.00    -0.096 C 
ATOM     25  H   UNL     1     -25.957  33.647  23.942  0.00  0.00    -0.082 HD
ATOM     26  C   UNL     1     -26.890  35.457  23.276  0.00  0.00    -0.064 C 
ATOM     27  C   UNL     1     -25.564  36.122  22.811  0.00  0.00    +0.066 C 
ENDBRANCH  19  20
ENDBRANCH  18  19
ENDBRANCH  14  15
ENDBRANCH  12  13
TORSDOF 6
ENDMDL
