MODEL 1
REMARK VINA RESULT:      -7.9      0.000      0.000
REMARK  Name = C:\Users\Docking\Desktop\test protocol\1iep_ligandH.pdb
REMARK  8 active torsions:
REMARK  status: ('A' for Active; 'I' for Inactive)
REMARK    1  A    between atoms: _5  and  _11
REMARK    2  A    between atoms: _19  and  _21
REMARK    3  A    between atoms: _22  and  _66
REMARK    4  A    between atoms: _27  and  _30
REMARK    5  A    between atoms: _32  and  _33
REMARK    6  A    between atoms: _38  and  _43
REMARK    7  A    between atoms: _43  and  _46
REMARK    8  A    between atoms: _53  and  _55
REMARK                            x       y       z     vdW  Elec       q    Type
REMARK                         _______ _______ _______ _____ _____    ______ ____
ROOT
ATOM     10  C   UNL     1      20.473  25.718   4.624  0.00  0.00    +0.038 A 
ATOM     11  C   UNL     1      19.107  25.646   4.999  0.00  0.00    +0.047 A 
ATOM     12  C   UNL     1      18.447  24.364   5.195  0.00  0.00    +0.035 A 
ATOM     32  C   UNL     1      19.210  23.175   5.004  0.00  0.00    +0.024 A 
ATOM     33  C   UNL     1      20.600  23.230   4.622  0.00  0.00    +0.007 A 
ATOM     34  C   UNL     1      21.255  24.492   4.424  0.00  0.00    -0.029 A 
ATOM     35  C   UNL     1      22.744  24.491   4.009  0.00  0.00    +0.045 C 
ENDROOT
BRANCH  10   9
ATOM      4  C   UNL     1      21.544  29.549   1.938  0.00  0.00    +0.077 A 
ATOM      5  C   UNL     1      20.913  28.987   0.779  0.00  0.00    +0.048 A 
ATOM      6  C   UNL     1      20.330  27.707   0.914  0.00  0.00    +0.116 A 
ATOM      7  N   UNL     1      20.381  27.047   2.123  0.00  0.00    -0.223 NA
ATOM      8  C   UNL     1      21.000  27.617   3.221  0.00  0.00    +0.220 A 
ATOM      9  N   UNL     1      21.056  26.975   4.448  0.00  0.00    -0.283 N 
ATOM     36  H   UNL     1      21.527  27.426   5.232  0.00  0.00    +0.155 HD
ATOM     37  N   UNL     1      21.565  28.838   3.117  0.00  0.00    -0.214 NA
BRANCH   4   3
ATOM      1  C   UNL     1      23.303  32.859   0.819  0.00  0.00    +0.020 A 
ATOM      2  C   UNL     1      22.676  31.559   0.748  0.00  0.00    +0.013 A 
ATOM      3  C   UNL     1      22.201  30.894   1.955  0.00  0.00    +0.019 A 
ATOM     38  C   UNL     1      22.378  31.577   3.228  0.00  0.00    +0.120 A 
ATOM     39  N   UNL     1      22.987  32.827   3.266  0.00  0.00    -0.263 NA
ATOM     40  C   UNL     1      23.449  33.476   2.111  0.00  0.00    +0.111 A 
ENDBRANCH   4   3
ENDBRANCH  10   9
BRANCH  12  13
ATOM     13  N   UNL     1      17.061  24.228   5.568  0.00  0.00    -0.281 N 
ATOM     14  C   UNL     1      16.051  23.586   4.871  0.00  0.00    +0.248 C 
ATOM     30  O   UNL     1      16.141  23.212   3.711  0.00  0.00    -0.270 OA
ATOM     31  H   UNL     1      16.792  24.658   6.453  0.00  0.00    +0.155 HD
BRANCH  14  15
ATOM     15  C   UNL     1      14.747  23.336   5.557  0.00  0.00    +0.037 A 
ATOM     16  C   UNL     1      13.556  22.937   4.803  0.00  0.00    +0.013 A 
ATOM     17  C   UNL     1      12.306  22.719   5.487  0.00  0.00    +0.005 A 
ATOM     18  C   UNL     1      12.242  22.897   6.936  0.00  0.00    -0.033 A 
ATOM     28  C   UNL     1      13.440  23.288   7.660  0.00  0.00    +0.005 A 
ATOM     29  C   UNL     1      14.666  23.504   6.992  0.00  0.00    +0.013 A 
BRANCH  18  19
ATOM     19  C   UNL     1      10.945  22.706   7.745  0.00  0.00    +0.119 C 
BRANCH  19  20
ATOM     20  N   UNL     1      11.076  22.138   9.120  0.00  0.00    -0.302 NA
ATOM     21  C   UNL     1      10.512  20.717   9.210  0.00  0.00    +0.066 C 
ATOM     22  C   UNL     1      10.676  20.129  10.649  0.00  0.00    -0.064 C 
ATOM     23  N   UNL     1       9.985  21.050  11.655  0.00  0.00    +0.379 N 
ATOM     24  C   UNL     1      10.088  20.471  13.003  0.00  0.00    -0.096 C 
ATOM     25  H   UNL     1       8.904  21.093  11.387  0.00  0.00    -0.082 HD
ATOM     26  C   UNL     1      10.538  22.466  11.571  0.00  0.00    -0.064 C 
ATOM     27  C   UNL     1      10.396  23.030  10.130  0.00  0.00    +0.066 C 
ENDBRANCH  19  20
ENDBRANCH  18  19
ENDBRANCH  14  15
ENDBRANCH  12  13
TORSDOF 6
ENDMDL
MODEL 2
REMARK VINA RESULT:      -7.8      2.300      3.054
REMARK  Name = C:\Users\Docking\Desktop\test protocol\1iep_ligandH.pdb
REMARK  8 active torsions:
REMARK  status: ('A' for Active; 'I' for Inactive)
REMARK    1  A    between atoms: _5  and  _11
REMARK    2  A    between atoms: _19  and  _21
REMARK    3  A    between atoms: _22  and  _66
REMARK    4  A    between atoms: _27  and  _30
REMARK    5  A    between atoms: _32  and  _33
REMARK    6  A    between atoms: _38  and  _43
REMARK    7  A    between atoms: _43  and  _46
REMARK    8  A    between atoms: _53  and  _55
REMARK                            x       y       z     vdW  Elec       q    Type
REMARK                         _______ _______ _______ _____ _____    ______ ____
ROOT
ATOM     10  C   UNL     1      20.592  26.669   3.310  0.00  0.00    +0.038 A 
ATOM     11  C   UNL     1      19.201  26.634   3.582  0.00  0.00    +0.047 A 
ATOM     12  C   UNL     1      18.422  25.424   3.367  0.00  0.00    +0.035 A 
ATOM     32  C   UNL     1      19.094  24.267   2.877  0.00  0.00    +0.024 A 
ATOM     33  C   UNL     1      20.508  24.285   2.594  0.00  0.00    +0.007 A 
ATOM     34  C   UNL     1      21.281  25.476   2.802  0.00  0.00    -0.029 A 
ATOM     35  C   UNL     1      22.792  25.440   2.477  0.00  0.00    +0.045 C 
ENDROOT
BRANCH  10   9
ATOM      4  C   UNL     1      22.348  30.889   1.844  0.00  0.00    +0.077 A 
ATOM      5  C   UNL     1      21.856  30.697   0.510  0.00  0.00    +0.048 A 
ATOM      6  C   UNL     1      21.162  29.496   0.241  0.00  0.00    +0.116 A 
ATOM      7  N   UNL     1      20.980  28.563   1.239  0.00  0.00    -0.223 NA
ATOM      8  C   UNL     1      21.469  28.779   2.514  0.00  0.00    +0.220 A 
ATOM      9  N   UNL     1      21.291  27.858   3.535  0.00  0.00    -0.283 N 
ATOM     36  H   UNL     1      21.674  28.050   4.460  0.00  0.00    +0.155 HD
ATOM     37  N   UNL     1      22.136  29.917   2.796  0.00  0.00    -0.214 NA
BRANCH   4   3
ATOM      1  C   UNL     1      24.571  33.363   3.902  0.00  0.00    +0.020 A 
ATOM      2  C   UNL     1      23.864  32.162   3.523  0.00  0.00    +0.013 A 
ATOM      3  C   UNL     1      23.098  32.107   2.284  0.00  0.00    +0.019 A 
ATOM     38  C   UNL     1      23.068  33.296   1.445  0.00  0.00    +0.120 A 
ATOM     39  N   UNL     1      23.757  34.439   1.837  0.00  0.00    -0.263 NA
ATOM     40  C   UNL     1      24.496  34.503   3.027  0.00  0.00    +0.111 A 
ENDBRANCH   4   3
ENDBRANCH  10   9
BRANCH  12  13
ATOM     13  N   UNL     1      17.005  25.332   3.617  0.00  0.00    -0.281 N 
ATOM     14  C   UNL     1      15.986  25.172   2.692  0.00  0.00    +0.248 C 
ATOM     30  O   UNL     1      16.122  25.299   1.485  0.00  0.00    -0.270 OA
ATOM     31  H   UNL     1      16.719  25.391   4.594  0.00  0.00    +0.155 HD
BRANCH  14  15
ATOM     15  C   UNL     1      14.614  24.836   3.181  0.00  0.00    +0.037 A 
ATOM     16  C   UNL     1      13.449  25.630   2.781  0.00  0.00    +0.013 A 
ATOM     17  C   UNL     1      12.139  25.295   3.281  0.00  0.00    +0.005 A 
ATOM     18  C   UNL     1      11.987  24.158   4.186  0.00  0.00    -0.033 A 
ATOM     28  C   UNL     1      13.159  23.384   4.562  0.00  0.00    +0.005 A 
ATOM     29  C   UNL     1      14.444  23.711   4.075  0.00  0.00    +0.013 A 
BRANCH  18  19
ATOM     19  C   UNL     1      10.631  23.741   4.784  0.00  0.00    +0.119 C 
BRANCH  19  20
ATOM     20  N   UNL     1      10.314  24.223   6.162  0.00  0.00    -0.302 NA
ATOM     21  C   UNL     1      10.837  25.642   6.408  0.00  0.00    +0.066 C 
ATOM     22  C   UNL     1      10.477  26.138   7.846  0.00  0.00    -0.064 C 
ATOM     23  N   UNL     1      11.048  25.164   8.878  0.00  0.00    +0.379 N 
ATOM     24  C   UNL     1      10.762  25.659  10.232  0.00  0.00    -0.096 C 
ATOM     25  H   UNL     1      12.156  25.148   8.750  0.00  0.00    -0.082 HD
ATOM     26  C   UNL     1      10.536  23.751   8.638  0.00  0.00    -0.064 C 
ATOM     27  C   UNL     1      10.873  23.278   7.196  0.00  0.00    +0.066 C 
ENDBRANCH  19  20
ENDBRANCH  18  19
ENDBRANCH  14  15
ENDBRANCH  12  13
TORSDOF 6
ENDMDL
MODEL 3
REMARK VINA RESULT:      -7.7      3.572      4.275
REMARK  Name = C:\Users\Docking\Desktop\test protocol\1iep_ligandH.pdb
REMARK  8 active torsions:
REMARK  status: ('A' for Active; 'I' for Inactive)
REMARK    1  A    between atoms: _5  and  _11
REMARK    2  A    between atoms: _19  and  _21
REMARK    3  A    between atoms: _22  and  _66
REMARK    4  A    between atoms: _27  and  _30
REMARK    5  A    between atoms: _32  and  _33
REMARK    6  A    between atoms: _38  and  _43
REMARK    7  A    between atoms: _43  and  _46
REMARK    8  A    between atoms: _53  and  _55
REMARK                            x       y       z     vdW  Elec       q    Type
REMARK                         _______ _______ _______ _____ _____    ______ ____
ROOT
ATOM     10  C   UNL     1      20.433  26.547   3.426  0.00  0.00    +0.038 A 
ATOM     11  C   UNL     1      19.029  26.544   3.627  0.00  0.00    +0.047 A 
ATOM     12  C   UNL     1      18.246  25.332   3.444  0.00  0.00    +0.035 A 
ATOM     32  C   UNL     1      18.925  24.140   3.059  0.00  0.00    +0.024 A 
ATOM     33  C   UNL     1      20.352  24.126   2.850  0.00  0.00    +0.007 A 
ATOM     34  C   UNL     1      21.129  25.319   3.026  0.00  0.00    -0.029 A 
ATOM     35  C   UNL     1      22.655  25.246   2.782  0.00  0.00    +0.045 C 
ENDROOT
BRANCH  10   9
ATOM      4  C   UNL     1      22.214  30.710   1.833  0.00  0.00    +0.077 A 
ATOM      5  C   UNL     1      21.726  30.478   0.504  0.00  0.00    +0.048 A 
ATOM      6  C   UNL     1      21.028  29.272   0.270  0.00  0.00    +0.116 A 
ATOM      7  N   UNL     1      20.838  28.373   1.297  0.00  0.00    -0.223 NA
ATOM      8  C   UNL     1      21.323  28.626   2.567  0.00  0.00    +0.220 A 
ATOM      9  N   UNL     1      21.136  27.739   3.616  0.00  0.00    -0.283 N 
ATOM     36  H   UNL     1      21.516  27.960   4.536  0.00  0.00    +0.155 HD
ATOM     37  N   UNL     1      21.994  29.770   2.815  0.00  0.00    -0.214 NA
BRANCH   4   3
ATOM      1  C   UNL     1      24.426  33.245   3.828  0.00  0.00    +0.020 A 
ATOM      2  C   UNL     1      23.715  32.035   3.485  0.00  0.00    +0.013 A 
ATOM      3  C   UNL     1      22.968  31.939   2.237  0.00  0.00    +0.019 A 
ATOM     38  C   UNL     1      22.961  33.093   1.352  0.00  0.00    +0.120 A 
ATOM     39  N   UNL     1      23.654  34.246   1.709  0.00  0.00    -0.263 NA
ATOM     40  C   UNL     1      24.375  34.351   2.908  0.00  0.00    +0.111 A 
ENDBRANCH   4   3
ENDBRANCH  10   9
BRANCH  12  13
ATOM     13  N   UNL     1      16.816  25.271   3.626  0.00  0.00    -0.281 N 
ATOM     14  C   UNL     1      15.849  24.992   2.675  0.00  0.00    +0.248 C 
ATOM     30  O   UNL     1      16.051  24.963   1.470  0.00  0.00    -0.270 OA
ATOM     31  H   UNL     1      16.477  25.455   4.570  0.00  0.00    +0.155 HD
BRANCH  14  15
ATOM     15  C   UNL     1      14.450  24.720   3.126  0.00  0.00    +0.037 A 
ATOM     16  C   UNL     1      14.046  23.390   3.589  0.00  0.00    +0.013 A 
ATOM     17  C   UNL     1      12.686  23.151   4.003  0.00  0.00    +0.005 A 
ATOM     18  C   UNL     1      11.720  24.246   3.957  0.00  0.00    -0.033 A 
ATOM     28  C   UNL     1      12.149  25.557   3.499  0.00  0.00    +0.005 A 
ATOM     29  C   UNL     1      13.481  25.795   3.091  0.00  0.00    +0.013 A 
BRANCH  18  19
ATOM     19  C   UNL     1      10.243  24.076   4.360  0.00  0.00    +0.119 C 
BRANCH  19  20
ATOM     20  N   UNL     1       9.400  25.307   4.403  0.00  0.00    -0.302 NA
ATOM     21  C   UNL     1       9.307  25.891   5.815  0.00  0.00    +0.066 C 
ATOM     22  C   UNL     1       8.440  27.192   5.838  0.00  0.00    -0.064 C 
ATOM     23  N   UNL     1       7.047  26.882   5.288  0.00  0.00    +0.379 N 
ATOM     24  C   UNL     1       6.211  28.089   5.361  0.00  0.00    -0.096 C 
ATOM     25  H   UNL     1       6.587  26.111   5.948  0.00  0.00    -0.082 HD
ATOM     26  C   UNL     1       7.130  26.299   3.884  0.00  0.00    -0.064 C 
ATOM     27  C   UNL     1       8.018  25.023   3.867  0.00  0.00    +0.066 C 
ENDBRANCH  19  20
ENDBRANCH  18  19
ENDBRANCH  14  15
ENDBRANCH  12  13
TORSDOF 6
ENDMDL
MODEL 4
REMARK VINA RESULT:      -7.6      2.183      2.953
REMARK  Name = C:\Users\Docking\Desktop\test protocol\1iep_ligandH.pdb
REMARK  8 active torsions:
REMARK  status: ('A' for Active; 'I' for Inactive)
REMARK    1  A    between atoms: _5  and  _11
REMARK    2  A    between atoms: _19  and  _21
REMARK    3  A    between atoms: _22  and  _66
REMARK    4  A    between atoms: _27  and  _30
REMARK    5  A    between atoms: _32  and  _33
REMARK    6  A    between atoms: _38  and  _43
REMARK    7  A    between atoms: _43  and  _46
REMARK    8  A    between atoms: _53  and  _55
REMARK                            x       y       z     vdW  Elec       q    Type
REMARK                         _______ _______ _______ _____ _____    ______ ____
ROOT
ATOM     10  C   UNL     1      20.890  25.525   4.281  0.00  0.00    +0.038 A 
ATOM     11  C   UNL     1      19.517  25.283   4.542  0.00  0.00    +0.047 A 
ATOM     12  C   UNL     1      18.991  23.929   4.605  0.00  0.00    +0.035 A 
ATOM     32  C   UNL     1      19.891  22.844   4.400  0.00  0.00    +0.024 A 
ATOM     33  C   UNL     1      21.290  23.071   4.132  0.00  0.00    +0.007 A 
ATOM     34  C   UNL     1      21.814  24.405   4.066  0.00  0.00    -0.029 A 
ATOM     35  C   UNL     1      23.321  24.590   3.769  0.00  0.00    +0.045 C 
ENDROOT
BRANCH  10   9
ATOM      4  C   UNL     1      21.735  29.625   1.932  0.00  0.00    +0.077 A 
ATOM      5  C   UNL     1      21.261  29.081   0.692  0.00  0.00    +0.048 A 
ATOM      6  C   UNL     1      20.815  27.740   0.700  0.00  0.00    +0.116 A 
ATOM      7  N   UNL     1      20.845  27.008   1.867  0.00  0.00    -0.223 NA
ATOM      8  C   UNL     1      21.310  27.562   3.045  0.00  0.00    +0.220 A 
ATOM      9  N   UNL     1      21.342  26.846   4.232  0.00  0.00    -0.283 N 
ATOM     36  H   UNL     1      21.699  27.288   5.078  0.00  0.00    +0.155 HD
ATOM     37  N   UNL     1      21.743  28.840   3.063  0.00  0.00    -0.214 NA
BRANCH   4   3
ATOM      1  C   UNL     1      22.828  33.051   3.470  0.00  0.00    +0.020 A 
ATOM      2  C   UNL     1      22.337  31.696   3.377  0.00  0.00    +0.013 A 
ATOM      3  C   UNL     1      22.236  31.027   2.085  0.00  0.00    +0.019 A 
ATOM     38  C   UNL     1      22.643  31.764   0.899  0.00  0.00    +0.120 A 
ATOM     39  N   UNL     1      23.111  33.069   1.019  0.00  0.00    -0.263 NA
ATOM     40  C   UNL     1      23.211  33.723   2.256  0.00  0.00    +0.111 A 
ENDBRANCH   4   3
ENDBRANCH  10   9
BRANCH  12  13
ATOM     13  N   UNL     1      17.605  23.622   4.859  0.00  0.00    -0.281 N 
ATOM     14  C   UNL     1      17.030  23.201   6.047  0.00  0.00    +0.248 C 
ATOM     30  O   UNL     1      17.659  22.816   7.021  0.00  0.00    -0.270 OA
ATOM     31  H   UNL     1      16.971  23.729   4.067  0.00  0.00    +0.155 HD
BRANCH  14  15
ATOM     15  C   UNL     1      15.540  23.191   6.164  0.00  0.00    +0.037 A 
ATOM     16  C   UNL     1      14.687  22.934   5.001  0.00  0.00    +0.013 A 
ATOM     17  C   UNL     1      13.252  22.948   5.138  0.00  0.00    +0.005 A 
ATOM     18  C   UNL     1      12.661  23.218   6.446  0.00  0.00    -0.033 A 
ATOM     28  C   UNL     1      13.530  23.465   7.585  0.00  0.00    +0.005 A 
ATOM     29  C   UNL     1      14.936  23.453   7.454  0.00  0.00    +0.013 A 
BRANCH  18  19
ATOM     19  C   UNL     1      11.139  23.273   6.680  0.00  0.00    +0.119 C 
BRANCH  19  20
ATOM     20  N   UNL     1      10.556  24.589   7.078  0.00  0.00    -0.302 NA
ATOM     21  C   UNL     1       9.607  24.460   8.273  0.00  0.00    +0.066 C 
ATOM     22  C   UNL     1       9.024  25.849   8.690  0.00  0.00    -0.064 C 
ATOM     23  N   UNL     1       8.306  26.477   7.494  0.00  0.00    +0.379 N 
ATOM     24  C   UNL     1       7.706  27.757   7.898  0.00  0.00    -0.096 C 
ATOM     25  H   UNL     1       7.476  25.792   7.200  0.00  0.00    -0.082 HD
ATOM     26  C   UNL     1       9.241  26.607   6.300  0.00  0.00    -0.064 C 
ATOM     27  C   UNL     1       9.838  25.225   5.913  0.00  0.00    +0.066 C 
ENDBRANCH  19  20
ENDBRANCH  18  19
ENDBRANCH  14  15
ENDBRANCH  12  13
TORSDOF 6
ENDMDL
MODEL 5
REMARK VINA RESULT:      -7.6      8.621     11.195
REMARK  Name = C:\Users\Docking\Desktop\test protocol\1iep_ligandH.pdb
REMARK  8 active torsions:
REMARK  status: ('A' for Active; 'I' for Inactive)
REMARK    1  A    between atoms: _5  and  _11
REMARK    2  A    between atoms: _19  and  _21
REMARK    3  A    between atoms: _22  and  _66
REMARK    4  A    between atoms: _27  and  _30
REMARK    5  A    between atoms: _32  and  _33
REMARK    6  A    between atoms: _38  and  _43
REMARK    7  A    between atoms: _43  and  _46
REMARK    8  A    between atoms: _53  and  _55
REMARK                            x       y       z     vdW  Elec       q    Type
REMARK                         _______ _______ _______ _____ _____    ______ ____
ROOT
ATOM     10  C   UNL     1       9.493  25.217   8.898  0.00  0.00    +0.038 A 
ATOM     11  C   UNL     1       8.966  23.944   9.233  0.00  0.00    +0.047 A 
ATOM     12  C   UNL     1       9.396  23.244  10.434  0.00  0.00    +0.035 A 
ATOM     32  C   UNL     1      10.362  23.872  11.273  0.00  0.00    +0.024 A 
ATOM     33  C   UNL     1      10.909  25.165  10.947  0.00  0.00    +0.007 A 
ATOM     34  C   UNL     1      10.491  25.859   9.762  0.00  0.00    -0.029 A 
ATOM     35  C   UNL     1      11.116  27.241   9.459  0.00  0.00    +0.045 C 
ENDROOT
BRANCH  10   9
ATOM      4  C   UNL     1       9.877  26.233   4.223  0.00  0.00    +0.077 A 
ATOM      5  C   UNL     1      11.086  25.472   4.096  0.00  0.00    +0.048 A 
ATOM      6  C   UNL     1      11.581  24.840   5.260  0.00  0.00    +0.116 A 
ATOM      7  N   UNL     1      10.907  24.967   6.455  0.00  0.00    -0.223 NA
ATOM      8  C   UNL     1       9.744  25.710   6.543  0.00  0.00    +0.220 A 
ATOM      9  N   UNL     1       9.045  25.844   7.733  0.00  0.00    -0.283 N 
ATOM     36  H   UNL     1       8.195  26.406   7.758  0.00  0.00    +0.155 HD
ATOM     37  N   UNL     1       9.252  26.323   5.447  0.00  0.00    -0.214 NA
BRANCH   4   3
ATOM      1  C   UNL     1       8.808  27.333   0.625  0.00  0.00    +0.020 A 
ATOM      2  C   UNL     1       9.460  26.604   1.688  0.00  0.00    +0.013 A 
ATOM      3  C   UNL     1       9.228  26.955   3.083  0.00  0.00    +0.019 A 
ATOM     38  C   UNL     1       8.323  28.057   3.371  0.00  0.00    +0.120 A 
ATOM     39  N   UNL     1       7.710  28.743   2.327  0.00  0.00    -0.263 NA
ATOM     40  C   UNL     1       7.927  28.415   0.980  0.00  0.00    +0.111 A 
ENDBRANCH   4   3
ENDBRANCH  10   9
BRANCH  12  13
ATOM     13  N   UNL     1       8.902  21.946  10.822  0.00  0.00    -0.281 N 
ATOM     14  C   UNL     1       9.342  20.704  10.392  0.00  0.00    +0.248 C 
ATOM     30  O   UNL     1      10.090  20.527   9.443  0.00  0.00    -0.270 OA
ATOM     31  H   UNL     1       8.134  21.942  11.494  0.00  0.00    +0.155 HD
BRANCH  14  15
ATOM     15  C   UNL     1       8.872  19.483  11.114  0.00  0.00    +0.037 A 
ATOM     16  C   UNL     1       9.497  19.052  12.367  0.00  0.00    +0.013 A 
ATOM     17  C   UNL     1       9.036  17.860  13.033  0.00  0.00    +0.005 A 
ATOM     18  C   UNL     1       7.940  17.091  12.448  0.00  0.00    -0.033 A 
ATOM     28  C   UNL     1       7.334  17.544  11.207  0.00  0.00    +0.005 A 
ATOM     29  C   UNL     1       7.785  18.711  10.550  0.00  0.00    +0.013 A 
BRANCH  18  19
ATOM     19  C   UNL     1       7.397  15.795  13.079  0.00  0.00    +0.119 C 
BRANCH  19  20
ATOM     20  N   UNL     1       6.044  15.855  13.707  0.00  0.00    -0.302 NA
ATOM     21  C   UNL     1       4.924  15.723  12.671  0.00  0.00    +0.066 C 
ATOM     22  C   UNL     1       3.515  15.765  13.348  0.00  0.00    -0.064 C 
ATOM     23  N   UNL     1       3.370  17.067  14.138  0.00  0.00    +0.379 N 
ATOM     24  C   UNL     1       2.025  17.136  14.727  0.00  0.00    -0.096 C 
ATOM     25  H   UNL     1       3.468  17.912  13.417  0.00  0.00    -0.082 HD
ATOM     26  C   UNL     1       4.482  17.208  15.168  0.00  0.00    -0.064 C 
ATOM     27  C   UNL     1       5.878  17.135  14.489  0.00  0.00    +0.066 C 
ENDBRANCH  19  20
ENDBRANCH  18  19
ENDBRANCH  14  15
ENDBRANCH  12  13
TORSDOF 6
ENDMDL
