MODEL 1
REMARK VINA RESULT:      -8.9      0.000      0.000
REMARK  Name = C:\Users\Docking\Desktop\test protocol\1iep_ligandH.pdb
REMARK  8 active torsions:
REMARK  status: ('A' for Active; 'I' for Inactive)
REMARK    1  A    between atoms: _5  and  _11
REMARK    2  A    between atoms: _19  and  _21
REMARK    3  A    between atoms: _22  and  _66
REMARK    4  A    between atoms: _27  and  _30
REMARK    5  A    between atoms: _32  and  _33
REMARK    6  A    between atoms: _38  and  _43
REMARK    7  A    between atoms: _43  and  _46
REMARK    8  A    between atoms: _53  and  _55
REMARK                            x       y       z     vdW  Elec       q    Type
REMARK                         _______ _______ _______ _____ _____    ______ ____
ROOT
ATOM     10  C   UNL     1      -9.894  23.473  25.286  0.00  0.00    +0.038 A 
ATOM     11  C   UNL     1      -9.426  22.460  26.162  0.00  0.00    +0.047 A 
ATOM     12  C   UNL     1      -8.929  21.192  25.649  0.00  0.00    +0.035 A 
ATOM     32  C   UNL     1      -8.920  20.991  24.238  0.00  0.00    +0.024 A 
ATOM     33  C   UNL     1      -9.392  22.010  23.333  0.00  0.00    +0.007 A 
ATOM     34  C   UNL     1      -9.886  23.261  23.833  0.00  0.00    -0.029 A 
ATOM     35  C   UNL     1     -10.386  24.314  22.818  0.00  0.00    +0.045 C 
ENDROOT
BRANCH  10   9
ATOM      4  C   UNL     1     -13.404  26.599  26.256  0.00  0.00    +0.077 A 
ATOM      5  C   UNL     1     -14.388  25.790  25.595  0.00  0.00    +0.048 A 
ATOM      6  C   UNL     1     -13.948  24.581  25.012  0.00  0.00    +0.116 A 
ATOM      7  N   UNL     1     -12.621  24.217  25.091  0.00  0.00    -0.223 NA
ATOM      8  C   UNL     1     -11.698  25.020  25.734  0.00  0.00    +0.220 A 
ATOM      9  N   UNL     1     -10.360  24.670  25.833  0.00  0.00    -0.283 N 
ATOM     36  H   UNL     1      -9.710  25.294  26.309  0.00  0.00    +0.155 HD
ATOM     37  N   UNL     1     -12.093  26.181  26.298  0.00  0.00    -0.214 NA
BRANCH   4   3
ATOM      1  C   UNL     1     -14.686  30.230  26.939  0.00  0.00    +0.020 A 
ATOM      2  C   UNL     1     -14.411  28.991  26.249  0.00  0.00    +0.013 A 
ATOM      3  C   UNL     1     -13.715  27.902  26.923  0.00  0.00    +0.019 A 
ATOM     38  C   UNL     1     -13.309  28.100  28.307  0.00  0.00    +0.120 A 
ATOM     39  N   UNL     1     -13.587  29.305  28.945  0.00  0.00    -0.263 NA
ATOM     40  C   UNL     1     -14.255  30.361  28.306  0.00  0.00    +0.111 A 
ENDBRANCH   4   3
ENDBRANCH  10   9
BRANCH  12  13
ATOM     13  N   UNL     1      -8.449  20.124  26.490  0.00  0.00    -0.281 N 
ATOM     14  C   UNL     1      -7.162  19.618  26.574  0.00  0.00    +0.248 C 
ATOM     30  O   UNL     1      -6.269  19.867  25.778  0.00  0.00    -0.270 OA
ATOM     31  H   UNL     1      -9.143  19.687  27.098  0.00  0.00    +0.155 HD
BRANCH  14  15
ATOM     15  C   UNL     1      -6.823  18.690  27.695  0.00  0.00    +0.037 A 
ATOM     16  C   UNL     1      -7.858  18.171  28.592  0.00  0.00    +0.013 A 
ATOM     17  C   UNL     1      -7.501  17.291  29.676  0.00  0.00    +0.005 A 
ATOM     18  C   UNL     1      -6.100  16.923  29.868  0.00  0.00    -0.033 A 
ATOM     28  C   UNL     1      -5.094  17.449  28.961  0.00  0.00    +0.005 A 
ATOM     29  C   UNL     1      -5.440  18.313  27.897  0.00  0.00    +0.013 A 
BRANCH  18  19
ATOM     19  C   UNL     1      -5.625  16.007  31.011  0.00  0.00    +0.119 C 
BRANCH  19  20
ATOM     20  N   UNL     1      -5.756  14.534  30.806  0.00  0.00    -0.302 NA
ATOM     21  C   UNL     1      -5.517  13.750  32.100  0.00  0.00    +0.066 C 
ATOM     22  C   UNL     1      -5.681  12.212  31.872  0.00  0.00    -0.064 C 
ATOM     23  N   UNL     1      -4.715  11.756  30.776  0.00  0.00    +0.379 N 
ATOM     24  C   UNL     1      -4.825  10.301  30.600  0.00  0.00    -0.096 C 
ATOM     25  H   UNL     1      -3.679  11.978  31.125  0.00  0.00    -0.082 HD
ATOM     26  C   UNL     1      -4.943  12.532  29.487  0.00  0.00    -0.064 C 
ATOM     27  C   UNL     1      -4.808  14.061  29.731  0.00  0.00    +0.066 C 
ENDBRANCH  19  20
ENDBRANCH  18  19
ENDBRANCH  14  15
ENDBRANCH  12  13
TORSDOF 6
ENDMDL
MODEL 2
REMARK VINA RESULT:      -8.7      5.876     14.057
REMARK  Name = C:\Users\Docking\Desktop\test protocol\1iep_ligandH.pdb
REMARK  8 active torsions:
REMARK  status: ('A' for Active; 'I' for Inactive)
REMARK    1  A    between atoms: _5  and  _11
REMARK    2  A    between atoms: _19  and  _21
REMARK    3  A    between atoms: _22  and  _66
REMARK    4  A    between atoms: _27  and  _30
REMARK    5  A    between atoms: _32  and  _33
REMARK    6  A    between atoms: _38  and  _43
REMARK    7  A    between atoms: _43  and  _46
REMARK    8  A    between atoms: _53  and  _55
REMARK                            x       y       z     vdW  Elec       q    Type
REMARK                         _______ _______ _______ _____ _____    ______ ____
ROOT
ATOM     10  C   UNL     1     -12.547  24.253  23.654  0.00  0.00    +0.038 A 
ATOM     11  C   UNL     1     -12.671  25.487  24.343  0.00  0.00    +0.047 A 
ATOM     12  C   UNL     1     -13.939  25.900  24.923  0.00  0.00    +0.035 A 
ATOM     32  C   UNL     1     -15.061  25.031  24.785  0.00  0.00    +0.024 A 
ATOM     33  C   UNL     1     -14.952  23.774  24.087  0.00  0.00    +0.007 A 
ATOM     34  C   UNL     1     -13.704  23.362  23.511  0.00  0.00    -0.029 A 
ATOM     35  C   UNL     1     -13.648  22.007  22.768  0.00  0.00    +0.045 C 
ENDROOT
BRANCH  10   9
ATOM      4  C   UNL     1      -8.266  22.100  23.934  0.00  0.00    +0.077 A 
ATOM      5  C   UNL     1      -8.513  21.652  25.274  0.00  0.00    +0.048 A 
ATOM      6  C   UNL     1      -9.751  22.002  25.858  0.00  0.00    +0.116 A 
ATOM      7  N   UNL     1     -10.667  22.746  25.145  0.00  0.00    -0.223 NA
ATOM      8  C   UNL     1     -10.396  23.164  23.855  0.00  0.00    +0.220 A 
ATOM      9  N   UNL     1     -11.305  23.906  23.117  0.00  0.00    -0.283 N 
ATOM     36  H   UNL     1     -11.065  24.201  22.171  0.00  0.00    +0.155 HD
ATOM     37  N   UNL     1      -9.220  22.843  23.276  0.00  0.00    -0.214 NA
BRANCH   4   3
ATOM      1  C   UNL     1      -5.451  22.116  21.218  0.00  0.00    +0.020 A 
ATOM      2  C   UNL     1      -6.682  22.434  21.905  0.00  0.00    +0.013 A 
ATOM      3  C   UNL     1      -7.006  21.807  23.181  0.00  0.00    +0.019 A 
ATOM     38  C   UNL     1      -6.056  20.857  23.738  0.00  0.00    +0.120 A 
ATOM     39  N   UNL     1      -4.879  20.569  23.053  0.00  0.00    -0.263 NA
ATOM     40  C   UNL     1      -4.557  21.165  21.824  0.00  0.00    +0.111 A 
ENDBRANCH   4   3
ENDBRANCH  10   9
BRANCH  12  13
ATOM     13  N   UNL     1     -14.128  27.145  25.626  0.00  0.00    -0.281 N 
ATOM     14  C   UNL     1     -13.582  27.528  26.840  0.00  0.00    +0.248 C 
ATOM     30  O   UNL     1     -13.014  26.771  27.612  0.00  0.00    -0.270 OA
ATOM     31  H   UNL     1     -14.738  27.826  25.174  0.00  0.00    +0.155 HD
BRANCH  14  15
ATOM     15  C   UNL     1     -13.695  28.957  27.263  0.00  0.00    +0.037 A 
ATOM     16  C   UNL     1     -12.993  29.457  28.448  0.00  0.00    +0.013 A 
ATOM     17  C   UNL     1     -13.132  30.835  28.844  0.00  0.00    +0.005 A 
ATOM     18  C   UNL     1     -13.978  31.726  28.052  0.00  0.00    -0.033 A 
ATOM     28  C   UNL     1     -14.658  31.206  26.878  0.00  0.00    +0.005 A 
ATOM     29  C   UNL     1     -14.524  29.854  26.488  0.00  0.00    +0.013 A 
BRANCH  18  19
ATOM     19  C   UNL     1     -14.201  33.206  28.413  0.00  0.00    +0.119 C 
BRANCH  19  20
ATOM     20  N   UNL     1     -14.277  33.553  29.864  0.00  0.00    -0.302 NA
ATOM     21  C   UNL     1     -15.597  34.242  30.221  0.00  0.00    +0.066 C 
ATOM     22  C   UNL     1     -15.669  34.577  31.747  0.00  0.00    -0.064 C 
ATOM     23  N   UNL     1     -14.478  35.457  32.129  0.00  0.00    +0.379 N 
ATOM     24  C   UNL     1     -14.574  35.822  33.550  0.00  0.00    -0.096 C 
ATOM     25  H   UNL     1     -14.546  36.397  31.533  0.00  0.00    -0.082 HD
ATOM     26  C   UNL     1     -13.161  34.781  31.775  0.00  0.00    -0.064 C 
ATOM     27  C   UNL     1     -13.112  34.425  30.262  0.00  0.00    +0.066 C 
ENDBRANCH  19  20
ENDBRANCH  18  19
ENDBRANCH  14  15
ENDBRANCH  12  13
TORSDOF 6
ENDMDL
MODEL 3
REMARK VINA RESULT:      -8.6      4.334     13.982
REMARK  Name = C:\Users\Docking\Desktop\test protocol\1iep_ligandH.pdb
REMARK  8 active torsions:
REMARK  status: ('A' for Active; 'I' for Inactive)
REMARK    1  A    between atoms: _5  and  _11
REMARK    2  A    between atoms: _19  and  _21
REMARK    3  A    between atoms: _22  and  _66
REMARK    4  A    between atoms: _27  and  _30
REMARK    5  A    between atoms: _32  and  _33
REMARK    6  A    between atoms: _38  and  _43
REMARK    7  A    between atoms: _43  and  _46
REMARK    8  A    between atoms: _53  and  _55
REMARK                            x       y       z     vdW  Elec       q    Type
REMARK                         _______ _______ _______ _____ _____    ______ ____
ROOT
ATOM     10  C   UNL     1     -12.909  23.869  24.815  0.00  0.00    +0.038 A 
ATOM     11  C   UNL     1     -13.053  25.050  25.586  0.00  0.00    +0.047 A 
ATOM     12  C   UNL     1     -14.025  26.071  25.227  0.00  0.00    +0.035 A 
ATOM     32  C   UNL     1     -14.838  25.853  24.076  0.00  0.00    +0.024 A 
ATOM     33  C   UNL     1     -14.705  24.658  23.280  0.00  0.00    +0.007 A 
ATOM     34  C   UNL     1     -13.745  23.650  23.629  0.00  0.00    -0.029 A 
ATOM     35  C   UNL     1     -13.641  22.392  22.735  0.00  0.00    +0.045 C 
ENDROOT
BRANCH  10   9
ATOM      4  C   UNL     1      -8.485  22.012  24.693  0.00  0.00    +0.077 A 
ATOM      5  C   UNL     1      -8.035  22.995  23.750  0.00  0.00    +0.048 A 
ATOM      6  C   UNL     1      -8.975  23.956  23.316  0.00  0.00    +0.116 A 
ATOM      7  N   UNL     1     -10.266  23.927  23.796  0.00  0.00    -0.223 NA
ATOM      8  C   UNL     1     -10.668  22.965  24.704  0.00  0.00    +0.220 A 
ATOM      9  N   UNL     1     -11.959  22.922  25.206  0.00  0.00    -0.283 N 
ATOM     36  H   UNL     1     -12.219  22.192  25.869  0.00  0.00    +0.155 HD
ATOM     37  N   UNL     1      -9.790  22.035  25.133  0.00  0.00    -0.214 NA
BRANCH   4   3
ATOM      1  C   UNL     1      -7.021  19.205  26.991  0.00  0.00    +0.020 A 
ATOM      2  C   UNL     1      -7.899  20.241  26.499  0.00  0.00    +0.013 A 
ATOM      3  C   UNL     1      -7.609  20.933  25.249  0.00  0.00    +0.019 A 
ATOM     38  C   UNL     1      -6.412  20.549  24.515  0.00  0.00    +0.120 A 
ATOM     39  N   UNL     1      -5.584  19.549  25.015  0.00  0.00    -0.263 NA
ATOM     40  C   UNL     1      -5.852  18.877  26.217  0.00  0.00    +0.111 A 
ENDBRANCH   4   3
ENDBRANCH  10   9
BRANCH  12  13
ATOM     13  N   UNL     1     -14.210  27.294  25.967  0.00  0.00    -0.281 N 
ATOM     14  C   UNL     1     -13.302  27.935  26.793  0.00  0.00    +0.248 C 
ATOM     30  O   UNL     1     -12.259  27.437  27.192  0.00  0.00    -0.270 OA
ATOM     31  H   UNL     1     -15.121  27.742  25.870  0.00  0.00    +0.155 HD
BRANCH  14  15
ATOM     15  C   UNL     1     -13.601  29.324  27.256  0.00  0.00    +0.037 A 
ATOM     16  C   UNL     1     -14.545  30.179  26.532  0.00  0.00    +0.013 A 
ATOM     17  C   UNL     1     -14.804  31.521  26.989  0.00  0.00    +0.005 A 
ATOM     18  C   UNL     1     -14.116  32.017  28.180  0.00  0.00    -0.033 A 
ATOM     28  C   UNL     1     -13.189  31.145  28.882  0.00  0.00    +0.005 A 
ATOM     29  C   UNL     1     -12.932  29.830  28.436  0.00  0.00    +0.013 A 
BRANCH  18  19
ATOM     19  C   UNL     1     -14.315  33.442  28.727  0.00  0.00    +0.119 C 
BRANCH  19  20
ATOM     20  N   UNL     1     -14.105  33.648  30.192  0.00  0.00    -0.302 NA
ATOM     21  C   UNL     1     -15.315  34.309  30.858  0.00  0.00    +0.066 C 
ATOM     22  C   UNL     1     -15.088  34.495  32.394  0.00  0.00    -0.064 C 
ATOM     23  N   UNL     1     -13.823  35.325  32.622  0.00  0.00    +0.379 N 
ATOM     24  C   UNL     1     -13.638  35.551  34.063  0.00  0.00    -0.096 C 
ATOM     25  H   UNL     1     -13.979  36.318  32.141  0.00  0.00    -0.082 HD
ATOM     26  C   UNL     1     -12.616  34.676  31.960  0.00  0.00    -0.064 C 
ATOM     27  C   UNL     1     -12.864  34.468  30.440  0.00  0.00    +0.066 C 
ENDBRANCH  19  20
ENDBRANCH  18  19
ENDBRANCH  14  15
ENDBRANCH  12  13
TORSDOF 6
ENDMDL
MODEL 4
REMARK VINA RESULT:      -8.6      3.662     13.995
REMARK  Name = C:\Users\Docking\Desktop\test protocol\1iep_ligandH.pdb
REMARK  8 active torsions:
REMARK  status: ('A' for Active; 'I' for Inactive)
REMARK    1  A    between atoms: _5  and  _11
REMARK    2  A    between atoms: _19  and  _21
REMARK    3  A    between atoms: _22  and  _66
REMARK    4  A    between atoms: _27  and  _30
REMARK    5  A    between atoms: _32  and  _33
REMARK    6  A    between atoms: _38  and  _43
REMARK    7  A    between atoms: _43  and  _46
REMARK    8  A    between atoms: _53  and  _55
REMARK                            x       y       z     vdW  Elec       q    Type
REMARK                         _______ _______ _______ _____ _____    ______ ____
ROOT
ATOM     10  C   UNL     1     -10.224  23.451  24.276  0.00  0.00    +0.038 A 
ATOM     11  C   UNL     1     -10.619  24.597  25.011  0.00  0.00    +0.047 A 
ATOM     12  C   UNL     1     -11.842  25.315  24.685  0.00  0.00    +0.035 A 
ATOM     32  C   UNL     1     -12.639  24.836  23.605  0.00  0.00    +0.024 A 
ATOM     33  C   UNL     1     -12.251  23.673  22.846  0.00  0.00    +0.007 A 
ATOM     34  C   UNL     1     -11.045  22.963  23.162  0.00  0.00    -0.029 A 
ATOM     35  C   UNL     1     -10.675  21.726  22.310  0.00  0.00    +0.045 C 
ENDROOT
BRANCH  10   9
ATOM      4  C   UNL     1      -7.839  19.762  26.211  0.00  0.00    +0.077 A 
ATOM      5  C   UNL     1      -9.054  19.087  26.567  0.00  0.00    +0.048 A 
ATOM      6  C   UNL     1     -10.271  19.726  26.240  0.00  0.00    +0.116 A 
ATOM      7  N   UNL     1     -10.262  20.949  25.605  0.00  0.00    -0.223 NA
ATOM      8  C   UNL     1      -9.073  21.574  25.278  0.00  0.00    +0.220 A 
ATOM      9  N   UNL     1      -9.040  22.800  24.632  0.00  0.00    -0.283 N 
ATOM     36  H   UNL     1      -8.142  23.232  24.414  0.00  0.00    +0.155 HD
ATOM     37  N   UNL     1      -7.897  20.985  25.580  0.00  0.00    -0.214 NA
BRANCH   4   3
ATOM      1  C   UNL     1      -4.833  17.893  27.874  0.00  0.00    +0.020 A 
ATOM      2  C   UNL     1      -6.168  18.399  27.655  0.00  0.00    +0.013 A 
ATOM      3  C   UNL     1      -6.474  19.213  26.486  0.00  0.00    +0.019 A 
ATOM     38  C   UNL     1      -5.397  19.499  25.549  0.00  0.00    +0.120 A 
ATOM     39  N   UNL     1      -4.121  18.999  25.787  0.00  0.00    -0.263 NA
ATOM     40  C   UNL     1      -3.814  18.216  26.910  0.00  0.00    +0.111 A 
ENDBRANCH   4   3
ENDBRANCH  10   9
BRANCH  12  13
ATOM     13  N   UNL     1     -12.290  26.490  25.391  0.00  0.00    -0.281 N 
ATOM     14  C   UNL     1     -12.821  26.565  26.669  0.00  0.00    +0.248 C 
ATOM     30  O   UNL     1     -13.190  25.600  27.321  0.00  0.00    -0.270 OA
ATOM     31  H   UNL     1     -12.206  27.373  24.888  0.00  0.00    +0.155 HD
BRANCH  14  15
ATOM     15  C   UNL     1     -12.977  27.907  27.308  0.00  0.00    +0.037 A 
ATOM     16  C   UNL     1     -13.245  28.039  28.743  0.00  0.00    +0.013 A 
ATOM     17  C   UNL     1     -13.408  29.344  29.331  0.00  0.00    +0.005 A 
ATOM     18  C   UNL     1     -13.302  30.530  28.484  0.00  0.00    -0.033 A 
ATOM     28  C   UNL     1     -13.031  30.371  27.065  0.00  0.00    +0.005 A 
ATOM     29  C   UNL     1     -12.871  29.092  26.484  0.00  0.00    +0.013 A 
BRANCH  18  19
ATOM     19  C   UNL     1     -13.483  31.962  29.022  0.00  0.00    +0.119 C 
BRANCH  19  20
ATOM     20  N   UNL     1     -14.820  32.600  28.831  0.00  0.00    -0.302 NA
ATOM     21  C   UNL     1     -14.996  33.152  27.414  0.00  0.00    +0.066 C 
ATOM     22  C   UNL     1     -16.408  33.796  27.225  0.00  0.00    -0.064 C 
ATOM     23  N   UNL     1     -16.604  34.901  28.264  0.00  0.00    +0.379 N 
ATOM     24  C   UNL     1     -17.908  35.547  28.053  0.00  0.00    -0.096 C 
ATOM     25  H   UNL     1     -15.814  35.668  28.095  0.00  0.00    -0.082 HD
ATOM     26  C   UNL     1     -16.428  34.361  29.677  0.00  0.00    -0.064 C 
ATOM     27  C   UNL     1     -15.033  33.697  29.845  0.00  0.00    +0.066 C 
ENDBRANCH  19  20
ENDBRANCH  18  19
ENDBRANCH  14  15
ENDBRANCH  12  13
TORSDOF 6
ENDMDL
MODEL 5
REMARK VINA RESULT:      -8.6      2.337      2.939
REMARK  Name = C:\Users\Docking\Desktop\test protocol\1iep_ligandH.pdb
REMARK  8 active torsions:
REMARK  status: ('A' for Active; 'I' for Inactive)
REMARK    1  A    between atoms: _5  and  _11
REMARK    2  A    between atoms: _19  and  _21
REMARK    3  A    between atoms: _22  and  _66
REMARK    4  A    between atoms: _27  and  _30
REMARK    5  A    between atoms: _32  and  _33
REMARK    6  A    between atoms: _38  and  _43
REMARK    7  A    between atoms: _43  and  _46
REMARK    8  A    between atoms: _53  and  _55
REMARK                            x       y       z     vdW  Elec       q    Type
REMARK                         _______ _______ _______ _____ _____    ______ ____
ROOT
ATOM     10  C   UNL     1      -9.970  23.514  25.093  0.00  0.00    +0.038 A 
ATOM     11  C   UNL     1      -9.791  22.369  25.909  0.00  0.00    +0.047 A 
ATOM     12  C   UNL     1      -9.337  21.107  25.346  0.00  0.00    +0.035 A 
ATOM     32  C   UNL     1      -9.073  21.048  23.946  0.00  0.00    +0.024 A 
ATOM     33  C   UNL     1      -9.251  22.203  23.102  0.00  0.00    +0.007 A 
ATOM     34  C   UNL     1      -9.700  23.450  23.652  0.00  0.00    -0.029 A 
ATOM     35  C   UNL     1      -9.880  24.653  22.698  0.00  0.00    +0.045 C 
ENDROOT
BRANCH  10   9
ATOM      4  C   UNL     1     -13.405  26.684  26.187  0.00  0.00    +0.077 A 
ATOM      5  C   UNL     1     -14.407  25.927  25.494  0.00  0.00    +0.048 A 
ATOM      6  C   UNL     1     -13.996  24.731  24.863  0.00  0.00    +0.116 A 
ATOM      7  N   UNL     1     -12.678  24.332  24.928  0.00  0.00    -0.223 NA
ATOM      8  C   UNL     1     -11.737  25.087  25.603  0.00  0.00    +0.220 A 
ATOM      9  N   UNL     1     -10.408  24.700  25.687  0.00  0.00    -0.283 N 
ATOM     36  H   UNL     1      -9.743  25.289  26.188  0.00  0.00    +0.155 HD
ATOM     37  N   UNL     1     -12.104  26.233  26.212  0.00  0.00    -0.214 NA
BRANCH   4   3
ATOM      1  C   UNL     1     -14.648  30.295  27.033  0.00  0.00    +0.020 A 
ATOM      2  C   UNL     1     -14.404  29.077  26.295  0.00  0.00    +0.013 A 
ATOM      3  C   UNL     1     -13.684  27.967  26.906  0.00  0.00    +0.019 A 
ATOM     38  C   UNL     1     -13.221  28.123  28.277  0.00  0.00    +0.120 A 
ATOM     39  N   UNL     1     -13.469  29.308  28.962  0.00  0.00    -0.263 NA
ATOM     40  C   UNL     1     -14.160  30.383  28.384  0.00  0.00    +0.111 A 
ENDBRANCH   4   3
ENDBRANCH  10   9
BRANCH  12  13
ATOM     13  N   UNL     1      -9.145  19.908  26.124  0.00  0.00    -0.281 N 
ATOM     14  C   UNL     1      -7.983  19.467  26.735  0.00  0.00    +0.248 C 
ATOM     30  O   UNL     1      -6.872  19.932  26.525  0.00  0.00    -0.270 OA
ATOM     31  H   UNL     1      -9.965  19.312  26.238  0.00  0.00    +0.155 HD
BRANCH  14  15
ATOM     15  C   UNL     1      -8.063  18.336  27.709  0.00  0.00    +0.037 A 
ATOM     16  C   UNL     1      -9.240  17.465  27.767  0.00  0.00    +0.013 A 
ATOM     17  C   UNL     1      -9.300  16.393  28.728  0.00  0.00    +0.005 A 
ATOM     18  C   UNL     1      -8.177  16.184  29.639  0.00  0.00    -0.033 A 
ATOM     28  C   UNL     1      -7.020  17.059  29.556  0.00  0.00    +0.005 A 
ATOM     29  C   UNL     1      -6.958  18.113  28.617  0.00  0.00    +0.013 A 
BRANCH  18  19
ATOM     19  C   UNL     1      -8.163  15.077  30.710  0.00  0.00    +0.119 C 
BRANCH  19  20
ATOM     20  N   UNL     1      -9.070  15.251  31.884  0.00  0.00    -0.302 NA
ATOM     21  C   UNL     1      -8.566  14.493  33.116  0.00  0.00    +0.066 C 
ATOM     22  C   UNL     1      -9.514  14.704  34.341  0.00  0.00    -0.064 C 
ATOM     23  N   UNL     1     -10.929  14.257  33.971  0.00  0.00    +0.379 N 
ATOM     24  C   UNL     1     -11.810  14.400  35.139  0.00  0.00    -0.096 C 
ATOM     25  H   UNL     1     -10.883  13.174  33.712  0.00  0.00    -0.082 HD
ATOM     26  C   UNL     1     -11.436  15.004  32.746  0.00  0.00    -0.064 C 
ATOM     27  C   UNL     1     -10.472  14.811  31.542  0.00  0.00    +0.066 C 
ENDBRANCH  19  20
ENDBRANCH  18  19
ENDBRANCH  14  15
ENDBRANCH  12  13
TORSDOF 6
ENDMDL
