MODEL 1
REMARK VINA RESULT:      -8.7      0.000      0.000
REMARK  Name = C:\Users\Docking\Desktop\test protocol\1iep_ligandH.pdb
REMARK  8 active torsions:
REMARK  status: ('A' for Active; 'I' for Inactive)
REMARK    1  A    between atoms: _5  and  _11
REMARK    2  A    between atoms: _19  and  _21
REMARK    3  A    between atoms: _22  and  _66
REMARK    4  A    between atoms: _27  and  _30
REMARK    5  A    between atoms: _32  and  _33
REMARK    6  A    between atoms: _38  and  _43
REMARK    7  A    between atoms: _43  and  _46
REMARK    8  A    between atoms: _53  and  _55
REMARK                            x       y       z     vdW  Elec       q    Type
REMARK                         _______ _______ _______ _____ _____    ______ ____
ROOT
ATOM     10  C   UNL     1      10.172  23.908  11.638  0.00  0.00    +0.038 A 
ATOM     11  C   UNL     1       9.697  22.858  10.811  0.00  0.00    +0.047 A 
ATOM     12  C   UNL     1       9.208  21.613  11.383  0.00  0.00    +0.035 A 
ATOM     32  C   UNL     1       9.215  21.471  12.801  0.00  0.00    +0.024 A 
ATOM     33  C   UNL     1       9.696  22.528  13.656  0.00  0.00    +0.007 A 
ATOM     34  C   UNL     1      10.181  23.758  13.098  0.00  0.00    -0.029 A 
ATOM     35  C   UNL     1      10.690  24.854  14.063  0.00  0.00    +0.045 C 
ENDROOT
BRANCH  10   9
ATOM      4  C   UNL     1      13.684  26.922  10.368  0.00  0.00    +0.077 A 
ATOM      5  C   UNL     1      14.690  26.102  10.979  0.00  0.00    +0.048 A 
ATOM      6  C   UNL     1      14.261  24.916  11.616  0.00  0.00    +0.116 A 
ATOM      7  N   UNL     1      12.923  24.585  11.634  0.00  0.00    -0.223 NA
ATOM      8  C   UNL     1      11.979  25.399  11.037  0.00  0.00    +0.220 A 
ATOM      9  N   UNL     1      10.629  25.082  11.036  0.00  0.00    -0.283 N 
ATOM     36  H   UNL     1       9.963  25.713  10.591  0.00  0.00    +0.155 HD
ATOM     37  N   UNL     1      12.363  26.538  10.423  0.00  0.00    -0.214 NA
BRANCH   4   3
ATOM      1  C   UNL     1      15.099  30.459   9.478  0.00  0.00    +0.020 A 
ATOM      2  C   UNL     1      14.845  29.239  10.209  0.00  0.00    +0.013 A 
ATOM      3  C   UNL     1      13.981  28.204   9.654  0.00  0.00    +0.019 A 
ATOM     38  C   UNL     1      13.385  28.437   8.347  0.00  0.00    +0.120 A 
ATOM     39  N   UNL     1      13.647  29.622   7.667  0.00  0.00    -0.263 NA
ATOM     40  C   UNL     1      14.476  30.626   8.191  0.00  0.00    +0.111 A 
ENDBRANCH   4   3
ENDBRANCH  10   9
BRANCH  12  13
ATOM     13  N   UNL     1       8.721  20.509  10.593  0.00  0.00    -0.281 N 
ATOM     14  C   UNL     1       7.429  20.015  10.526  0.00  0.00    +0.248 C 
ATOM     30  O   UNL     1       6.533  20.314  11.301  0.00  0.00    -0.270 OA
ATOM     31  H   UNL     1       9.413  20.034  10.013  0.00  0.00    +0.155 HD
BRANCH  14  15
ATOM     15  C   UNL     1       7.085  19.035   9.450  0.00  0.00    +0.037 A 
ATOM     16  C   UNL     1       8.098  18.139   8.887  0.00  0.00    +0.013 A 
ATOM     17  C   UNL     1       7.744  17.216   7.838  0.00  0.00    +0.005 A 
ATOM     18  C   UNL     1       6.368  17.183   7.347  0.00  0.00    -0.033 A 
ATOM     28  C   UNL     1       5.383  18.080   7.927  0.00  0.00    +0.005 A 
ATOM     29  C   UNL     1       5.726  18.987   8.954  0.00  0.00    +0.013 A 
BRANCH  18  19
ATOM     19  C   UNL     1       5.906  16.245   6.216  0.00  0.00    +0.119 C 
BRANCH  19  20
ATOM     20  N   UNL     1       5.284  14.948   6.616  0.00  0.00    -0.302 NA
ATOM     21  C   UNL     1       6.329  13.923   7.065  0.00  0.00    +0.066 C 
ATOM     22  C   UNL     1       5.659  12.580   7.501  0.00  0.00    -0.064 C 
ATOM     23  N   UNL     1       4.825  12.030   6.343  0.00  0.00    +0.379 N 
ATOM     24  C   UNL     1       4.240  10.737   6.729  0.00  0.00    -0.096 C 
ATOM     25  H   UNL     1       5.515  11.846   5.487  0.00  0.00    -0.082 HD
ATOM     26  C   UNL     1       3.785  13.043   5.888  0.00  0.00    -0.064 C 
ATOM     27  C   UNL     1       4.459  14.385   5.485  0.00  0.00    +0.066 C 
ENDBRANCH  19  20
ENDBRANCH  18  19
ENDBRANCH  14  15
ENDBRANCH  12  13
TORSDOF 6
ENDMDL
MODEL 2
REMARK VINA RESULT:      -8.3      2.874      3.639
REMARK  Name = C:\Users\Docking\Desktop\test protocol\1iep_ligandH.pdb
REMARK  8 active torsions:
REMARK  status: ('A' for Active; 'I' for Inactive)
REMARK    1  A    between atoms: _5  and  _11
REMARK    2  A    between atoms: _19  and  _21
REMARK    3  A    between atoms: _22  and  _66
REMARK    4  A    between atoms: _27  and  _30
REMARK    5  A    between atoms: _32  and  _33
REMARK    6  A    between atoms: _38  and  _43
REMARK    7  A    between atoms: _43  and  _46
REMARK    8  A    between atoms: _53  and  _55
REMARK                            x       y       z     vdW  Elec       q    Type
REMARK                         _______ _______ _______ _____ _____    ______ ____
ROOT
ATOM     10  C   UNL     1      10.394  23.945  11.550  0.00  0.00    +0.038 A 
ATOM     11  C   UNL     1      10.369  22.803  10.709  0.00  0.00    +0.047 A 
ATOM     12  C   UNL     1       9.995  21.496  11.226  0.00  0.00    +0.035 A 
ATOM     32  C   UNL     1       9.651  21.387  12.605  0.00  0.00    +0.024 A 
ATOM     33  C   UNL     1       9.673  22.537  13.475  0.00  0.00    +0.007 A 
ATOM     34  C   UNL     1      10.043  23.829  12.971  0.00  0.00    -0.029 A 
ATOM     35  C   UNL     1      10.055  25.026  13.950  0.00  0.00    +0.045 C 
ENDROOT
BRANCH  10   9
ATOM      4  C   UNL     1      13.673  27.241  10.359  0.00  0.00    +0.077 A 
ATOM      5  C   UNL     1      14.745  26.457  10.901  0.00  0.00    +0.048 A 
ATOM      6  C   UNL     1      14.409  25.214  11.484  0.00  0.00    +0.116 A 
ATOM      7  N   UNL     1      13.096  24.797  11.516  0.00  0.00    -0.223 NA
ATOM      8  C   UNL     1      12.086  25.579  10.986  0.00  0.00    +0.220 A 
ATOM      9  N   UNL     1      10.760  25.176  11.001  0.00  0.00    -0.283 N 
ATOM     36  H   UNL     1      10.044  25.784  10.606  0.00  0.00    +0.155 HD
ATOM     37  N   UNL     1      12.381  26.770  10.425  0.00  0.00    -0.214 NA
BRANCH   4   3
ATOM      1  C   UNL     1      13.284  30.334   7.996  0.00  0.00    +0.020 A 
ATOM      2  C   UNL     1      13.055  29.037   8.589  0.00  0.00    +0.013 A 
ATOM      3  C   UNL     1      13.868  28.575   9.707  0.00  0.00    +0.019 A 
ATOM     38  C   UNL     1      14.912  29.457  10.206  0.00  0.00    +0.120 A 
ATOM     39  N   UNL     1      15.111  30.701   9.614  0.00  0.00    -0.263 NA
ATOM     40  C   UNL     1      14.336  31.155   8.536  0.00  0.00    +0.111 A 
ENDBRANCH   4   3
ENDBRANCH  10   9
BRANCH  12  13
ATOM     13  N   UNL     1       9.959  20.299  10.422  0.00  0.00    -0.281 N 
ATOM     14  C   UNL     1       8.888  19.446  10.213  0.00  0.00    +0.248 C 
ATOM     30  O   UNL     1       7.852  19.465  10.861  0.00  0.00    -0.270 OA
ATOM     31  H   UNL     1      10.829  20.052   9.949  0.00  0.00    +0.155 HD
BRANCH  14  15
ATOM     15  C   UNL     1       8.988  18.412   9.138  0.00  0.00    +0.037 A 
ATOM     16  C   UNL     1      10.280  17.838   8.753  0.00  0.00    +0.013 A 
ATOM     17  C   UNL     1      10.350  16.855   7.702  0.00  0.00    +0.005 A 
ATOM     18  C   UNL     1       9.123  16.438   7.028  0.00  0.00    -0.033 A 
ATOM     28  C   UNL     1       7.854  17.020   7.433  0.00  0.00    +0.005 A 
ATOM     29  C   UNL     1       7.781  17.984   8.463  0.00  0.00    +0.013 A 
BRANCH  18  19
ATOM     19  C   UNL     1       9.106  15.410   5.881  0.00  0.00    +0.119 C 
BRANCH  19  20
ATOM     20  N   UNL     1       9.843  15.767   4.632  0.00  0.00    -0.302 NA
ATOM     21  C   UNL     1       8.914  15.834   3.416  0.00  0.00    +0.066 C 
ATOM     22  C   UNL     1       9.697  16.231   2.123  0.00  0.00    -0.064 C 
ATOM     23  N   UNL     1      10.827  15.228   1.886  0.00  0.00    +0.379 N 
ATOM     24  C   UNL     1      11.529  15.565   0.639  0.00  0.00    -0.096 C 
ATOM     25  H   UNL     1      10.364  14.223   1.753  0.00  0.00    -0.082 HD
ATOM     26  C   UNL     1      11.754  15.153   3.091  0.00  0.00    -0.064 C 
ATOM     27  C   UNL     1      10.961  14.787   4.377  0.00  0.00    +0.066 C 
ENDBRANCH  19  20
ENDBRANCH  18  19
ENDBRANCH  14  15
ENDBRANCH  12  13
TORSDOF 6
ENDMDL
MODEL 3
REMARK VINA RESULT:      -8.2      1.530      1.952
REMARK  Name = C:\Users\Docking\Desktop\test protocol\1iep_ligandH.pdb
REMARK  8 active torsions:
REMARK  status: ('A' for Active; 'I' for Inactive)
REMARK    1  A    between atoms: _5  and  _11
REMARK    2  A    between atoms: _19  and  _21
REMARK    3  A    between atoms: _22  and  _66
REMARK    4  A    between atoms: _27  and  _30
REMARK    5  A    between atoms: _32  and  _33
REMARK    6  A    between atoms: _38  and  _43
REMARK    7  A    between atoms: _43  and  _46
REMARK    8  A    between atoms: _53  and  _55
REMARK                            x       y       z     vdW  Elec       q    Type
REMARK                         _______ _______ _______ _____ _____    ______ ____
ROOT
ATOM     10  C   UNL     1      10.191  23.918  11.437  0.00  0.00    +0.038 A 
ATOM     11  C   UNL     1      10.104  22.797  10.573  0.00  0.00    +0.047 A 
ATOM     12  C   UNL     1       9.674  21.498  11.066  0.00  0.00    +0.035 A 
ATOM     32  C   UNL     1       9.338  21.377  12.446  0.00  0.00    +0.024 A 
ATOM     33  C   UNL     1       9.422  22.506  13.339  0.00  0.00    +0.007 A 
ATOM     34  C   UNL     1       9.847  23.789  12.858  0.00  0.00    -0.029 A 
ATOM     35  C   UNL     1       9.924  24.963  13.862  0.00  0.00    +0.045 C 
ENDROOT
BRANCH  10   9
ATOM      4  C   UNL     1      13.600  27.126  10.375  0.00  0.00    +0.077 A 
ATOM      5  C   UNL     1      14.631  26.306  10.943  0.00  0.00    +0.048 A 
ATOM      6  C   UNL     1      14.241  25.069  11.504  0.00  0.00    +0.116 A 
ATOM      7  N   UNL     1      12.916  24.691  11.493  0.00  0.00    -0.223 NA
ATOM      8  C   UNL     1      11.946  25.506  10.939  0.00  0.00    +0.220 A 
ATOM      9  N   UNL     1      10.609  25.142  10.910  0.00  0.00    -0.283 N 
ATOM     36  H   UNL     1       9.923  25.774  10.499  0.00  0.00    +0.155 HD
ATOM     37  N   UNL     1      12.293  26.692  10.398  0.00  0.00    -0.214 NA
BRANCH   4   3
ATOM      1  C   UNL     1      13.308  30.293   8.098  0.00  0.00    +0.020 A 
ATOM      2  C   UNL     1      13.019  29.001   8.676  0.00  0.00    +0.013 A 
ATOM      3  C   UNL     1      13.854  28.458   9.741  0.00  0.00    +0.019 A 
ATOM     38  C   UNL     1      14.980  29.255  10.203  0.00  0.00    +0.120 A 
ATOM     39  N   UNL     1      15.234  30.496   9.626  0.00  0.00    -0.263 NA
ATOM     40  C   UNL     1      14.440  31.027   8.600  0.00  0.00    +0.111 A 
ENDBRANCH   4   3
ENDBRANCH  10   9
BRANCH  12  13
ATOM     13  N   UNL     1       9.575  20.322  10.238  0.00  0.00    -0.281 N 
ATOM     14  C   UNL     1      10.151  19.080  10.449  0.00  0.00    +0.248 C 
ATOM     30  O   UNL     1      11.020  18.853  11.278  0.00  0.00    -0.270 OA
ATOM     31  H   UNL     1       9.011  20.417   9.393  0.00  0.00    +0.155 HD
BRANCH  14  15
ATOM     15  C   UNL     1       9.709  17.926   9.607  0.00  0.00    +0.037 A 
ATOM     16  C   UNL     1      10.527  16.717   9.486  0.00  0.00    +0.013 A 
ATOM     17  C   UNL     1      10.085  15.626   8.654  0.00  0.00    +0.005 A 
ATOM     18  C   UNL     1       8.817  15.739   7.938  0.00  0.00    -0.033 A 
ATOM     28  C   UNL     1       8.023  16.948   8.081  0.00  0.00    +0.005 A 
ATOM     29  C   UNL     1       8.453  18.020   8.894  0.00  0.00    +0.013 A 
BRANCH  18  19
ATOM     19  C   UNL     1       8.277  14.633   7.012  0.00  0.00    +0.119 C 
BRANCH  19  20
ATOM     20  N   UNL     1       6.801  14.584   6.792  0.00  0.00    -0.302 NA
ATOM     21  C   UNL     1       6.121  13.543   7.685  0.00  0.00    +0.066 C 
ATOM     22  C   UNL     1       4.574  13.521   7.458  0.00  0.00    -0.064 C 
ATOM     23  N   UNL     1       4.282  13.244   5.983  0.00  0.00    +0.379 N 
ATOM     24  C   UNL     1       2.828  13.166   5.777  0.00  0.00    -0.096 C 
ATOM     25  H   UNL     1       4.713  12.246   5.734  0.00  0.00    -0.082 HD
ATOM     26  C   UNL     1       4.957  14.274   5.088  0.00  0.00    -0.064 C 
ATOM     27  C   UNL     1       6.489  14.307   5.342  0.00  0.00    +0.066 C 
ENDBRANCH  19  20
ENDBRANCH  18  19
ENDBRANCH  14  15
ENDBRANCH  12  13
TORSDOF 6
ENDMDL
MODEL 4
REMARK VINA RESULT:      -8.1      5.982     11.848
REMARK  Name = C:\Users\Docking\Desktop\test protocol\1iep_ligandH.pdb
REMARK  8 active torsions:
REMARK  status: ('A' for Active; 'I' for Inactive)
REMARK    1  A    between atoms: _5  and  _11
REMARK    2  A    between atoms: _19  and  _21
REMARK    3  A    between atoms: _22  and  _66
REMARK    4  A    between atoms: _27  and  _30
REMARK    5  A    between atoms: _32  and  _33
REMARK    6  A    between atoms: _38  and  _43
REMARK    7  A    between atoms: _43  and  _46
REMARK    8  A    between atoms: _53  and  _55
REMARK                            x       y       z     vdW  Elec       q    Type
REMARK                         _______ _______ _______ _____ _____    ______ ____
ROOT
ATOM     10  C   UNL     1      16.994  33.324   9.773  0.00  0.00    +0.038 A 
ATOM     11  C   UNL     1      16.461  32.063  10.144  0.00  0.00    +0.047 A 
ATOM     12  C   UNL     1      15.183  31.604   9.623  0.00  0.00    +0.035 A 
ATOM     32  C   UNL     1      14.474  32.455   8.725  0.00  0.00    +0.024 A 
ATOM     33  C   UNL     1      15.000  33.740   8.339  0.00  0.00    +0.007 A 
ATOM     34  C   UNL     1      16.260  34.199   8.851  0.00  0.00    -0.029 A 
ATOM     35  C   UNL     1      16.773  35.589   8.408  0.00  0.00    +0.045 C 
ENDROOT
BRANCH  10   9
ATOM      4  C   UNL     1      19.706  35.121  13.303  0.00  0.00    +0.077 A 
ATOM      5  C   UNL     1      18.568  35.324  14.153  0.00  0.00    +0.048 A 
ATOM      6  C   UNL     1      17.303  34.960  13.642  0.00  0.00    +0.116 A 
ATOM      7  N   UNL     1      17.194  34.432  12.374  0.00  0.00    -0.223 NA
ATOM      8  C   UNL     1      18.311  34.251  11.579  0.00  0.00    +0.220 A 
ATOM      9  N   UNL     1      18.226  33.715  10.303  0.00  0.00    -0.283 N 
ATOM     36  H   UNL     1      19.072  33.604   9.745  0.00  0.00    +0.155 HD
ATOM     37  N   UNL     1      19.531  34.593  12.043  0.00  0.00    -0.214 NA
BRANCH   4   3
ATOM      1  C   UNL     1      23.132  35.200  15.189  0.00  0.00    +0.020 A 
ATOM      2  C   UNL     1      21.774  34.844  14.847  0.00  0.00    +0.013 A 
ATOM      3  C   UNL     1      21.110  35.454  13.701  0.00  0.00    +0.019 A 
ATOM     38  C   UNL     1      21.854  36.427  12.916  0.00  0.00    +0.120 A 
ATOM     39  N   UNL     1      23.160  36.751  13.270  0.00  0.00    -0.263 NA
ATOM     40  C   UNL     1      23.808  36.172  14.371  0.00  0.00    +0.111 A 
ENDBRANCH   4   3
ENDBRANCH  10   9
BRANCH  12  13
ATOM     13  N   UNL     1      14.588  30.337   9.970  0.00  0.00    -0.281 N 
ATOM     14  C   UNL     1      14.724  29.125   9.314  0.00  0.00    +0.248 C 
ATOM     30  O   UNL     1      15.209  28.992   8.200  0.00  0.00    -0.270 OA
ATOM     31  H   UNL     1      13.995  30.334  10.800  0.00  0.00    +0.155 HD
BRANCH  14  15
ATOM     15  C   UNL     1      14.237  27.882   9.986  0.00  0.00    +0.037 A 
ATOM     16  C   UNL     1      12.822  27.502   9.948  0.00  0.00    +0.013 A 
ATOM     17  C   UNL     1      12.376  26.307  10.619  0.00  0.00    +0.005 A 
ATOM     18  C   UNL     1      13.348  25.481  11.333  0.00  0.00    -0.033 A 
ATOM     28  C   UNL     1      14.746  25.878  11.349  0.00  0.00    +0.005 A 
ATOM     29  C   UNL     1      15.186  27.050  10.694  0.00  0.00    +0.013 A 
BRANCH  18  19
ATOM     19  C   UNL     1      12.958  24.200  12.094  0.00  0.00    +0.119 C 
BRANCH  19  20
ATOM     20  N   UNL     1      11.520  23.798  12.064  0.00  0.00    -0.302 NA
ATOM     21  C   UNL     1      11.022  23.342  13.438  0.00  0.00    +0.066 C 
ATOM     22  C   UNL     1       9.510  22.946  13.393  0.00  0.00    -0.064 C 
ATOM     23  N   UNL     1       9.305  21.846  12.351  0.00  0.00    +0.379 N 
ATOM     24  C   UNL     1       7.894  21.430  12.347  0.00  0.00    -0.096 C 
ATOM     25  H   UNL     1       9.915  20.967  12.662  0.00  0.00    -0.082 HD
ATOM     26  C   UNL     1       9.800  22.290  10.981  0.00  0.00    -0.064 C 
ATOM     27  C   UNL     1      11.295  22.709  11.043  0.00  0.00    +0.066 C 
ENDBRANCH  19  20
ENDBRANCH  18  19
ENDBRANCH  14  15
ENDBRANCH  12  13
TORSDOF 6
ENDMDL
MODEL 5
REMARK VINA RESULT:      -8.1      4.889     12.594
REMARK  Name = C:\Users\Docking\Desktop\test protocol\1iep_ligandH.pdb
REMARK  8 active torsions:
REMARK  status: ('A' for Active; 'I' for Inactive)
REMARK    1  A    between atoms: _5  and  _11
REMARK    2  A    between atoms: _19  and  _21
REMARK    3  A    between atoms: _22  and  _66
REMARK    4  A    between atoms: _27  and  _30
REMARK    5  A    between atoms: _32  and  _33
REMARK    6  A    between atoms: _38  and  _43
REMARK    7  A    between atoms: _43  and  _46
REMARK    8  A    between atoms: _53  and  _55
REMARK                            x       y       z     vdW  Elec       q    Type
REMARK                         _______ _______ _______ _____ _____    ______ ____
ROOT
ATOM     10  C   UNL     1       8.315  15.402   5.652  0.00  0.00    +0.038 A 
ATOM     11  C   UNL     1       8.717  16.413   6.561  0.00  0.00    +0.047 A 
ATOM     12  C   UNL     1       7.740  17.151   7.346  0.00  0.00    +0.035 A 
ATOM     32  C   UNL     1       6.361  16.830   7.182  0.00  0.00    +0.024 A 
ATOM     33  C   UNL     1       5.934  15.806   6.261  0.00  0.00    +0.007 A 
ATOM     34  C   UNL     1       6.894  15.077   5.482  0.00  0.00    -0.029 A 
ATOM     35  C   UNL     1       6.380  13.994   4.505  0.00  0.00    +0.045 C 
ENDROOT
BRANCH  10   9
ATOM      4  C   UNL     1      11.260  14.990   1.884  0.00  0.00    +0.077 A 
ATOM      5  C   UNL     1      10.785  16.213   1.304  0.00  0.00    +0.048 A 
ATOM      6  C   UNL     1       9.777  16.914   2.003  0.00  0.00    +0.116 A 
ATOM      7  N   UNL     1       9.289  16.420   3.193  0.00  0.00    -0.223 NA
ATOM      8  C   UNL     1       9.768  15.237   3.724  0.00  0.00    +0.220 A 
ATOM      9  N   UNL     1       9.296  14.725   4.923  0.00  0.00    -0.283 N 
ATOM     36  H   UNL     1       9.670  13.845   5.278  0.00  0.00    +0.155 HD
ATOM     37  N   UNL     1      10.729  14.548   3.075  0.00  0.00    -0.214 NA
BRANCH   4   3
ATOM      1  C   UNL     1      13.714  13.364  -0.693  0.00  0.00    +0.020 A 
ATOM      2  C   UNL     1      12.677  14.210  -0.146  0.00  0.00    +0.013 A 
ATOM      3  C   UNL     1      12.325  14.138   1.266  0.00  0.00    +0.019 A 
ATOM     38  C   UNL     1      13.046  13.193   2.105  0.00  0.00    +0.120 A 
ATOM     39  N   UNL     1      14.039  12.390   1.551  0.00  0.00    -0.263 NA
ATOM     40  C   UNL     1      14.385  12.450   0.193  0.00  0.00    +0.111 A 
ENDBRANCH   4   3
ENDBRANCH  10   9
BRANCH  12  13
ATOM     13  N   UNL     1       8.088  18.193   8.280  0.00  0.00    -0.281 N 
ATOM     14  C   UNL     1       8.204  18.100   9.657  0.00  0.00    +0.248 C 
ATOM     30  O   UNL     1       7.816  17.149  10.320  0.00  0.00    -0.270 OA
ATOM     31  H   UNL     1       8.270  19.112   7.876  0.00  0.00    +0.155 HD
BRANCH  14  15
ATOM     15  C   UNL     1       8.829  19.231  10.407  0.00  0.00    +0.037 A 
ATOM     16  C   UNL     1      10.276  19.289  10.628  0.00  0.00    +0.013 A 
ATOM     17  C   UNL     1      10.851  20.383  11.370  0.00  0.00    +0.005 A 
ATOM     18  C   UNL     1       9.978  21.430  11.896  0.00  0.00    -0.033 A 
ATOM     28  C   UNL     1       8.546  21.350  11.658  0.00  0.00    +0.005 A 
ATOM     29  C   UNL     1       7.979  20.278  10.932  0.00  0.00    +0.013 A 
BRANCH  18  19
ATOM     19  C   UNL     1      10.502  22.623  12.717  0.00  0.00    +0.119 C 
BRANCH  19  20
ATOM     20  N   UNL     1      11.546  23.482  12.083  0.00  0.00    -0.302 NA
ATOM     21  C   UNL     1      11.632  24.861  12.743  0.00  0.00    +0.066 C 
ATOM     22  C   UNL     1      12.745  25.739  12.084  0.00  0.00    -0.064 C 
ATOM     23  N   UNL     1      12.464  25.872  10.586  0.00  0.00    +0.379 N 
ATOM     24  C   UNL     1      13.476  26.745   9.973  0.00  0.00    -0.096 C 
ATOM     25  H   UNL     1      11.473  26.370  10.470  0.00  0.00    -0.082 HD
ATOM     26  C   UNL     1      12.374  24.506   9.922  0.00  0.00    -0.064 C 
ATOM     27  C   UNL     1      11.286  23.630  10.605  0.00  0.00    +0.066 C 
ENDBRANCH  19  20
ENDBRANCH  18  19
ENDBRANCH  14  15
ENDBRANCH  12  13
TORSDOF 6
ENDMDL
