MODEL 1
REMARK VINA RESULT:      -7.9      0.000      0.000
REMARK  Name = C:\Users\Docking\Desktop\test protocol\1iep_ligandH.pdb
REMARK  8 active torsions:
REMARK  status: ('A' for Active; 'I' for Inactive)
REMARK    1  A    between atoms: _5  and  _11
REMARK    2  A    between atoms: _19  and  _21
REMARK    3  A    between atoms: _22  and  _66
REMARK    4  A    between atoms: _27  and  _30
REMARK    5  A    between atoms: _32  and  _33
REMARK    6  A    between atoms: _38  and  _43
REMARK    7  A    between atoms: _43  and  _46
REMARK    8  A    between atoms: _53  and  _55
REMARK                            x       y       z     vdW  Elec       q    Type
REMARK                         _______ _______ _______ _____ _____    ______ ____
ROOT
ATOM     10  C   UNL     1       3.310   5.054  19.070  0.00  0.00    +0.038 A 
ATOM     11  C   UNL     1       4.060   5.666  20.106  0.00  0.00    +0.047 A 
ATOM     12  C   UNL     1       3.404   6.241  21.271  0.00  0.00    +0.035 A 
ATOM     32  C   UNL     1       1.983   6.171  21.349  0.00  0.00    +0.024 A 
ATOM     33  C   UNL     1       1.205   5.553  20.305  0.00  0.00    +0.007 A 
ATOM     34  C   UNL     1       1.845   4.987  19.152  0.00  0.00    -0.029 A 
ATOM     35  C   UNL     1       0.961   4.342  18.060  0.00  0.00    +0.045 C 
ENDROOT
BRANCH  10   9
ATOM      4  C   UNL     1       5.406   5.472  14.773  0.00  0.00    +0.077 A 
ATOM      5  C   UNL     1       5.094   6.870  14.691  0.00  0.00    +0.048 A 
ATOM      6  C   UNL     1       4.387   7.442  15.773  0.00  0.00    +0.116 A 
ATOM      7  N   UNL     1       4.024   6.664  16.851  0.00  0.00    -0.223 NA
ATOM      8  C   UNL     1       4.339   5.318  16.897  0.00  0.00    +0.220 A 
ATOM      9  N   UNL     1       3.990   4.518  17.974  0.00  0.00    -0.283 N 
ATOM     36  H   UNL     1       4.234   3.528  17.967  0.00  0.00    +0.155 HD
ATOM     37  N   UNL     1       5.012   4.748  15.876  0.00  0.00    -0.214 NA
BRANCH   4   3
ATOM      1  C   UNL     1       7.673   4.618  11.702  0.00  0.00    +0.020 A 
ATOM      2  C   UNL     1       6.973   5.386  12.706  0.00  0.00    +0.013 A 
ATOM      3  C   UNL     1       6.150   4.725  13.711  0.00  0.00    +0.019 A 
ATOM     38  C   UNL     1       6.056   3.273  13.672  0.00  0.00    +0.120 A 
ATOM     39  N   UNL     1       6.740   2.560  12.693  0.00  0.00    -0.263 NA
ATOM     40  C   UNL     1       7.533   3.185  11.719  0.00  0.00    +0.111 A 
ENDBRANCH   4   3
ENDBRANCH  10   9
BRANCH  12  13
ATOM     13  N   UNL     1       4.113   6.883  22.350  0.00  0.00    -0.281 N 
ATOM     14  C   UNL     1       5.424   6.678  22.749  0.00  0.00    +0.248 C 
ATOM     30  O   UNL     1       6.125   5.752  22.371  0.00  0.00    -0.270 OA
ATOM     31  H   UNL     1       3.584   7.571  22.885  0.00  0.00    +0.155 HD
BRANCH  14  15
ATOM     15  C   UNL     1       6.040   7.633  23.720  0.00  0.00    +0.037 A 
ATOM     16  C   UNL     1       5.214   8.524  24.539  0.00  0.00    +0.013 A 
ATOM     17  C   UNL     1       5.835   9.447  25.455  0.00  0.00    +0.005 A 
ATOM     18  C   UNL     1       7.292   9.482  25.558  0.00  0.00    -0.033 A 
ATOM     28  C   UNL     1       8.087   8.584  24.738  0.00  0.00    +0.005 A 
ATOM     29  C   UNL     1       7.482   7.678  23.838  0.00  0.00    +0.013 A 
BRANCH  18  19
ATOM     19  C   UNL     1       8.041  10.450  26.494  0.00  0.00    +0.119 C 
BRANCH  19  20
ATOM     20  N   UNL     1       7.636  10.461  27.932  0.00  0.00    -0.302 NA
ATOM     21  C   UNL     1       6.900  11.749  28.311  0.00  0.00    +0.066 C 
ATOM     22  C   UNL     1       6.465  11.734  29.813  0.00  0.00    -0.064 C 
ATOM     23  N   UNL     1       7.697  11.534  30.696  0.00  0.00    +0.379 N 
ATOM     24  C   UNL     1       7.299  11.578  32.111  0.00  0.00    -0.096 C 
ATOM     25  H   UNL     1       8.387  12.391  30.512  0.00  0.00    -0.082 HD
ATOM     26  C   UNL     1       8.437  10.257  30.324  0.00  0.00    -0.064 C 
ATOM     27  C   UNL     1       8.839  10.270  28.822  0.00  0.00    +0.066 C 
ENDBRANCH  19  20
ENDBRANCH  18  19
ENDBRANCH  14  15
ENDBRANCH  12  13
TORSDOF 6
ENDMDL
MODEL 2
REMARK VINA RESULT:      -7.8      4.447     14.136
REMARK  Name = C:\Users\Docking\Desktop\test protocol\1iep_ligandH.pdb
REMARK  8 active torsions:
REMARK  status: ('A' for Active; 'I' for Inactive)
REMARK    1  A    between atoms: _5  and  _11
REMARK    2  A    between atoms: _19  and  _21
REMARK    3  A    between atoms: _22  and  _66
REMARK    4  A    between atoms: _27  and  _30
REMARK    5  A    between atoms: _32  and  _33
REMARK    6  A    between atoms: _38  and  _43
REMARK    7  A    between atoms: _43  and  _46
REMARK    8  A    between atoms: _53  and  _55
REMARK                            x       y       z     vdW  Elec       q    Type
REMARK                         _______ _______ _______ _____ _____    ______ ____
ROOT
ATOM     10  C   UNL     1       5.191   5.473  17.792  0.00  0.00    +0.038 A 
ATOM     11  C   UNL     1       5.666   4.172  17.489  0.00  0.00    +0.047 A 
ATOM     12  C   UNL     1       5.225   3.469  16.295  0.00  0.00    +0.035 A 
ATOM     32  C   UNL     1       4.300   4.122  15.429  0.00  0.00    +0.024 A 
ATOM     33  C   UNL     1       3.805   5.444  15.722  0.00  0.00    +0.007 A 
ATOM     34  C   UNL     1       4.235   6.142  16.900  0.00  0.00    -0.029 A 
ATOM     35  C   UNL     1       3.667   7.555  17.168  0.00  0.00    +0.045 C 
ENDROOT
BRANCH  10   9
ATOM      4  C   UNL     1       4.702   6.731  22.398  0.00  0.00    +0.077 A 
ATOM      5  C   UNL     1       3.415   6.105  22.494  0.00  0.00    +0.048 A 
ATOM      6  C   UNL     1       2.911   5.476  21.333  0.00  0.00    +0.116 A 
ATOM      7  N   UNL     1       3.648   5.480  20.169  0.00  0.00    -0.223 NA
ATOM      8  C   UNL     1       4.886   6.094  20.110  0.00  0.00    +0.220 A 
ATOM      9  N   UNL     1       5.648   6.102  18.952  0.00  0.00    -0.283 N 
ATOM     36  H   UNL     1       6.552   6.573  18.947  0.00  0.00    +0.155 HD
ATOM     37  N   UNL     1       5.388   6.703  21.205  0.00  0.00    -0.214 NA
BRANCH   4   3
ATOM      1  C   UNL     1       5.395   9.101  25.432  0.00  0.00    +0.020 A 
ATOM      2  C   UNL     1       4.705   8.454  24.340  0.00  0.00    +0.013 A 
ATOM      3  C   UNL     1       5.370   7.434  23.539  0.00  0.00    +0.019 A 
ATOM     38  C   UNL     1       6.744   7.088  23.872  0.00  0.00    +0.120 A 
ATOM     39  N   UNL     1       7.383   7.730  24.928  0.00  0.00    -0.263 NA
ATOM     40  C   UNL     1       6.754   8.714  25.705  0.00  0.00    +0.111 A 
ENDBRANCH   4   3
ENDBRANCH  10   9
BRANCH  12  13
ATOM     13  N   UNL     1       5.667   2.143  15.940  0.00  0.00    -0.281 N 
ATOM     14  C   UNL     1       4.894   1.009  15.751  0.00  0.00    +0.248 C 
ATOM     30  O   UNL     1       3.718   0.914  16.070  0.00  0.00    -0.270 OA
ATOM     31  H   UNL     1       6.672   2.026  15.812  0.00  0.00    +0.155 HD
BRANCH  14  15
ATOM     15  C   UNL     1       5.521  -0.198  15.132  0.00  0.00    +0.037 A 
ATOM     16  C   UNL     1       4.839  -1.495  15.136  0.00  0.00    +0.013 A 
ATOM     17  C   UNL     1       5.474  -2.647  14.547  0.00  0.00    +0.005 A 
ATOM     18  C   UNL     1       6.799  -2.507  13.947  0.00  0.00    -0.033 A 
ATOM     28  C   UNL     1       7.450  -1.207  13.953  0.00  0.00    +0.005 A 
ATOM     29  C   UNL     1       6.832  -0.076  14.530  0.00  0.00    +0.013 A 
BRANCH  18  19
ATOM     19  C   UNL     1       7.560  -3.687  13.315  0.00  0.00    +0.119 C 
BRANCH  19  20
ATOM     20  N   UNL     1       8.344  -3.409  12.075  0.00  0.00    -0.302 NA
ATOM     21  C   UNL     1       7.720  -4.067  10.841  0.00  0.00    +0.066 C 
ATOM     22  C   UNL     1       8.540  -3.748   9.549  0.00  0.00    -0.064 C 
ATOM     23  N   UNL     1       9.985  -4.212   9.737  0.00  0.00    +0.379 N 
ATOM     24  C   UNL     1      10.745  -3.966   8.503  0.00  0.00    -0.096 C 
ATOM     25  H   UNL     1       9.966  -5.314   9.909  0.00  0.00    -0.082 HD
ATOM     26  C   UNL     1      10.613  -3.565  10.964  0.00  0.00    -0.064 C 
ATOM     27  C   UNL     1       9.774  -3.864  12.237  0.00  0.00    +0.066 C 
ENDBRANCH  19  20
ENDBRANCH  18  19
ENDBRANCH  14  15
ENDBRANCH  12  13
TORSDOF 6
ENDMDL
MODEL 3
REMARK VINA RESULT:      -7.6      6.740     11.681
REMARK  Name = C:\Users\Docking\Desktop\test protocol\1iep_ligandH.pdb
REMARK  8 active torsions:
REMARK  status: ('A' for Active; 'I' for Inactive)
REMARK    1  A    between atoms: _5  and  _11
REMARK    2  A    between atoms: _19  and  _21
REMARK    3  A    between atoms: _22  and  _66
REMARK    4  A    between atoms: _27  and  _30
REMARK    5  A    between atoms: _32  and  _33
REMARK    6  A    between atoms: _38  and  _43
REMARK    7  A    between atoms: _43  and  _46
REMARK    8  A    between atoms: _53  and  _55
REMARK                            x       y       z     vdW  Elec       q    Type
REMARK                         _______ _______ _______ _____ _____    ______ ____
ROOT
ATOM     10  C   UNL     1       7.929  -3.729  13.240  0.00  0.00    +0.038 A 
ATOM     11  C   UNL     1       7.349  -2.453  13.461  0.00  0.00    +0.047 A 
ATOM     12  C   UNL     1       7.509  -1.764  14.732  0.00  0.00    +0.035 A 
ATOM     32  C   UNL     1       8.269  -2.402  15.756  0.00  0.00    +0.024 A 
ATOM     33  C   UNL     1       8.864  -3.698  15.549  0.00  0.00    +0.007 A 
ATOM     34  C   UNL     1       8.707  -4.384  14.298  0.00  0.00    -0.029 A 
ATOM     35  C   UNL     1       9.362  -5.776  14.134  0.00  0.00    +0.045 C 
ENDROOT
BRANCH  10   9
ATOM      4  C   UNL     1       9.255  -4.615   8.714  0.00  0.00    +0.077 A 
ATOM      5  C   UNL     1      10.399  -3.756   8.818  0.00  0.00    +0.048 A 
ATOM      6  C   UNL     1      10.607  -3.099  10.052  0.00  0.00    +0.116 A 
ATOM      7  N   UNL     1       9.729  -3.294  11.096  0.00  0.00    -0.223 NA
ATOM      8  C   UNL     1       8.634  -4.128  10.961  0.00  0.00    +0.220 A 
ATOM      9  N   UNL     1       7.743  -4.345  12.001  0.00  0.00    -0.283 N 
ATOM     36  H   UNL     1       6.944  -4.962  11.859  0.00  0.00    +0.155 HD
ATOM     37  N   UNL     1       8.413  -4.766   9.793  0.00  0.00    -0.214 NA
BRANCH   4   3
ATOM      1  C   UNL     1       8.996  -5.772   4.986  0.00  0.00    +0.020 A 
ATOM      2  C   UNL     1       9.365  -4.997   6.148  0.00  0.00    +0.013 A 
ATOM      3  C   UNL     1       8.903  -5.381   7.476  0.00  0.00    +0.019 A 
ATOM     38  C   UNL     1       8.063  -6.563   7.594  0.00  0.00    +0.120 A 
ATOM     39  N   UNL     1       7.723  -7.289   6.457  0.00  0.00    -0.263 NA
ATOM     40  C   UNL     1       8.160  -6.928   5.174  0.00  0.00    +0.111 A 
ENDBRANCH   4   3
ENDBRANCH  10   9
BRANCH  12  13
ATOM     13  N   UNL     1       6.937  -0.471  15.017  0.00  0.00    -0.281 N 
ATOM     14  C   UNL     1       5.621  -0.068  14.857  0.00  0.00    +0.248 C 
ATOM     30  O   UNL     1       4.776  -0.698  14.240  0.00  0.00    -0.270 OA
ATOM     31  H   UNL     1       7.580   0.232  15.381  0.00  0.00    +0.155 HD
BRANCH  14  15
ATOM     15  C   UNL     1       5.186   1.230  15.457  0.00  0.00    +0.037 A 
ATOM     16  C   UNL     1       4.034   1.301  16.360  0.00  0.00    +0.013 A 
ATOM     17  C   UNL     1       3.624   2.568  16.911  0.00  0.00    +0.005 A 
ATOM     18  C   UNL     1       4.369   3.775  16.562  0.00  0.00    -0.033 A 
ATOM     28  C   UNL     1       5.511   3.675  15.668  0.00  0.00    +0.005 A 
ATOM     29  C   UNL     1       5.915   2.435  15.125  0.00  0.00    +0.013 A 
BRANCH  18  19
ATOM     19  C   UNL     1       3.991   5.173  17.087  0.00  0.00    +0.119 C 
BRANCH  19  20
ATOM     20  N   UNL     1       3.829   5.328  18.563  0.00  0.00    -0.302 NA
ATOM     21  C   UNL     1       3.390   6.744  18.948  0.00  0.00    +0.066 C 
ATOM     22  C   UNL     1       3.204   6.882  20.494  0.00  0.00    -0.064 C 
ATOM     23  N   UNL     1       4.511   6.511  21.197  0.00  0.00    +0.379 N 
ATOM     24  C   UNL     1       4.357   6.696  22.647  0.00  0.00    -0.096 C 
ATOM     25  H   UNL     1       5.296   7.221  20.847  0.00  0.00    -0.082 HD
ATOM     26  C   UNL     1       4.956   5.106  20.818  0.00  0.00    -0.064 C 
ATOM     27  C   UNL     1       5.110   4.971  19.277  0.00  0.00    +0.066 C 
ENDBRANCH  19  20
ENDBRANCH  18  19
ENDBRANCH  14  15
ENDBRANCH  12  13
TORSDOF 6
ENDMDL
MODEL 4
REMARK VINA RESULT:      -7.6      8.621     13.015
REMARK  Name = C:\Users\Docking\Desktop\test protocol\1iep_ligandH.pdb
REMARK  8 active torsions:
REMARK  status: ('A' for Active; 'I' for Inactive)
REMARK    1  A    between atoms: _5  and  _11
REMARK    2  A    between atoms: _19  and  _21
REMARK    3  A    between atoms: _22  and  _66
REMARK    4  A    between atoms: _27  and  _30
REMARK    5  A    between atoms: _32  and  _33
REMARK    6  A    between atoms: _38  and  _43
REMARK    7  A    between atoms: _43  and  _46
REMARK    8  A    between atoms: _53  and  _55
REMARK                            x       y       z     vdW  Elec       q    Type
REMARK                         _______ _______ _______ _____ _____    ______ ____
ROOT
ATOM     10  C   UNL     1       6.315  10.833  27.071  0.00  0.00    +0.038 A 
ATOM     11  C   UNL     1       5.566  11.794  27.797  0.00  0.00    +0.047 A 
ATOM     12  C   UNL     1       4.123  11.671  27.941  0.00  0.00    +0.035 A 
ATOM     32  C   UNL     1       3.476  10.555  27.335  0.00  0.00    +0.024 A 
ATOM     33  C   UNL     1       4.222   9.570  26.592  0.00  0.00    +0.007 A 
ATOM     34  C   UNL     1       5.645   9.687  26.444  0.00  0.00    -0.029 A 
ATOM     35  C   UNL     1       6.393   8.605  25.632  0.00  0.00    +0.045 C 
ENDROOT
BRANCH  10   9
ATOM      4  C   UNL     1      10.776  10.400  28.788  0.00  0.00    +0.077 A 
ATOM      5  C   UNL     1      10.311   9.815  30.013  0.00  0.00    +0.048 A 
ATOM      6  C   UNL     1       8.916   9.650  30.165  0.00  0.00    +0.116 A 
ATOM      7  N   UNL     1       8.059  10.043  29.160  0.00  0.00    -0.223 NA
ATOM      8  C   UNL     1       8.540  10.605  27.991  0.00  0.00    +0.220 A 
ATOM      9  N   UNL     1       7.697  11.001  26.964  0.00  0.00    -0.283 N 
ATOM     36  H   UNL     1       8.091  11.418  26.121  0.00  0.00    +0.155 HD
ATOM     37  N   UNL     1       9.868  10.775  27.823  0.00  0.00    -0.214 NA
BRANCH   4   3
ATOM      1  C   UNL     1      14.076  11.651  27.102  0.00  0.00    +0.020 A 
ATOM      2  C   UNL     1      12.667  11.454  27.357  0.00  0.00    +0.013 A 
ATOM      3  C   UNL     1      12.221  10.636  28.478  0.00  0.00    +0.019 A 
ATOM     38  C   UNL     1      13.233  10.029  29.329  0.00  0.00    +0.120 A 
ATOM     39  N   UNL     1      14.582  10.235  29.058  0.00  0.00    -0.263 NA
ATOM     40  C   UNL     1      15.023  11.018  27.981  0.00  0.00    +0.111 A 
ENDBRANCH   4   3
ENDBRANCH  10   9
BRANCH  12  13
ATOM     13  N   UNL     1       3.309  12.620  28.660  0.00  0.00    -0.281 N 
ATOM     14  C   UNL     1       2.492  13.609  28.138  0.00  0.00    +0.248 C 
ATOM     30  O   UNL     1       2.502  13.969  26.970  0.00  0.00    -0.270 OA
ATOM     31  H   UNL     1       3.339  12.554  29.678  0.00  0.00    +0.155 HD
BRANCH  14  15
ATOM     15  C   UNL     1       1.535  14.310  29.047  0.00  0.00    +0.037 A 
ATOM     16  C   UNL     1       1.109  13.706  30.313  0.00  0.00    +0.013 A 
ATOM     17  C   UNL     1       0.171  14.396  31.163  0.00  0.00    +0.005 A 
ATOM     18  C   UNL     1      -0.345  15.699  30.751  0.00  0.00    -0.033 A 
ATOM     28  C   UNL     1       0.099  16.277  29.493  0.00  0.00    +0.005 A 
ATOM     29  C   UNL     1       1.017  15.603  28.656  0.00  0.00    +0.013 A 
BRANCH  18  19
ATOM     19  C   UNL     1      -1.364  16.497  31.586  0.00  0.00    +0.119 C 
BRANCH  19  20
ATOM     20  N   UNL     1      -2.797  16.086  31.491  0.00  0.00    -0.302 NA
ATOM     21  C   UNL     1      -3.166  15.040  32.546  0.00  0.00    +0.066 C 
ATOM     22  C   UNL     1      -4.673  14.638  32.447  0.00  0.00    -0.064 C 
ATOM     23  N   UNL     1      -4.967  14.115  31.040  0.00  0.00    +0.379 N 
ATOM     24  C   UNL     1      -6.370  13.682  30.961  0.00  0.00    -0.096 C 
ATOM     25  H   UNL     1      -4.326  13.218  30.873  0.00  0.00    -0.082 HD
ATOM     26  C   UNL     1      -4.601  15.147  29.984  0.00  0.00    -0.064 C 
ATOM     27  C   UNL     1      -3.108  15.562  30.110  0.00  0.00    +0.066 C 
ENDBRANCH  19  20
ENDBRANCH  18  19
ENDBRANCH  14  15
ENDBRANCH  12  13
TORSDOF 6
ENDMDL
MODEL 5
REMARK VINA RESULT:      -7.5     13.897     19.224
REMARK  Name = C:\Users\Docking\Desktop\test protocol\1iep_ligandH.pdb
REMARK  8 active torsions:
REMARK  status: ('A' for Active; 'I' for Inactive)
REMARK    1  A    between atoms: _5  and  _11
REMARK    2  A    between atoms: _19  and  _21
REMARK    3  A    between atoms: _22  and  _66
REMARK    4  A    between atoms: _27  and  _30
REMARK    5  A    between atoms: _32  and  _33
REMARK    6  A    between atoms: _38  and  _43
REMARK    7  A    between atoms: _43  and  _46
REMARK    8  A    between atoms: _53  and  _55
REMARK                            x       y       z     vdW  Elec       q    Type
REMARK                         _______ _______ _______ _____ _____    ______ ____
ROOT
ATOM     10  C   UNL     1       8.836  -5.261  15.224  0.00  0.00    +0.038 A 
ATOM     11  C   UNL     1       8.898  -6.646  15.520  0.00  0.00    +0.047 A 
ATOM     12  C   UNL     1       9.290  -7.117  16.840  0.00  0.00    +0.035 A 
ATOM     32  C   UNL     1       9.609  -6.148  17.835  0.00  0.00    +0.024 A 
ATOM     33  C   UNL     1       9.553  -4.735  17.550  0.00  0.00    +0.007 A 
ATOM     34  C   UNL     1       9.170  -4.265  16.250  0.00  0.00    -0.029 A 
ATOM     35  C   UNL     1       9.133  -2.740  15.999  0.00  0.00    +0.045 C 
ENDROOT
BRANCH  10   9
ATOM      4  C   UNL     1       9.842  -3.652  10.815  0.00  0.00    +0.077 A 
ATOM      5  C   UNL     1      11.245  -3.568  11.101  0.00  0.00    +0.048 A 
ATOM      6  C   UNL     1      11.666  -3.941  12.397  0.00  0.00    +0.116 A 
ATOM      7  N   UNL     1      10.744  -4.365  13.329  0.00  0.00    -0.223 NA
ATOM      8  C   UNL     1       9.398  -4.433  13.021  0.00  0.00    +0.220 A 
ATOM      9  N   UNL     1       8.454  -4.865  13.940  0.00  0.00    -0.283 N 
ATOM     36  H   UNL     1       7.469  -4.893  13.676  0.00  0.00    +0.155 HD
ATOM     37  N   UNL     1       8.970  -4.081  11.791  0.00  0.00    -0.214 NA
BRANCH   4   3
ATOM      1  C   UNL     1       9.359  -3.019   6.985  0.00  0.00    +0.020 A 
ATOM      2  C   UNL     1       9.985  -3.374   8.238  0.00  0.00    +0.013 A 
ATOM      3  C   UNL     1       9.243  -3.296   9.490  0.00  0.00    +0.019 A 
ATOM     38  C   UNL     1       7.858  -2.851   9.439  0.00  0.00    +0.120 A 
ATOM     39  N   UNL     1       7.283  -2.514   8.217  0.00  0.00    -0.263 NA
ATOM     40  C   UNL     1       7.988  -2.584   7.007  0.00  0.00    +0.111 A 
ENDBRANCH   4   3
ENDBRANCH  10   9
BRANCH  12  13
ATOM     13  N   UNL     1       9.378  -8.511  17.196  0.00  0.00    -0.281 N 
ATOM     14  C   UNL     1       8.486  -9.255  17.951  0.00  0.00    +0.248 C 
ATOM     30  O   UNL     1       7.579  -8.779  18.617  0.00  0.00    -0.270 OA
ATOM     31  H   UNL     1      10.198  -9.010  16.851  0.00  0.00    +0.155 HD
BRANCH  14  15
ATOM     15  C   UNL     1       8.632 -10.742  17.982  0.00  0.00    +0.037 A 
ATOM     16  C   UNL     1       8.544 -11.540  16.757  0.00  0.00    +0.013 A 
ATOM     17  C   UNL     1       8.671 -12.975  16.817  0.00  0.00    +0.005 A 
ATOM     18  C   UNL     1       8.889 -13.621  18.109  0.00  0.00    -0.033 A 
ATOM     28  C   UNL     1       8.978 -12.805  19.309  0.00  0.00    +0.005 A 
ATOM     29  C   UNL     1       8.853 -11.398  19.254  0.00  0.00    +0.013 A 
BRANCH  18  19
ATOM     19  C   UNL     1       9.015 -15.147  18.271  0.00  0.00    +0.119 C 
BRANCH  19  20
ATOM     20  N   UNL     1      10.220 -15.800  17.677  0.00  0.00    -0.302 NA
ATOM     21  C   UNL     1      11.482 -14.953  17.862  0.00  0.00    +0.066 C 
ATOM     22  C   UNL     1      12.737 -15.662  17.255  0.00  0.00    -0.064 C 
ATOM     23  N   UNL     1      12.490 -15.950  15.773  0.00  0.00    +0.379 N 
ATOM     24  C   UNL     1      13.690 -16.563  15.186  0.00  0.00    -0.096 C 
ATOM     25  H   UNL     1      12.325 -14.973  15.262  0.00  0.00    -0.082 HD
ATOM     26  C   UNL     1      11.235 -16.789  15.581  0.00  0.00    -0.064 C 
ATOM     27  C   UNL     1      10.000 -16.090  16.213  0.00  0.00    +0.066 C 
ENDBRANCH  19  20
ENDBRANCH  18  19
ENDBRANCH  14  15
ENDBRANCH  12  13
TORSDOF 6
ENDMDL
