MODEL 1
REMARK VINA RESULT:      -8.2      0.000      0.000
REMARK  Name = C:\Users\Docking\Desktop\test protocol\1iep_ligandH.pdb
REMARK  8 active torsions:
REMARK  status: ('A' for Active; 'I' for Inactive)
REMARK    1  A    between atoms: _5  and  _11
REMARK    2  A    between atoms: _19  and  _21
REMARK    3  A    between atoms: _22  and  _66
REMARK    4  A    between atoms: _27  and  _30
REMARK    5  A    between atoms: _32  and  _33
REMARK    6  A    between atoms: _38  and  _43
REMARK    7  A    between atoms: _43  and  _46
REMARK    8  A    between atoms: _53  and  _55
REMARK                            x       y       z     vdW  Elec       q    Type
REMARK                         _______ _______ _______ _____ _____    ______ ____
ROOT
ATOM     10  C   UNL     1      14.588  23.963   8.353  0.00  0.00    +0.038 A 
ATOM     11  C   UNL     1      13.372  24.667   8.163  0.00  0.00    +0.047 A 
ATOM     12  C   UNL     1      12.136  24.216   8.784  0.00  0.00    +0.035 A 
ATOM     32  C   UNL     1      12.176  23.044   9.594  0.00  0.00    +0.024 A 
ATOM     33  C   UNL     1      13.404  22.315   9.797  0.00  0.00    +0.007 A 
ATOM     34  C   UNL     1      14.625  22.755   9.185  0.00  0.00    -0.029 A 
ATOM     35  C   UNL     1      15.911  21.931   9.431  0.00  0.00    +0.045 C 
ENDROOT
BRANCH  10   9
ATOM      4  C   UNL     1      17.577  24.242   4.607  0.00  0.00    +0.077 A 
ATOM      5  C   UNL     1      16.781  23.337   3.829  0.00  0.00    +0.048 A 
ATOM      6  C   UNL     1      15.614  22.817   4.432  0.00  0.00    +0.116 A 
ATOM      7  N   UNL     1      15.277  23.181   5.718  0.00  0.00    -0.223 NA
ATOM      8  C   UNL     1      16.068  24.055   6.441  0.00  0.00    +0.220 A 
ATOM      9  N   UNL     1      15.745  24.442   7.733  0.00  0.00    -0.283 N 
ATOM     36  H   UNL     1      16.358  25.082   8.236  0.00  0.00    +0.155 HD
ATOM     37  N   UNL     1      17.189  24.565   5.888  0.00  0.00    -0.214 NA
BRANCH   4   3
ATOM      1  C   UNL     1      20.541  26.738   4.073  0.00  0.00    +0.020 A 
ATOM      2  C   UNL     1      19.317  26.168   4.588  0.00  0.00    +0.013 A 
ATOM      3  C   UNL     1      18.837  24.878   4.108  0.00  0.00    +0.019 A 
ATOM     38  C   UNL     1      19.625  24.186   3.100  0.00  0.00    +0.120 A 
ATOM     39  N   UNL     1      20.798  24.760   2.621  0.00  0.00    -0.263 NA
ATOM     40  C   UNL     1      21.270  26.001   3.075  0.00  0.00    +0.111 A 
ENDBRANCH   4   3
ENDBRANCH  10   9
BRANCH  12  13
ATOM     13  N   UNL     1      10.870  24.885   8.621  0.00  0.00    -0.281 N 
ATOM     14  C   UNL     1      10.570  26.214   8.872  0.00  0.00    +0.248 C 
ATOM     30  O   UNL     1      11.298  26.983   9.482  0.00  0.00    -0.270 OA
ATOM     31  H   UNL     1      10.100  24.309   8.278  0.00  0.00    +0.155 HD
BRANCH  14  15
ATOM     15  C   UNL     1       9.267  26.764   8.389  0.00  0.00    +0.037 A 
ATOM     16  C   UNL     1       8.283  25.910   7.720  0.00  0.00    +0.013 A 
ATOM     17  C   UNL     1       7.041  26.470   7.248  0.00  0.00    +0.005 A 
ATOM     18  C   UNL     1       6.776  27.893   7.446  0.00  0.00    -0.033 A 
ATOM     28  C   UNL     1       7.768  28.717   8.117  0.00  0.00    +0.005 A 
ATOM     29  C   UNL     1       8.987  28.172   8.580  0.00  0.00    +0.013 A 
BRANCH  18  19
ATOM     19  C   UNL     1       5.487  28.580   6.956  0.00  0.00    +0.119 C 
BRANCH  19  20
ATOM     20  N   UNL     1       4.195  28.088   7.519  0.00  0.00    -0.302 NA
ATOM     21  C   UNL     1       3.514  27.074   6.595  0.00  0.00    +0.066 C 
ATOM     22  C   UNL     1       2.174  26.554   7.210  0.00  0.00    -0.064 C 
ATOM     23  N   UNL     1       1.249  27.739   7.487  0.00  0.00    +0.379 N 
ATOM     24  C   UNL     1      -0.034  27.248   8.011  0.00  0.00    -0.096 C 
ATOM     25  H   UNL     1       1.046  28.245   6.514  0.00  0.00    -0.082 HD
ATOM     26  C   UNL     1       1.919  28.754   8.403  0.00  0.00    -0.064 C 
ATOM     27  C   UNL     1       3.264  29.243   7.797  0.00  0.00    +0.066 C 
ENDBRANCH  19  20
ENDBRANCH  18  19
ENDBRANCH  14  15
ENDBRANCH  12  13
TORSDOF 6
ENDMDL
MODEL 2
REMARK VINA RESULT:      -8.1      6.040     13.962
REMARK  Name = C:\Users\Docking\Desktop\test protocol\1iep_ligandH.pdb
REMARK  8 active torsions:
REMARK  status: ('A' for Active; 'I' for Inactive)
REMARK    1  A    between atoms: _5  and  _11
REMARK    2  A    between atoms: _19  and  _21
REMARK    3  A    between atoms: _22  and  _66
REMARK    4  A    between atoms: _27  and  _30
REMARK    5  A    between atoms: _32  and  _33
REMARK    6  A    between atoms: _38  and  _43
REMARK    7  A    between atoms: _43  and  _46
REMARK    8  A    between atoms: _53  and  _55
REMARK                            x       y       z     vdW  Elec       q    Type
REMARK                         _______ _______ _______ _____ _____    ______ ____
ROOT
ATOM     10  C   UNL     1      14.455  21.411   8.646  0.00  0.00    +0.038 A 
ATOM     11  C   UNL     1      15.711  21.716   9.230  0.00  0.00    +0.047 A 
ATOM     12  C   UNL     1      16.638  20.663   9.613  0.00  0.00    +0.035 A 
ATOM     32  C   UNL     1      16.256  19.309   9.384  0.00  0.00    +0.024 A 
ATOM     33  C   UNL     1      14.982  18.981   8.792  0.00  0.00    +0.007 A 
ATOM     34  C   UNL     1      14.062  20.015   8.415  0.00  0.00    -0.029 A 
ATOM     35  C   UNL     1      12.708  19.605   7.791  0.00  0.00    +0.045 C 
ENDROOT
BRANCH  10   9
ATOM      4  C   UNL     1      10.911  24.493   9.637  0.00  0.00    +0.077 A 
ATOM      5  C   UNL     1      10.724  23.947  10.950  0.00  0.00    +0.048 A 
ATOM      6  C   UNL     1      11.554  22.868  11.329  0.00  0.00    +0.116 A 
ATOM      7  N   UNL     1      12.499  22.381  10.453  0.00  0.00    -0.223 NA
ATOM      8  C   UNL     1      12.653  22.930   9.193  0.00  0.00    +0.220 A 
ATOM      9  N   UNL     1      13.603  22.461   8.298  0.00  0.00    -0.283 N 
ATOM     36  H   UNL     1      13.680  22.888   7.375  0.00  0.00    +0.155 HD
ATOM     37  N   UNL     1      11.871  23.959   8.806  0.00  0.00    -0.214 NA
BRANCH   4   3
ATOM      1  C   UNL     1       9.649  28.098   8.794  0.00  0.00    +0.020 A 
ATOM      2  C   UNL     1      10.453  27.031   9.345  0.00  0.00    +0.013 A 
ATOM      3  C   UNL     1      10.113  25.636   9.092  0.00  0.00    +0.019 A 
ATOM     38  C   UNL     1       8.945  25.353   8.272  0.00  0.00    +0.120 A 
ATOM     39  N   UNL     1       8.189  26.401   7.757  0.00  0.00    -0.263 NA
ATOM     40  C   UNL     1       8.505  27.747   7.994  0.00  0.00    +0.111 A 
ENDBRANCH   4   3
ENDBRANCH  10   9
BRANCH  12  13
ATOM     13  N   UNL     1      17.924  20.912  10.217  0.00  0.00    -0.281 N 
ATOM     14  C   UNL     1      19.091  21.324   9.595  0.00  0.00    +0.248 C 
ATOM     30  O   UNL     1      19.264  21.335   8.385  0.00  0.00    -0.270 OA
ATOM     31  H   UNL     1      17.980  20.767  11.225  0.00  0.00    +0.155 HD
BRANCH  14  15
ATOM     15  C   UNL     1      20.239  21.775  10.440  0.00  0.00    +0.037 A 
ATOM     16  C   UNL     1      20.917  23.048  10.184  0.00  0.00    +0.013 A 
ATOM     17  C   UNL     1      22.032  23.452  11.004  0.00  0.00    +0.005 A 
ATOM     18  C   UNL     1      22.475  22.580  12.089  0.00  0.00    -0.033 A 
ATOM     28  C   UNL     1      21.781  21.325  12.325  0.00  0.00    +0.005 A 
ATOM     29  C   UNL     1      20.688  20.926  11.523  0.00  0.00    +0.013 A 
BRANCH  18  19
ATOM     19  C   UNL     1      23.669  22.920  13.001  0.00  0.00    +0.119 C 
BRANCH  19  20
ATOM     20  N   UNL     1      23.376  23.186  14.441  0.00  0.00    -0.302 NA
ATOM     21  C   UNL     1      23.570  24.661  14.803  0.00  0.00    +0.066 C 
ATOM     22  C   UNL     1      23.237  24.926  16.308  0.00  0.00    -0.064 C 
ATOM     23  N   UNL     1      24.116  24.032  17.186  0.00  0.00    +0.379 N 
ATOM     24  C   UNL     1      23.847  24.320  18.602  0.00  0.00    -0.096 C 
ATOM     25  H   UNL     1      25.179  24.299  16.982  0.00  0.00    -0.082 HD
ATOM     26  C   UNL     1      23.931  22.564  16.830  0.00  0.00    -0.064 C 
ATOM     27  C   UNL     1      24.236  22.317  15.326  0.00  0.00    +0.066 C 
ENDBRANCH  19  20
ENDBRANCH  18  19
ENDBRANCH  14  15
ENDBRANCH  12  13
TORSDOF 6
ENDMDL
MODEL 3
REMARK VINA RESULT:      -8.0      2.410     12.468
REMARK  Name = C:\Users\Docking\Desktop\test protocol\1iep_ligandH.pdb
REMARK  8 active torsions:
REMARK  status: ('A' for Active; 'I' for Inactive)
REMARK    1  A    between atoms: _5  and  _11
REMARK    2  A    between atoms: _19  and  _21
REMARK    3  A    between atoms: _22  and  _66
REMARK    4  A    between atoms: _27  and  _30
REMARK    5  A    between atoms: _32  and  _33
REMARK    6  A    between atoms: _38  and  _43
REMARK    7  A    between atoms: _43  and  _46
REMARK    8  A    between atoms: _53  and  _55
REMARK                            x       y       z     vdW  Elec       q    Type
REMARK                         _______ _______ _______ _____ _____    ______ ____
ROOT
ATOM     10  C   UNL     1      12.591  23.957   8.306  0.00  0.00    +0.038 A 
ATOM     11  C   UNL     1      13.753  24.310   7.574  0.00  0.00    +0.047 A 
ATOM     12  C   UNL     1      15.073  23.874   8.003  0.00  0.00    +0.035 A 
ATOM     32  C   UNL     1      15.172  23.078   9.181  0.00  0.00    +0.024 A 
ATOM     33  C   UNL     1      14.001  22.711   9.938  0.00  0.00    +0.007 A 
ATOM     34  C   UNL     1      12.697  23.140   9.521  0.00  0.00    -0.029 A 
ATOM     35  C   UNL     1      11.477  22.723  10.375  0.00  0.00    +0.045 C 
ENDROOT
BRANCH  10   9
ATOM      4  C   UNL     1       9.084  27.227   8.092  0.00  0.00    +0.077 A 
ATOM      5  C   UNL     1       9.773  28.111   8.988  0.00  0.00    +0.048 A 
ATOM      6  C   UNL     1      11.024  27.684   9.487  0.00  0.00    +0.116 A 
ATOM      7  N   UNL     1      11.538  26.462   9.111  0.00  0.00    -0.223 NA
ATOM      8  C   UNL     1      10.847  25.633   8.247  0.00  0.00    +0.220 A 
ATOM      9  N   UNL     1      11.348  24.403   7.850  0.00  0.00    -0.283 N 
ATOM     36  H   UNL     1      10.804  23.817   7.217  0.00  0.00    +0.155 HD
ATOM     37  N   UNL     1       9.649  26.017   7.758  0.00  0.00    -0.214 NA
BRANCH   4   3
ATOM      1  C   UNL     1       5.449  26.888   6.688  0.00  0.00    +0.020 A 
ATOM      2  C   UNL     1       6.716  26.534   7.285  0.00  0.00    +0.013 A 
ATOM      3  C   UNL     1       7.754  27.539   7.479  0.00  0.00    +0.019 A 
ATOM     38  C   UNL     1       7.476  28.903   7.054  0.00  0.00    +0.120 A 
ATOM     39  N   UNL     1       6.247  29.213   6.481  0.00  0.00    -0.263 NA
ATOM     40  C   UNL     1       5.241  28.254   6.288  0.00  0.00    +0.111 A 
ENDBRANCH   4   3
ENDBRANCH  10   9
BRANCH  12  13
ATOM     13  N   UNL     1      16.290  24.207   7.304  0.00  0.00    -0.281 N 
ATOM     14  C   UNL     1      17.071  23.382   6.512  0.00  0.00    +0.248 C 
ATOM     30  O   UNL     1      16.956  22.166   6.457  0.00  0.00    -0.270 OA
ATOM     31  H   UNL     1      16.615  25.169   7.407  0.00  0.00    +0.155 HD
BRANCH  14  15
ATOM     15  C   UNL     1      18.145  23.993   5.671  0.00  0.00    +0.037 A 
ATOM     16  C   UNL     1      19.511  23.465   5.682  0.00  0.00    +0.013 A 
ATOM     17  C   UNL     1      20.532  24.084   4.874  0.00  0.00    +0.005 A 
ATOM     18  C   UNL     1      20.188  25.238   4.046  0.00  0.00    -0.033 A 
ATOM     28  C   UNL     1      18.823  25.737   4.050  0.00  0.00    +0.005 A 
ATOM     29  C   UNL     1      17.821  25.134   4.842  0.00  0.00    +0.013 A 
BRANCH  18  19
ATOM     19  C   UNL     1      21.218  25.974   3.169  0.00  0.00    +0.119 C 
BRANCH  19  20
ATOM     20  N   UNL     1      20.689  26.906   2.129  0.00  0.00    -0.302 NA
ATOM     21  C   UNL     1      20.985  26.411   0.710  0.00  0.00    +0.066 C 
ATOM     22  C   UNL     1      20.404  27.386  -0.365  0.00  0.00    -0.064 C 
ATOM     23  N   UNL     1      20.984  28.785  -0.147  0.00  0.00    +0.379 N 
ATOM     24  C   UNL     1      20.485  29.691  -1.192  0.00  0.00    -0.096 C 
ATOM     25  H   UNL     1      22.090  28.714  -0.261  0.00  0.00    -0.082 HD
ATOM     26  C   UNL     1      20.696  29.283   1.262  0.00  0.00    -0.064 C 
ATOM     27  C   UNL     1      21.251  28.292   2.323  0.00  0.00    +0.066 C 
ENDBRANCH  19  20
ENDBRANCH  18  19
ENDBRANCH  14  15
ENDBRANCH  12  13
TORSDOF 6
ENDMDL
MODEL 4
REMARK VINA RESULT:      -7.8      2.211     12.363
REMARK  Name = C:\Users\Docking\Desktop\test protocol\1iep_ligandH.pdb
REMARK  8 active torsions:
REMARK  status: ('A' for Active; 'I' for Inactive)
REMARK    1  A    between atoms: _5  and  _11
REMARK    2  A    between atoms: _19  and  _21
REMARK    3  A    between atoms: _22  and  _66
REMARK    4  A    between atoms: _27  and  _30
REMARK    5  A    between atoms: _32  and  _33
REMARK    6  A    between atoms: _38  and  _43
REMARK    7  A    between atoms: _43  and  _46
REMARK    8  A    between atoms: _53  and  _55
REMARK                            x       y       z     vdW  Elec       q    Type
REMARK                         _______ _______ _______ _____ _____    ______ ____
ROOT
ATOM     10  C   UNL     1      10.765  23.928   8.849  0.00  0.00    +0.038 A 
ATOM     11  C   UNL     1      11.999  24.053   8.161  0.00  0.00    +0.047 A 
ATOM     12  C   UNL     1      13.231  23.524   8.724  0.00  0.00    +0.035 A 
ATOM     32  C   UNL     1      13.171  22.872   9.990  0.00  0.00    +0.024 A 
ATOM     33  C   UNL     1      11.925  22.737  10.704  0.00  0.00    +0.007 A 
ATOM     34  C   UNL     1      10.707  23.258  10.154  0.00  0.00    -0.029 A 
ATOM     35  C   UNL     1       9.402  23.090  10.967  0.00  0.00    +0.045 C 
ENDROOT
BRANCH  10   9
ATOM      4  C   UNL     1       7.815  27.578   7.842  0.00  0.00    +0.077 A 
ATOM      5  C   UNL     1       8.626  28.511   8.569  0.00  0.00    +0.048 A 
ATOM      6  C   UNL     1       9.791  28.010   9.194  0.00  0.00    +0.116 A 
ATOM      7  N   UNL     1      10.110  26.674   9.092  0.00  0.00    -0.223 NA
ATOM      8  C   UNL     1       9.305  25.800   8.384  0.00  0.00    +0.220 A 
ATOM      9  N   UNL     1       9.612  24.453   8.262  0.00  0.00    -0.283 N 
ATOM     36  H   UNL     1       8.988  23.840   7.738  0.00  0.00    +0.155 HD
ATOM     37  N   UNL     1       8.188  26.253   7.780  0.00  0.00    -0.214 NA
BRANCH   4   3
ATOM      1  C   UNL     1       4.197  28.845   7.067  0.00  0.00    +0.020 A 
ATOM      2  C   UNL     1       5.388  28.497   7.807  0.00  0.00    +0.013 A 
ATOM      3  C   UNL     1       6.557  27.955   7.124  0.00  0.00    +0.019 A 
ATOM     38  C   UNL     1       6.487  27.778   5.682  0.00  0.00    +0.120 A 
ATOM     39  N   UNL     1       5.326  28.121   4.996  0.00  0.00    -0.263 NA
ATOM     40  C   UNL     1       4.195  28.642   5.642  0.00  0.00    +0.111 A 
ENDBRANCH   4   3
ENDBRANCH  10   9
BRANCH  12  13
ATOM     13  N   UNL     1      14.515  23.629   8.075  0.00  0.00    -0.281 N 
ATOM     14  C   UNL     1      14.956  22.955   6.948  0.00  0.00    +0.248 C 
ATOM     30  O   UNL     1      14.387  21.995   6.449  0.00  0.00    -0.270 OA
ATOM     31  H   UNL     1      15.178  24.278   8.497  0.00  0.00    +0.155 HD
BRANCH  14  15
ATOM     15  C   UNL     1      16.221  23.402   6.289  0.00  0.00    +0.037 A 
ATOM     16  C   UNL     1      16.201  24.345   5.168  0.00  0.00    +0.013 A 
ATOM     17  C   UNL     1      17.434  24.746   4.539  0.00  0.00    +0.005 A 
ATOM     18  C   UNL     1      18.699  24.206   5.031  0.00  0.00    -0.033 A 
ATOM     28  C   UNL     1      18.690  23.276   6.148  0.00  0.00    +0.005 A 
ATOM     29  C   UNL     1      17.483  22.879   6.767  0.00  0.00    +0.013 A 
BRANCH  18  19
ATOM     19  C   UNL     1      20.061  24.562   4.407  0.00  0.00    +0.119 C 
BRANCH  19  20
ATOM     20  N   UNL     1      20.074  25.621   3.354  0.00  0.00    -0.302 NA
ATOM     21  C   UNL     1      21.260  25.465   2.397  0.00  0.00    +0.066 C 
ATOM     22  C   UNL     1      21.245  26.567   1.288  0.00  0.00    -0.064 C 
ATOM     23  N   UNL     1      21.258  27.948   1.946  0.00  0.00    +0.379 N 
ATOM     24  C   UNL     1      21.303  28.986   0.906  0.00  0.00    -0.096 C 
ATOM     25  H   UNL     1      22.195  28.028   2.545  0.00  0.00    -0.082 HD
ATOM     26  C   UNL     1      20.084  28.111   2.901  0.00  0.00    -0.064 C 
ATOM     27  C   UNL     1      20.091  26.993   3.981  0.00  0.00    +0.066 C 
ENDBRANCH  19  20
ENDBRANCH  18  19
ENDBRANCH  14  15
ENDBRANCH  12  13
TORSDOF 6
ENDMDL
MODEL 5
REMARK VINA RESULT:      -7.7      2.438     13.319
REMARK  Name = C:\Users\Docking\Desktop\test protocol\1iep_ligandH.pdb
REMARK  8 active torsions:
REMARK  status: ('A' for Active; 'I' for Inactive)
REMARK    1  A    between atoms: _5  and  _11
REMARK    2  A    between atoms: _19  and  _21
REMARK    3  A    between atoms: _22  and  _66
REMARK    4  A    between atoms: _27  and  _30
REMARK    5  A    between atoms: _32  and  _33
REMARK    6  A    between atoms: _38  and  _43
REMARK    7  A    between atoms: _43  and  _46
REMARK    8  A    between atoms: _53  and  _55
REMARK                            x       y       z     vdW  Elec       q    Type
REMARK                         _______ _______ _______ _____ _____    ______ ____
ROOT
ATOM     10  C   UNL     1      12.758  23.954   8.163  0.00  0.00    +0.038 A 
ATOM     11  C   UNL     1      13.912  24.329   7.430  0.00  0.00    +0.047 A 
ATOM     12  C   UNL     1      15.238  23.893   7.839  0.00  0.00    +0.035 A 
ATOM     32  C   UNL     1      15.352  23.072   8.998  0.00  0.00    +0.024 A 
ATOM     33  C   UNL     1      14.189  22.681   9.756  0.00  0.00    +0.007 A 
ATOM     34  C   UNL     1      12.878  23.111   9.359  0.00  0.00    -0.029 A 
ATOM     35  C   UNL     1      11.667  22.667  10.212  0.00  0.00    +0.045 C 
ENDROOT
BRANCH  10   9
ATOM      4  C   UNL     1       9.203  27.178   8.094  0.00  0.00    +0.077 A 
ATOM      5  C   UNL     1       9.878  28.030   9.030  0.00  0.00    +0.048 A 
ATOM      6  C   UNL     1      11.135  27.599   9.510  0.00  0.00    +0.116 A 
ATOM      7  N   UNL     1      11.667  26.403   9.080  0.00  0.00    -0.223 NA
ATOM      8  C   UNL     1      10.989  25.604   8.178  0.00  0.00    +0.220 A 
ATOM      9  N   UNL     1      11.509  24.401   7.725  0.00  0.00    -0.283 N 
ATOM     36  H   UNL     1      10.974  23.837   7.065  0.00  0.00    +0.155 HD
ATOM     37  N   UNL     1       9.787  25.993   7.705  0.00  0.00    -0.214 NA
BRANCH   4   3
ATOM      1  C   UNL     1       5.559  26.856   6.707  0.00  0.00    +0.020 A 
ATOM      2  C   UNL     1       6.831  26.495   7.291  0.00  0.00    +0.013 A 
ATOM      3  C   UNL     1       7.869  27.497   7.493  0.00  0.00    +0.019 A 
ATOM     38  C   UNL     1       7.587  28.867   7.092  0.00  0.00    +0.120 A 
ATOM     39  N   UNL     1       6.354  29.185   6.531  0.00  0.00    -0.263 NA
ATOM     40  C   UNL     1       5.348  28.228   6.330  0.00  0.00    +0.111 A 
ENDBRANCH   4   3
ENDBRANCH  10   9
BRANCH  12  13
ATOM     13  N   UNL     1      16.448  24.250   7.139  0.00  0.00    -0.281 N 
ATOM     14  C   UNL     1      17.136  23.506   6.195  0.00  0.00    +0.248 C 
ATOM     30  O   UNL     1      16.932  22.323   5.963  0.00  0.00    -0.270 OA
ATOM     31  H   UNL     1      16.844  25.161   7.368  0.00  0.00    +0.155 HD
BRANCH  14  15
ATOM     15  C   UNL     1      18.217  24.167   5.402  0.00  0.00    +0.037 A 
ATOM     16  C   UNL     1      17.920  25.271   4.486  0.00  0.00    +0.013 A 
ATOM     17  C   UNL     1      18.979  25.880   3.721  0.00  0.00    +0.005 A 
ATOM     18  C   UNL     1      20.346  25.387   3.871  0.00  0.00    -0.033 A 
ATOM     28  C   UNL     1      20.613  24.294   4.791  0.00  0.00    +0.005 A 
ATOM     29  C   UNL     1      19.578  23.694   5.542  0.00  0.00    +0.013 A 
BRANCH  18  19
ATOM     19  C   UNL     1      21.535  25.963   3.079  0.00  0.00    +0.119 C 
BRANCH  19  20
ATOM     20  N   UNL     1      22.092  25.125   1.976  0.00  0.00    -0.302 NA
ATOM     21  C   UNL     1      23.414  24.461   2.371  0.00  0.00    +0.066 C 
ATOM     22  C   UNL     1      23.972  23.570   1.213  0.00  0.00    -0.064 C 
ATOM     23  N   UNL     1      24.149  24.423  -0.044  0.00  0.00    +0.379 N 
ATOM     24  C   UNL     1      24.727  23.602  -1.117  0.00  0.00    -0.096 C 
ATOM     25  H   UNL     1      24.880  25.230   0.196  0.00  0.00    -0.082 HD
ATOM     26  C   UNL     1      22.840  25.090  -0.442  0.00  0.00    -0.064 C 
ATOM     27  C   UNL     1      22.279  25.949   0.726  0.00  0.00    +0.066 C 
ENDBRANCH  19  20
ENDBRANCH  18  19
ENDBRANCH  14  15
ENDBRANCH  12  13
TORSDOF 6
ENDMDL
