MODEL 1
REMARK VINA RESULT:      -8.1      0.000      0.000
REMARK  Name = C:\Users\Docking\Desktop\test protocol\1iep_ligandH.pdb
REMARK  8 active torsions:
REMARK  status: ('A' for Active; 'I' for Inactive)
REMARK    1  A    between atoms: _5  and  _11
REMARK    2  A    between atoms: _19  and  _21
REMARK    3  A    between atoms: _22  and  _66
REMARK    4  A    between atoms: _27  and  _30
REMARK    5  A    between atoms: _32  and  _33
REMARK    6  A    between atoms: _38  and  _43
REMARK    7  A    between atoms: _43  and  _46
REMARK    8  A    between atoms: _53  and  _55
REMARK                            x       y       z     vdW  Elec       q    Type
REMARK                         _______ _______ _______ _____ _____    ______ ____
ROOT
ATOM     10  C   UNL     1      25.447   3.199   2.420  0.00  0.00    +0.038 A 
ATOM     11  C   UNL     1      24.440   2.677   1.568  0.00  0.00    +0.047 A 
ATOM     12  C   UNL     1      23.083   2.465   2.048  0.00  0.00    +0.035 A 
ATOM     32  C   UNL     1      22.786   2.797   3.402  0.00  0.00    +0.024 A 
ATOM     33  C   UNL     1      23.798   3.327   4.282  0.00  0.00    +0.007 A 
ATOM     34  C   UNL     1      25.138   3.536   3.815  0.00  0.00    -0.029 A 
ATOM     35  C   UNL     1      26.184   4.101   4.804  0.00  0.00    +0.045 C 
ENDROOT
BRANCH  10   9
ATOM      4  C   UNL     1      29.907   1.667   1.528  0.00  0.00    +0.077 A 
ATOM      5  C   UNL     1      29.664   0.404   2.163  0.00  0.00    +0.048 A 
ATOM      6  C   UNL     1      28.380   0.191   2.713  0.00  0.00    +0.116 A 
ATOM      7  N   UNL     1      27.418   1.175   2.628  0.00  0.00    -0.223 NA
ATOM      8  C   UNL     1      27.687   2.382   2.010  0.00  0.00    +0.220 A 
ATOM      9  N   UNL     1      26.732   3.383   1.906  0.00  0.00    -0.283 N 
ATOM     36  H   UNL     1      26.972   4.262   1.449  0.00  0.00    +0.155 HD
ATOM     37  N   UNL     1      28.905   2.611   1.479  0.00  0.00    -0.214 NA
BRANCH   4   3
ATOM      1  C   UNL     1      33.734   2.063   0.821  0.00  0.00    +0.020 A 
ATOM      2  C   UNL     1      32.502   1.678   1.471  0.00  0.00    +0.013 A 
ATOM      3  C   UNL     1      31.213   2.041   0.897  0.00  0.00    +0.019 A 
ATOM     38  C   UNL     1      31.204   2.800  -0.345  0.00  0.00    +0.120 A 
ATOM     39  N   UNL     1      32.406   3.158  -0.947  0.00  0.00    -0.263 NA
ATOM     40  C   UNL     1      33.653   2.815  -0.403  0.00  0.00    +0.111 A 
ENDBRANCH   4   3
ENDBRANCH  10   9
BRANCH  12  13
ATOM     13  N   UNL     1      22.021   1.931   1.232  0.00  0.00    -0.281 N 
ATOM     14  C   UNL     1      21.544   0.631   1.199  0.00  0.00    +0.248 C 
ATOM     30  O   UNL     1      22.104  -0.324   1.716  0.00  0.00    -0.270 OA
ATOM     31  H   UNL     1      21.567   2.592   0.601  0.00  0.00    +0.155 HD
BRANCH  14  15
ATOM     15  C   UNL     1      20.267   0.349   0.474  0.00  0.00    +0.037 A 
ATOM     16  C   UNL     1      20.267  -0.291  -0.844  0.00  0.00    +0.013 A 
ATOM     17  C   UNL     1      19.022  -0.536  -1.528  0.00  0.00    +0.005 A 
ATOM     18  C   UNL     1      17.767  -0.142  -0.894  0.00  0.00    -0.033 A 
ATOM     28  C   UNL     1      17.796   0.486   0.416  0.00  0.00    +0.005 A 
ATOM     29  C   UNL     1      19.014   0.729   1.090  0.00  0.00    +0.013 A 
BRANCH  18  19
ATOM     19  C   UNL     1      16.393  -0.346  -1.560  0.00  0.00    +0.119 C 
BRANCH  19  20
ATOM     20  N   UNL     1      15.510   0.851  -1.688  0.00  0.00    -0.302 NA
ATOM     21  C   UNL     1      14.088   0.474  -2.111  0.00  0.00    +0.066 C 
ATOM     22  C   UNL     1      13.172   1.737  -2.218  0.00  0.00    -0.064 C 
ATOM     23  N   UNL     1      13.787   2.727  -3.208  0.00  0.00    +0.379 N 
ATOM     24  C   UNL     1      12.899   3.890  -3.354  0.00  0.00    -0.096 C 
ATOM     25  H   UNL     1      13.847   2.221  -4.199  0.00  0.00    -0.082 HD
ATOM     26  C   UNL     1      15.203   3.106  -2.796  0.00  0.00    -0.064 C 
ATOM     27  C   UNL     1      16.097   1.841  -2.664  0.00  0.00    +0.066 C 
ENDBRANCH  19  20
ENDBRANCH  18  19
ENDBRANCH  14  15
ENDBRANCH  12  13
TORSDOF 6
ENDMDL
MODEL 2
REMARK VINA RESULT:      -7.9      1.752      2.467
REMARK  Name = C:\Users\Docking\Desktop\test protocol\1iep_ligandH.pdb
REMARK  8 active torsions:
REMARK  status: ('A' for Active; 'I' for Inactive)
REMARK    1  A    between atoms: _5  and  _11
REMARK    2  A    between atoms: _19  and  _21
REMARK    3  A    between atoms: _22  and  _66
REMARK    4  A    between atoms: _27  and  _30
REMARK    5  A    between atoms: _32  and  _33
REMARK    6  A    between atoms: _38  and  _43
REMARK    7  A    between atoms: _43  and  _46
REMARK    8  A    between atoms: _53  and  _55
REMARK                            x       y       z     vdW  Elec       q    Type
REMARK                         _______ _______ _______ _____ _____    ______ ____
ROOT
ATOM     10  C   UNL     1      25.776   3.177   2.438  0.00  0.00    +0.038 A 
ATOM     11  C   UNL     1      24.801   2.592   1.590  0.00  0.00    +0.047 A 
ATOM     12  C   UNL     1      23.434   2.391   2.042  0.00  0.00    +0.035 A 
ATOM     32  C   UNL     1      23.092   2.801   3.364  0.00  0.00    +0.024 A 
ATOM     33  C   UNL     1      24.071   3.398   4.239  0.00  0.00    +0.007 A 
ATOM     34  C   UNL     1      25.422   3.596   3.799  0.00  0.00    -0.029 A 
ATOM     35  C   UNL     1      26.431   4.234   4.783  0.00  0.00    +0.045 C 
ENDROOT
BRANCH  10   9
ATOM      4  C   UNL     1      30.212   1.566   1.565  0.00  0.00    +0.077 A 
ATOM      5  C   UNL     1      29.927   0.288   2.151  0.00  0.00    +0.048 A 
ATOM      6  C   UNL     1      28.629   0.088   2.672  0.00  0.00    +0.116 A 
ATOM      7  N   UNL     1      27.694   1.098   2.606  0.00  0.00    -0.223 NA
ATOM      8  C   UNL     1      28.002   2.319   2.036  0.00  0.00    +0.220 A 
ATOM      9  N   UNL     1      27.075   3.346   1.952  0.00  0.00    -0.283 N 
ATOM     36  H   UNL     1      27.343   4.235   1.530  0.00  0.00    +0.155 HD
ATOM     37  N   UNL     1      29.235   2.536   1.532  0.00  0.00    -0.214 NA
BRANCH   4   3
ATOM      1  C   UNL     1      34.059   1.984   0.992  0.00  0.00    +0.020 A 
ATOM      2  C   UNL     1      32.807   1.612   1.610  0.00  0.00    +0.013 A 
ATOM      3  C   UNL     1      31.537   1.928   0.969  0.00  0.00    +0.019 A 
ATOM     38  C   UNL     1      31.568   2.626  -0.308  0.00  0.00    +0.120 A 
ATOM     39  N   UNL     1      32.789   2.973  -0.878  0.00  0.00    -0.263 NA
ATOM     40  C   UNL     1      34.018   2.675  -0.270  0.00  0.00    +0.111 A 
ENDBRANCH   4   3
ENDBRANCH  10   9
BRANCH  12  13
ATOM     13  N   UNL     1      22.403   1.794   1.229  0.00  0.00    -0.281 N 
ATOM     14  C   UNL     1      21.704   0.622   1.466  0.00  0.00    +0.248 C 
ATOM     30  O   UNL     1      22.009  -0.207   2.310  0.00  0.00    -0.270 OA
ATOM     31  H   UNL     1      22.160   2.297   0.376  0.00  0.00    +0.155 HD
BRANCH  14  15
ATOM     15  C   UNL     1      20.498   0.320   0.635  0.00  0.00    +0.037 A 
ATOM     16  C   UNL     1      19.262   1.093   0.781  0.00  0.00    +0.013 A 
ATOM     17  C   UNL     1      18.109   0.770  -0.021  0.00  0.00    +0.005 A 
ATOM     18  C   UNL     1      18.187  -0.331  -0.977  0.00  0.00    -0.033 A 
ATOM     28  C   UNL     1      19.427  -1.078  -1.105  0.00  0.00    +0.005 A 
ATOM     29  C   UNL     1      20.560  -0.765  -0.320  0.00  0.00    +0.013 A 
BRANCH  18  19
ATOM     19  C   UNL     1      16.999  -0.760  -1.859  0.00  0.00    +0.119 C 
BRANCH  19  20
ATOM     20  N   UNL     1      17.126  -0.543  -3.331  0.00  0.00    -0.302 NA
ATOM     21  C   UNL     1      18.040  -1.582  -3.987  0.00  0.00    +0.066 C 
ATOM     22  C   UNL     1      18.144  -1.353  -5.531  0.00  0.00    -0.064 C 
ATOM     23  N   UNL     1      18.653   0.063  -5.801  0.00  0.00    +0.379 N 
ATOM     24  C   UNL     1      18.808   0.262  -7.249  0.00  0.00    -0.096 C 
ATOM     25  H   UNL     1      19.663   0.154  -5.337  0.00  0.00    -0.082 HD
ATOM     26  C   UNL     1      17.752   1.103  -5.149  0.00  0.00    -0.064 C 
ATOM     27  C   UNL     1      17.632   0.849  -3.620  0.00  0.00    +0.066 C 
ENDBRANCH  19  20
ENDBRANCH  18  19
ENDBRANCH  14  15
ENDBRANCH  12  13
TORSDOF 6
ENDMDL
MODEL 3
REMARK VINA RESULT:      -7.9      1.541      1.859
REMARK  Name = C:\Users\Docking\Desktop\test protocol\1iep_ligandH.pdb
REMARK  8 active torsions:
REMARK  status: ('A' for Active; 'I' for Inactive)
REMARK    1  A    between atoms: _5  and  _11
REMARK    2  A    between atoms: _19  and  _21
REMARK    3  A    between atoms: _22  and  _66
REMARK    4  A    between atoms: _27  and  _30
REMARK    5  A    between atoms: _32  and  _33
REMARK    6  A    between atoms: _38  and  _43
REMARK    7  A    between atoms: _43  and  _46
REMARK    8  A    between atoms: _53  and  _55
REMARK                            x       y       z     vdW  Elec       q    Type
REMARK                         _______ _______ _______ _____ _____    ______ ____
ROOT
ATOM     10  C   UNL     1      25.275   3.253   2.622  0.00  0.00    +0.038 A 
ATOM     11  C   UNL     1      24.136   2.917   1.846  0.00  0.00    +0.047 A 
ATOM     12  C   UNL     1      22.826   2.764   2.460  0.00  0.00    +0.035 A 
ATOM     32  C   UNL     1      22.712   2.962   3.867  0.00  0.00    +0.024 A 
ATOM     33  C   UNL     1      23.859   3.303   4.671  0.00  0.00    +0.007 A 
ATOM     34  C   UNL     1      25.154   3.453   4.071  0.00  0.00    -0.029 A 
ATOM     35  C   UNL     1      26.351   3.813   4.982  0.00  0.00    +0.045 C 
ENDROOT
BRANCH  10   9
ATOM      4  C   UNL     1      29.635   1.626   1.447  0.00  0.00    +0.077 A 
ATOM      5  C   UNL     1      29.451   0.417   2.196  0.00  0.00    +0.048 A 
ATOM      6  C   UNL     1      28.222   0.256   2.876  0.00  0.00    +0.116 A 
ATOM      7  N   UNL     1      27.257   1.237   2.804  0.00  0.00    -0.223 NA
ATOM      8  C   UNL     1      27.468   2.392   2.073  0.00  0.00    +0.220 A 
ATOM      9  N   UNL     1      26.508   3.388   1.980  0.00  0.00    -0.283 N 
ATOM     36  H   UNL     1      26.705   4.228   1.438  0.00  0.00    +0.155 HD
ATOM     37  N   UNL     1      28.633   2.570   1.417  0.00  0.00    -0.214 NA
BRANCH   4   3
ATOM      1  C   UNL     1      32.080   2.779  -1.380  0.00  0.00    +0.020 A 
ATOM      2  C   UNL     1      30.852   2.492  -0.676  0.00  0.00    +0.013 A 
ATOM      3  C   UNL     1      30.877   1.941   0.673  0.00  0.00    +0.019 A 
ATOM     38  C   UNL     1      32.173   1.691   1.287  0.00  0.00    +0.120 A 
ATOM     39  N   UNL     1      33.339   1.976   0.584  0.00  0.00    -0.263 NA
ATOM     40  C   UNL     1      33.327   2.505  -0.715  0.00  0.00    +0.111 A 
ENDBRANCH   4   3
ENDBRANCH  10   9
BRANCH  12  13
ATOM     13  N   UNL     1      21.635   2.416   1.725  0.00  0.00    -0.281 N 
ATOM     14  C   UNL     1      20.556   3.228   1.419  0.00  0.00    +0.248 C 
ATOM     30  O   UNL     1      20.353   4.325   1.918  0.00  0.00    -0.270 OA
ATOM     31  H   UNL     1      21.582   1.454   1.389  0.00  0.00    +0.155 HD
BRANCH  14  15
ATOM     15  C   UNL     1      19.548   2.747   0.426  0.00  0.00    +0.037 A 
ATOM     16  C   UNL     1      19.835   1.615  -0.460  0.00  0.00    +0.013 A 
ATOM     17  C   UNL     1      18.851   1.181  -1.420  0.00  0.00    +0.005 A 
ATOM     18  C   UNL     1      17.570   1.880  -1.499  0.00  0.00    -0.033 A 
ATOM     28  C   UNL     1      17.310   2.996  -0.605  0.00  0.00    +0.005 A 
ATOM     29  C   UNL     1      18.272   3.424   0.337  0.00  0.00    +0.013 A 
BRANCH  18  19
ATOM     19  C   UNL     1      16.471   1.499  -2.508  0.00  0.00    +0.119 C 
BRANCH  19  20
ATOM     20  N   UNL     1      15.053   1.671  -2.072  0.00  0.00    -0.302 NA
ATOM     21  C   UNL     1      14.310   0.335  -1.993  0.00  0.00    +0.066 C 
ATOM     22  C   UNL     1      12.835   0.532  -1.514  0.00  0.00    -0.064 C 
ATOM     23  N   UNL     1      12.118   1.495  -2.461  0.00  0.00    +0.379 N 
ATOM     24  C   UNL     1      10.714   1.637  -2.047  0.00  0.00    -0.096 C 
ATOM     25  H   UNL     1      12.126   1.038  -3.478  0.00  0.00    -0.082 HD
ATOM     26  C   UNL     1      12.852   2.826  -2.548  0.00  0.00    -0.064 C 
ATOM     27  C   UNL     1      14.325   2.616  -2.996  0.00  0.00    +0.066 C 
ENDBRANCH  19  20
ENDBRANCH  18  19
ENDBRANCH  14  15
ENDBRANCH  12  13
TORSDOF 6
ENDMDL
MODEL 4
REMARK VINA RESULT:      -7.7      3.267     13.556
REMARK  Name = C:\Users\Docking\Desktop\test protocol\1iep_ligandH.pdb
REMARK  8 active torsions:
REMARK  status: ('A' for Active; 'I' for Inactive)
REMARK    1  A    between atoms: _5  and  _11
REMARK    2  A    between atoms: _19  and  _21
REMARK    3  A    between atoms: _22  and  _66
REMARK    4  A    between atoms: _27  and  _30
REMARK    5  A    between atoms: _32  and  _33
REMARK    6  A    between atoms: _38  and  _43
REMARK    7  A    between atoms: _43  and  _46
REMARK    8  A    between atoms: _53  and  _55
REMARK                            x       y       z     vdW  Elec       q    Type
REMARK                         _______ _______ _______ _____ _____    ______ ____
ROOT
ATOM     10  C   UNL     1      25.251   0.790   2.186  0.00  0.00    +0.038 A 
ATOM     11  C   UNL     1      26.433   1.466   1.789  0.00  0.00    +0.047 A 
ATOM     12  C   UNL     1      27.731   1.092   2.326  0.00  0.00    +0.035 A 
ATOM     32  C   UNL     1      27.791   0.021   3.266  0.00  0.00    +0.024 A 
ATOM     33  C   UNL     1      26.599  -0.677   3.681  0.00  0.00    +0.007 A 
ATOM     34  C   UNL     1      25.315  -0.310   3.156  0.00  0.00    -0.029 A 
ATOM     35  C   UNL     1      24.071  -1.089   3.642  0.00  0.00    +0.045 C 
ENDROOT
BRANCH  10   9
ATOM      4  C   UNL     1      21.268   3.466   2.228  0.00  0.00    +0.077 A 
ATOM      5  C   UNL     1      21.636   4.101   3.461  0.00  0.00    +0.048 A 
ATOM      6  C   UNL     1      22.855   3.705   4.056  0.00  0.00    +0.116 A 
ATOM      7  N   UNL     1      23.639   2.745   3.453  0.00  0.00    -0.223 NA
ATOM      8  C   UNL     1      23.254   2.152   2.265  0.00  0.00    +0.220 A 
ATOM      9  N   UNL     1      24.031   1.190   1.637  0.00  0.00    -0.283 N 
ATOM     36  H   UNL     1      23.708   0.771   0.766  0.00  0.00    +0.155 HD
ATOM     37  N   UNL     1      22.094   2.512   1.678  0.00  0.00    -0.214 NA
BRANCH   4   3
ATOM      1  C   UNL     1      17.884   5.089   1.125  0.00  0.00    +0.020 A 
ATOM      2  C   UNL     1      19.083   4.826   1.886  0.00  0.00    +0.013 A 
ATOM      3  C   UNL     1      20.011   3.780   1.476  0.00  0.00    +0.019 A 
ATOM     38  C   UNL     1      19.694   3.013   0.281  0.00  0.00    +0.120 A 
ATOM     39  N   UNL     1      18.531   3.287  -0.431  0.00  0.00    -0.263 NA
ATOM     40  C   UNL     1      17.630   4.291  -0.045  0.00  0.00    +0.111 A 
ENDBRANCH   4   3
ENDBRANCH  10   9
BRANCH  12  13
ATOM     13  N   UNL     1      28.964   1.748   1.966  0.00  0.00    -0.281 N 
ATOM     14  C   UNL     1      30.123   1.171   1.474  0.00  0.00    +0.248 C 
ATOM     30  O   UNL     1      30.350  -0.030   1.469  0.00  0.00    -0.270 OA
ATOM     31  H   UNL     1      28.984   2.760   2.090  0.00  0.00    +0.155 HD
BRANCH  14  15
ATOM     15  C   UNL     1      31.192   2.057   0.919  0.00  0.00    +0.037 A 
ATOM     16  C   UNL     1      32.589   1.916   1.337  0.00  0.00    +0.013 A 
ATOM     17  C   UNL     1      33.597   2.795   0.799  0.00  0.00    +0.005 A 
ATOM     18  C   UNL     1      33.210   3.823  -0.164  0.00  0.00    -0.033 A 
ATOM     28  C   UNL     1      31.818   3.938  -0.564  0.00  0.00    +0.005 A 
ATOM     29  C   UNL     1      30.827   3.079  -0.039  0.00  0.00    +0.013 A 
BRANCH  18  19
ATOM     19  C   UNL     1      34.215   4.819  -0.773  0.00  0.00    +0.119 C 
BRANCH  19  20
ATOM     20  N   UNL     1      35.065   4.329  -1.900  0.00  0.00    -0.302 NA
ATOM     21  C   UNL     1      36.312   3.594  -1.401  0.00  0.00    +0.066 C 
ATOM     22  C   UNL     1      37.178   3.070  -2.593  0.00  0.00    -0.064 C 
ATOM     23  N   UNL     1      37.565   4.243  -3.494  0.00  0.00    +0.379 N 
ATOM     24  C   UNL     1      38.427   3.762  -4.584  0.00  0.00    -0.096 C 
ATOM     25  H   UNL     1      38.161   4.958  -2.881  0.00  0.00    -0.082 HD
ATOM     26  C   UNL     1      36.330   4.981  -3.992  0.00  0.00    -0.064 C 
ATOM     27  C   UNL     1      35.462   5.473  -2.800  0.00  0.00    +0.066 C 
ENDBRANCH  19  20
ENDBRANCH  18  19
ENDBRANCH  14  15
ENDBRANCH  12  13
TORSDOF 6
ENDMDL
MODEL 5
REMARK VINA RESULT:      -7.6      3.742     12.484
REMARK  Name = C:\Users\Docking\Desktop\test protocol\1iep_ligandH.pdb
REMARK  8 active torsions:
REMARK  status: ('A' for Active; 'I' for Inactive)
REMARK    1  A    between atoms: _5  and  _11
REMARK    2  A    between atoms: _19  and  _21
REMARK    3  A    between atoms: _22  and  _66
REMARK    4  A    between atoms: _27  and  _30
REMARK    5  A    between atoms: _32  and  _33
REMARK    6  A    between atoms: _38  and  _43
REMARK    7  A    between atoms: _43  and  _46
REMARK    8  A    between atoms: _53  and  _55
REMARK                            x       y       z     vdW  Elec       q    Type
REMARK                         _______ _______ _______ _____ _____    ______ ____
ROOT
ATOM     10  C   UNL     1      17.460   1.654  -1.693  0.00  0.00    +0.038 A 
ATOM     11  C   UNL     1      18.639   1.892  -0.942  0.00  0.00    +0.047 A 
ATOM     12  C   UNL     1      18.801   3.109  -0.161  0.00  0.00    +0.035 A 
ATOM     32  C   UNL     1      17.741   4.061  -0.167  0.00  0.00    +0.024 A 
ATOM     33  C   UNL     1      16.536   3.836  -0.926  0.00  0.00    +0.007 A 
ATOM     34  C   UNL     1      16.372   2.639  -1.700  0.00  0.00    -0.029 A 
ATOM     35  C   UNL     1      15.061   2.453  -2.500  0.00  0.00    +0.045 C 
ENDROOT
BRANCH  10   9
ATOM      4  C   UNL     1      18.122  -0.927  -5.686  0.00  0.00    +0.077 A 
ATOM      5  C   UNL     1      18.697   0.188  -6.382  0.00  0.00    +0.048 A 
ATOM      6  C   UNL     1      18.797   1.410  -5.679  0.00  0.00    +0.116 A 
ATOM      7  N   UNL     1      18.354   1.499  -4.378  0.00  0.00    -0.223 NA
ATOM      8  C   UNL     1      17.803   0.404  -3.736  0.00  0.00    +0.220 A 
ATOM      9  N   UNL     1      17.358   0.469  -2.425  0.00  0.00    -0.283 N 
ATOM     36  H   UNL     1      16.951  -0.359  -1.990  0.00  0.00    +0.155 HD
ATOM     37  N   UNL     1      17.695  -0.773  -4.386  0.00  0.00    -0.214 NA
BRANCH   4   3
ATOM      1  C   UNL     1      17.352  -3.822  -8.200  0.00  0.00    +0.020 A 
ATOM      2  C   UNL     1      17.500  -2.489  -7.663  0.00  0.00    +0.013 A 
ATOM      3  C   UNL     1      17.951  -2.285  -6.292  0.00  0.00    +0.019 A 
ATOM     38  C   UNL     1      18.247  -3.459  -5.486  0.00  0.00    +0.120 A 
ATOM     39  N   UNL     1      18.094  -4.731  -6.030  0.00  0.00    -0.263 NA
ATOM     40  C   UNL     1      17.659  -4.940  -7.347  0.00  0.00    +0.111 A 
ENDBRANCH   4   3
ENDBRANCH  10   9
BRANCH  12  13
ATOM     13  N   UNL     1      19.979   3.408   0.615  0.00  0.00    -0.281 N 
ATOM     14  C   UNL     1      20.316   2.931   1.871  0.00  0.00    +0.248 C 
ATOM     30  O   UNL     1      19.548   2.336   2.613  0.00  0.00    -0.270 OA
ATOM     31  H   UNL     1      20.646   4.051   0.186  0.00  0.00    +0.155 HD
BRANCH  14  15
ATOM     15  C   UNL     1      21.701   3.159   2.383  0.00  0.00    +0.037 A 
ATOM     16  C   UNL     1      21.951   4.028   3.536  0.00  0.00    +0.013 A 
ATOM     17  C   UNL     1      23.299   4.244   3.999  0.00  0.00    +0.005 A 
ATOM     18  C   UNL     1      24.408   3.590   3.309  0.00  0.00    -0.033 A 
ATOM     28  C   UNL     1      24.130   2.730   2.170  0.00  0.00    +0.005 A 
ATOM     29  C   UNL     1      22.811   2.516   1.713  0.00  0.00    +0.013 A 
BRANCH  18  19
ATOM     19  C   UNL     1      25.879   3.781   3.721  0.00  0.00    +0.119 C 
BRANCH  19  20
ATOM     20  N   UNL     1      26.342   3.075   4.953  0.00  0.00    -0.302 NA
ATOM     21  C   UNL     1      26.300   3.984   6.185  0.00  0.00    +0.066 C 
ATOM     22  C   UNL     1      26.766   3.223   7.469  0.00  0.00    -0.064 C 
ATOM     23  N   UNL     1      28.176   2.673   7.249  0.00  0.00    +0.379 N 
ATOM     24  C   UNL     1      28.639   2.007   8.475  0.00  0.00    -0.096 C 
ATOM     25  H   UNL     1      28.851   3.539   7.059  0.00  0.00    -0.082 HD
ATOM     26  C   UNL     1      28.227   1.770   6.024  0.00  0.00    -0.064 C 
ATOM     27  C   UNL     1      27.734   2.527   4.759  0.00  0.00    +0.066 C 
ENDBRANCH  19  20
ENDBRANCH  18  19
ENDBRANCH  14  15
ENDBRANCH  12  13
TORSDOF 6
ENDMDL
