MODEL 1
REMARK VINA RESULT:     -11.1      0.000      0.000
REMARK  Name = C:\Users\Docking\Desktop\test protocol\1iep_ligandH.pdb
REMARK  8 active torsions:
REMARK  status: ('A' for Active; 'I' for Inactive)
REMARK    1  A    between atoms: _5  and  _11
REMARK    2  A    between atoms: _19  and  _21
REMARK    3  A    between atoms: _22  and  _66
REMARK    4  A    between atoms: _27  and  _30
REMARK    5  A    between atoms: _32  and  _33
REMARK    6  A    between atoms: _38  and  _43
REMARK    7  A    between atoms: _43  and  _46
REMARK    8  A    between atoms: _53  and  _55
REMARK                            x       y       z     vdW  Elec       q    Type
REMARK                         _______ _______ _______ _____ _____    ______ ____
ROOT
ATOM     10  C   UNL     1      -7.659  15.278  30.588  0.00  0.00    +0.038 A 
ATOM     11  C   UNL     1      -8.408  14.704  31.646  0.00  0.00    +0.047 A 
ATOM     12  C   UNL     1      -9.364  15.495  32.407  0.00  0.00    +0.035 A 
ATOM     32  C   UNL     1      -9.534  16.867  32.059  0.00  0.00    +0.024 A 
ATOM     33  C   UNL     1      -8.780  17.466  30.987  0.00  0.00    +0.007 A 
ATOM     34  C   UNL     1      -7.834  16.692  30.235  0.00  0.00    -0.029 A 
ATOM     35  C   UNL     1      -7.048  17.389  29.100  0.00  0.00    +0.045 C 
ENDROOT
BRANCH  10   9
ATOM      4  C   UNL     1      -3.407  13.097  30.140  0.00  0.00    +0.077 A 
ATOM      5  C   UNL     1      -2.937  13.628  31.387  0.00  0.00    +0.048 A 
ATOM      6  C   UNL     1      -3.817  14.464  32.109  0.00  0.00    +0.116 A 
ATOM      7  N   UNL     1      -5.072  14.741  31.612  0.00  0.00    -0.223 NA
ATOM      8  C   UNL     1      -5.494  14.214  30.406  0.00  0.00    +0.220 A 
ATOM      9  N   UNL     1      -6.755  14.473  29.891  0.00  0.00    -0.283 N 
ATOM     36  H   UNL     1      -7.026  14.071  28.994  0.00  0.00    +0.155 HD
ATOM     37  N   UNL     1      -4.672  13.414  29.696  0.00  0.00    -0.214 NA
BRANCH   4   3
ATOM      1  C   UNL     1      -0.515  10.868  28.736  0.00  0.00    +0.020 A 
ATOM      2  C   UNL     1      -1.257  11.739  29.619  0.00  0.00    +0.013 A 
ATOM      3  C   UNL     1      -2.595  12.195  29.263  0.00  0.00    +0.019 A 
ATOM     38  C   UNL     1      -3.157  11.749  27.997  0.00  0.00    +0.120 A 
ATOM     39  N   UNL     1      -2.419  10.911  27.167  0.00  0.00    -0.263 NA
ATOM     40  C   UNL     1      -1.130  10.467  27.498  0.00  0.00    +0.111 A 
ENDBRANCH   4   3
ENDBRANCH  10   9
BRANCH  12  13
ATOM     13  N   UNL     1     -10.147  14.969  33.497  0.00  0.00    -0.281 N 
ATOM     14  C   UNL     1     -11.389  14.359  33.437  0.00  0.00    +0.248 C 
ATOM     30  O   UNL     1     -12.116  14.366  32.455  0.00  0.00    -0.270 OA
ATOM     31  H   UNL     1      -9.735  15.056  34.426  0.00  0.00    +0.155 HD
BRANCH  14  15
ATOM     15  C   UNL     1     -11.906  13.653  34.649  0.00  0.00    +0.037 A 
ATOM     16  C   UNL     1     -13.123  12.839  34.592  0.00  0.00    +0.013 A 
ATOM     17  C   UNL     1     -13.609  12.181  35.780  0.00  0.00    +0.005 A 
ATOM     18  C   UNL     1     -12.876  12.335  37.034  0.00  0.00    -0.033 A 
ATOM     28  C   UNL     1     -11.669  13.144  37.061  0.00  0.00    +0.005 A 
ATOM     29  C   UNL     1     -11.190  13.791  35.899  0.00  0.00    +0.013 A 
BRANCH  18  19
ATOM     19  C   UNL     1     -13.334  11.687  38.354  0.00  0.00    +0.119 C 
BRANCH  19  20
ATOM     20  N   UNL     1     -12.983  10.252  38.569  0.00  0.00    -0.302 NA
ATOM     21  C   UNL     1     -12.573   9.971  40.018  0.00  0.00    +0.066 C 
ATOM     22  C   UNL     1     -12.231   8.460  40.231  0.00  0.00    -0.064 C 
ATOM     23  N   UNL     1     -11.117   8.052  39.264  0.00  0.00    +0.379 N 
ATOM     24  C   UNL     1     -10.753   6.647  39.501  0.00  0.00    -0.096 C 
ATOM     25  H   UNL     1     -10.224   8.677  39.495  0.00  0.00    -0.082 HD
ATOM     26  C   UNL     1     -11.515   8.330  37.822  0.00  0.00    -0.064 C 
ATOM     27  C   UNL     1     -11.882   9.828  37.628  0.00  0.00    +0.066 C 
ENDBRANCH  19  20
ENDBRANCH  18  19
ENDBRANCH  14  15
ENDBRANCH  12  13
TORSDOF 6
ENDMDL
MODEL 2
REMARK VINA RESULT:     -10.5      5.313     10.439
REMARK  Name = C:\Users\Docking\Desktop\test protocol\1iep_ligandH.pdb
REMARK  8 active torsions:
REMARK  status: ('A' for Active; 'I' for Inactive)
REMARK    1  A    between atoms: _5  and  _11
REMARK    2  A    between atoms: _19  and  _21
REMARK    3  A    between atoms: _22  and  _66
REMARK    4  A    between atoms: _27  and  _30
REMARK    5  A    between atoms: _32  and  _33
REMARK    6  A    between atoms: _38  and  _43
REMARK    7  A    between atoms: _43  and  _46
REMARK    8  A    between atoms: _53  and  _55
REMARK                            x       y       z     vdW  Elec       q    Type
REMARK                         _______ _______ _______ _____ _____    ______ ____
ROOT
ATOM     10  C   UNL     1      -5.210  12.456  28.541  0.00  0.00    +0.038 A 
ATOM     11  C   UNL     1      -4.673  11.208  28.945  0.00  0.00    +0.047 A 
ATOM     12  C   UNL     1      -3.459  10.680  28.342  0.00  0.00    +0.035 A 
ATOM     32  C   UNL     1      -2.816  11.453  27.332  0.00  0.00    +0.024 A 
ATOM     33  C   UNL     1      -3.349  12.724  26.908  0.00  0.00    +0.007 A 
ATOM     34  C   UNL     1      -4.548  13.248  27.498  0.00  0.00    -0.029 A 
ATOM     35  C   UNL     1      -5.077  14.613  27.000  0.00  0.00    +0.045 C 
ENDROOT
BRANCH  10   9
ATOM      4  C   UNL     1      -7.511  14.967  31.924  0.00  0.00    +0.077 A 
ATOM      5  C   UNL     1      -6.282  15.379  32.538  0.00  0.00    +0.048 A 
ATOM      6  C   UNL     1      -5.079  14.917  31.957  0.00  0.00    +0.116 A 
ATOM      7  N   UNL     1      -5.116  14.105  30.844  0.00  0.00    -0.223 NA
ATOM      8  C   UNL     1      -6.319  13.725  30.278  0.00  0.00    +0.220 A 
ATOM      9  N   UNL     1      -6.379  12.915  29.154  0.00  0.00    -0.283 N 
ATOM     36  H   UNL     1      -7.286  12.651  28.771  0.00  0.00    +0.155 HD
ATOM     37  N   UNL     1      -7.481  14.151  30.815  0.00  0.00    -0.214 NA
BRANCH   4   3
ATOM      1  C   UNL     1     -10.390  16.493  34.088  0.00  0.00    +0.020 A 
ATOM      2  C   UNL     1      -9.062  16.123  33.655  0.00  0.00    +0.013 A 
ATOM      3  C   UNL     1      -8.864  15.375  32.419  0.00  0.00    +0.019 A 
ATOM     38  C   UNL     1     -10.038  15.016  31.639  0.00  0.00    +0.120 A 
ATOM     39  N   UNL     1     -11.304  15.385  32.083  0.00  0.00    -0.263 NA
ATOM     40  C   UNL     1     -11.508  16.102  33.271  0.00  0.00    +0.111 A 
ENDBRANCH   4   3
ENDBRANCH  10   9
BRANCH  12  13
ATOM     13  N   UNL     1      -2.871   9.415  28.706  0.00  0.00    -0.281 N 
ATOM     14  C   UNL     1      -1.742   9.190  29.476  0.00  0.00    +0.248 C 
ATOM     30  O   UNL     1      -0.939  10.055  29.794  0.00  0.00    -0.270 OA
ATOM     31  H   UNL     1      -3.345   8.584  28.352  0.00  0.00    +0.155 HD
BRANCH  14  15
ATOM     15  C   UNL     1      -1.455   7.802  29.950  0.00  0.00    +0.037 A 
ATOM     16  C   UNL     1      -0.720   7.560  31.194  0.00  0.00    +0.013 A 
ATOM     17  C   UNL     1      -0.442   6.211  31.619  0.00  0.00    +0.005 A 
ATOM     18  C   UNL     1      -0.902   5.093  30.800  0.00  0.00    -0.033 A 
ATOM     28  C   UNL     1      -1.634   5.361  29.573  0.00  0.00    +0.005 A 
ATOM     29  C   UNL     1      -1.907   6.682  29.152  0.00  0.00    +0.013 A 
BRANCH  18  19
ATOM     19  C   UNL     1      -0.632   3.621  31.165  0.00  0.00    +0.119 C 
BRANCH  19  20
ATOM     20  N   UNL     1      -1.449   3.030  32.267  0.00  0.00    -0.302 NA
ATOM     21  C   UNL     1      -2.944   3.307  32.086  0.00  0.00    +0.066 C 
ATOM     22  C   UNL     1      -3.786   2.662  33.234  0.00  0.00    -0.064 C 
ATOM     23  N   UNL     1      -3.295   3.193  34.583  0.00  0.00    +0.379 N 
ATOM     24  C   UNL     1      -4.123   2.633  35.661  0.00  0.00    -0.096 C 
ATOM     25  H   UNL     1      -3.441   4.298  34.584  0.00  0.00    -0.082 HD
ATOM     26  C   UNL     1      -1.809   2.923  34.769  0.00  0.00    -0.064 C 
ATOM     27  C   UNL     1      -0.984   3.544  33.607  0.00  0.00    +0.066 C 
ENDBRANCH  19  20
ENDBRANCH  18  19
ENDBRANCH  14  15
ENDBRANCH  12  13
TORSDOF 6
ENDMDL
MODEL 3
REMARK VINA RESULT:     -10.2      1.948     11.150
REMARK  Name = C:\Users\Docking\Desktop\test protocol\1iep_ligandH.pdb
REMARK  8 active torsions:
REMARK  status: ('A' for Active; 'I' for Inactive)
REMARK    1  A    between atoms: _5  and  _11
REMARK    2  A    between atoms: _19  and  _21
REMARK    3  A    between atoms: _22  and  _66
REMARK    4  A    between atoms: _27  and  _30
REMARK    5  A    between atoms: _32  and  _33
REMARK    6  A    between atoms: _38  and  _43
REMARK    7  A    between atoms: _43  and  _46
REMARK    8  A    between atoms: _53  and  _55
REMARK                            x       y       z     vdW  Elec       q    Type
REMARK                         _______ _______ _______ _____ _____    ______ ____
ROOT
ATOM     10  C   UNL     1     -12.216  11.735  37.807  0.00  0.00    +0.038 A 
ATOM     11  C   UNL     1     -11.602  12.264  36.643  0.00  0.00    +0.047 A 
ATOM     12  C   UNL     1     -12.113  13.466  36.003  0.00  0.00    +0.035 A 
ATOM     32  C   UNL     1     -13.250  14.106  36.577  0.00  0.00    +0.024 A 
ATOM     33  C   UNL     1     -13.887  13.581  37.760  0.00  0.00    +0.007 A 
ATOM     34  C   UNL     1     -13.389  12.394  38.394  0.00  0.00    -0.029 A 
ATOM     35  C   UNL     1     -14.116  11.873  39.655  0.00  0.00    +0.045 C 
ENDROOT
BRANCH  10   9
ATOM      4  C   UNL     1     -12.060   6.969  38.356  0.00  0.00    +0.077 A 
ATOM      5  C   UNL     1     -13.149   6.769  37.444  0.00  0.00    +0.048 A 
ATOM      6  C   UNL     1     -13.726   7.919  36.860  0.00  0.00    +0.116 A 
ATOM      7  N   UNL     1     -13.242   9.171  37.173  0.00  0.00    -0.223 NA
ATOM      8  C   UNL     1     -12.192   9.329  38.058  0.00  0.00    +0.220 A 
ATOM      9  N   UNL     1     -11.684  10.578  38.380  0.00  0.00    -0.283 N 
ATOM     36  H   UNL     1     -10.913  10.653  39.043  0.00  0.00    +0.155 HD
ATOM     37  N   UNL     1     -11.624   8.247  38.630  0.00  0.00    -0.214 NA
BRANCH   4   3
ATOM      1  C   UNL     1      -9.472   4.941  40.475  0.00  0.00    +0.020 A 
ATOM      2  C   UNL     1     -10.124   6.054  39.823  0.00  0.00    +0.013 A 
ATOM      3  C   UNL     1     -11.344   5.853  39.051  0.00  0.00    +0.019 A 
ATOM     38  C   UNL     1     -11.883   4.504  38.959  0.00  0.00    +0.120 A 
ATOM     39  N   UNL     1     -11.232   3.453  39.596  0.00  0.00    -0.263 NA
ATOM     40  C   UNL     1     -10.056   3.633  40.340  0.00  0.00    +0.111 A 
ENDBRANCH   4   3
ENDBRANCH  10   9
BRANCH  12  13
ATOM     13  N   UNL     1     -11.536  14.045  34.815  0.00  0.00    -0.281 N 
ATOM     14  C   UNL     1     -10.970  15.301  34.668  0.00  0.00    +0.248 C 
ATOM     30  O   UNL     1     -11.066  16.203  35.488  0.00  0.00    -0.270 OA
ATOM     31  H   UNL     1     -11.547  13.458  33.981  0.00  0.00    +0.155 HD
BRANCH  14  15
ATOM     15  C   UNL     1     -10.197  15.603  33.426  0.00  0.00    +0.037 A 
ATOM     16  C   UNL     1     -10.628  15.097  32.120  0.00  0.00    +0.013 A 
ATOM     17  C   UNL     1      -9.854  15.389  30.940  0.00  0.00    +0.005 A 
ATOM     18  C   UNL     1      -8.641  16.195  31.059  0.00  0.00    -0.033 A 
ATOM     28  C   UNL     1      -8.240  16.689  32.366  0.00  0.00    +0.005 A 
ATOM     29  C   UNL     1      -8.995  16.403  33.526  0.00  0.00    +0.013 A 
BRANCH  18  19
ATOM     19  C   UNL     1      -7.743  16.538  29.856  0.00  0.00    +0.119 C 
BRANCH  19  20
ATOM     20  N   UNL     1      -6.620  15.602  29.553  0.00  0.00    -0.302 NA
ATOM     21  C   UNL     1      -7.076  14.141  29.543  0.00  0.00    +0.066 C 
ATOM     22  C   UNL     1      -5.893  13.177  29.201  0.00  0.00    -0.064 C 
ATOM     23  N   UNL     1      -4.763  13.385  30.210  0.00  0.00    +0.379 N 
ATOM     24  C   UNL     1      -3.673  12.440  29.927  0.00  0.00    -0.096 C 
ATOM     25  H   UNL     1      -5.164  13.144  31.222  0.00  0.00    -0.082 HD
ATOM     26  C   UNL     1      -4.305  14.836  30.228  0.00  0.00    -0.064 C 
ATOM     27  C   UNL     1      -5.494  15.787  30.540  0.00  0.00    +0.066 C 
ENDBRANCH  19  20
ENDBRANCH  18  19
ENDBRANCH  14  15
ENDBRANCH  12  13
TORSDOF 6
ENDMDL
MODEL 4
REMARK VINA RESULT:     -10.0      1.913      2.986
REMARK  Name = C:\Users\Docking\Desktop\test protocol\1iep_ligandH.pdb
REMARK  8 active torsions:
REMARK  status: ('A' for Active; 'I' for Inactive)
REMARK    1  A    between atoms: _5  and  _11
REMARK    2  A    between atoms: _19  and  _21
REMARK    3  A    between atoms: _22  and  _66
REMARK    4  A    between atoms: _27  and  _30
REMARK    5  A    between atoms: _32  and  _33
REMARK    6  A    between atoms: _38  and  _43
REMARK    7  A    between atoms: _43  and  _46
REMARK    8  A    between atoms: _53  and  _55
REMARK                            x       y       z     vdW  Elec       q    Type
REMARK                         _______ _______ _______ _____ _____    ______ ____
ROOT
ATOM     10  C   UNL     1      -7.558  15.241  30.287  0.00  0.00    +0.038 A 
ATOM     11  C   UNL     1      -8.352  14.681  31.321  0.00  0.00    +0.047 A 
ATOM     12  C   UNL     1      -9.284  15.500  32.080  0.00  0.00    +0.035 A 
ATOM     32  C   UNL     1      -9.385  16.885  31.758  0.00  0.00    +0.024 A 
ATOM     33  C   UNL     1      -8.585  17.470  30.711  0.00  0.00    +0.007 A 
ATOM     34  C   UNL     1      -7.662  16.668  29.960  0.00  0.00    -0.029 A 
ATOM     35  C   UNL     1      -6.825  17.350  28.853  0.00  0.00    +0.045 C 
ENDROOT
BRANCH  10   9
ATOM      4  C   UNL     1      -3.364  12.952  29.825  0.00  0.00    +0.077 A 
ATOM      5  C   UNL     1      -2.872  13.481  31.064  0.00  0.00    +0.048 A 
ATOM      6  C   UNL     1      -3.726  14.344  31.787  0.00  0.00    +0.116 A 
ATOM      7  N   UNL     1      -4.978  14.648  31.297  0.00  0.00    -0.223 NA
ATOM      8  C   UNL     1      -5.421  14.122  30.097  0.00  0.00    +0.220 A 
ATOM      9  N   UNL     1      -6.679  14.408  29.590  0.00  0.00    -0.283 N 
ATOM     36  H   UNL     1      -6.966  14.007  28.698  0.00  0.00    +0.155 HD
ATOM     37  N   UNL     1      -4.624  13.297  29.388  0.00  0.00    -0.214 NA
BRANCH   4   3
ATOM      1  C   UNL     1      -1.596  11.345  26.728  0.00  0.00    +0.020 A 
ATOM      2  C   UNL     1      -2.360  12.272  27.530  0.00  0.00    +0.013 A 
ATOM      3  C   UNL     1      -2.581  12.025  28.949  0.00  0.00    +0.019 A 
ATOM     38  C   UNL     1      -2.009  10.820  29.531  0.00  0.00    +0.120 A 
ATOM     39  N   UNL     1      -1.278   9.944  28.735  0.00  0.00    -0.263 NA
ATOM     40  C   UNL     1      -1.061  10.171  27.367  0.00  0.00    +0.111 A 
ENDBRANCH   4   3
ENDBRANCH  10   9
BRANCH  12  13
ATOM     13  N   UNL     1     -10.110  14.989  33.146  0.00  0.00    -0.281 N 
ATOM     14  C   UNL     1     -11.390  14.467  33.057  0.00  0.00    +0.248 C 
ATOM     30  O   UNL     1     -12.105  14.558  32.070  0.00  0.00    -0.270 OA
ATOM     31  H   UNL     1      -9.701  15.016  34.080  0.00  0.00    +0.155 HD
BRANCH  14  15
ATOM     15  C   UNL     1     -11.963  13.755  34.239  0.00  0.00    +0.037 A 
ATOM     16  C   UNL     1     -13.325  13.214  34.213  0.00  0.00    +0.013 A 
ATOM     17  C   UNL     1     -13.860  12.546  35.373  0.00  0.00    +0.005 A 
ATOM     18  C   UNL     1     -13.031  12.413  36.569  0.00  0.00    -0.033 A 
ATOM     28  C   UNL     1     -11.681  12.954  36.565  0.00  0.00    +0.005 A 
ATOM     29  C   UNL     1     -11.154  13.610  35.430  0.00  0.00    +0.013 A 
BRANCH  18  19
ATOM     19  C   UNL     1     -13.527  11.734  37.859  0.00  0.00    +0.119 C 
BRANCH  19  20
ATOM     20  N   UNL     1     -14.039  12.621  38.945  0.00  0.00    -0.302 NA
ATOM     21  C   UNL     1     -14.559  13.955  38.400  0.00  0.00    +0.066 C 
ATOM     22  C   UNL     1     -15.112  14.862  39.547  0.00  0.00    -0.064 C 
ATOM     23  N   UNL     1     -14.014  15.092  40.586  0.00  0.00    +0.379 N 
ATOM     24  C   UNL     1     -14.513  15.992  41.637  0.00  0.00    -0.096 C 
ATOM     25  H   UNL     1     -13.167  15.607  40.074  0.00  0.00    -0.082 HD
ATOM     26  C   UNL     1     -13.489  13.771  41.131  0.00  0.00    -0.064 C 
ATOM     27  C   UNL     1     -12.969  12.866  39.980  0.00  0.00    +0.066 C 
ENDBRANCH  19  20
ENDBRANCH  18  19
ENDBRANCH  14  15
ENDBRANCH  12  13
TORSDOF 6
ENDMDL
MODEL 5
REMARK VINA RESULT:     -10.0      1.666      2.570
REMARK  Name = C:\Users\Docking\Desktop\test protocol\1iep_ligandH.pdb
REMARK  8 active torsions:
REMARK  status: ('A' for Active; 'I' for Inactive)
REMARK    1  A    between atoms: _5  and  _11
REMARK    2  A    between atoms: _19  and  _21
REMARK    3  A    between atoms: _22  and  _66
REMARK    4  A    between atoms: _27  and  _30
REMARK    5  A    between atoms: _32  and  _33
REMARK    6  A    between atoms: _38  and  _43
REMARK    7  A    between atoms: _43  and  _46
REMARK    8  A    between atoms: _53  and  _55
REMARK                            x       y       z     vdW  Elec       q    Type
REMARK                         _______ _______ _______ _____ _____    ______ ____
ROOT
ATOM     10  C   UNL     1      -5.385  15.153  30.423  0.00  0.00    +0.038 A 
ATOM     11  C   UNL     1      -6.301  14.672  31.392  0.00  0.00    +0.047 A 
ATOM     12  C   UNL     1      -7.650  15.208  31.485  0.00  0.00    +0.035 A 
ATOM     32  C   UNL     1      -8.033  16.234  30.572  0.00  0.00    +0.024 A 
ATOM     33  C   UNL     1      -7.114  16.736  29.581  0.00  0.00    +0.007 A 
ATOM     34  C   UNL     1      -5.781  16.212  29.487  0.00  0.00    -0.029 A 
ATOM     35  C   UNL     1      -4.836  16.792  28.409  0.00  0.00    +0.045 C 
ENDROOT
BRANCH  10   9
ATOM      4  C   UNL     1      -2.340  11.597  29.363  0.00  0.00    +0.077 A 
ATOM      5  C   UNL     1      -3.398  10.756  28.881  0.00  0.00    +0.048 A 
ATOM      6  C   UNL     1      -4.712  11.273  28.930  0.00  0.00    +0.116 A 
ATOM      7  N   UNL     1      -4.939  12.539  29.425  0.00  0.00    -0.223 NA
ATOM      8  C   UNL     1      -3.897  13.323  29.884  0.00  0.00    +0.220 A 
ATOM      9  N   UNL     1      -4.102  14.602  30.379  0.00  0.00    -0.283 N 
ATOM     36  H   UNL     1      -3.308  15.146  30.714  0.00  0.00    +0.155 HD
ATOM     37  N   UNL     1      -2.633  12.852  29.849  0.00  0.00    -0.214 NA
BRANCH   4   3
ATOM      1  C   UNL     1       0.957   9.539  29.801  0.00  0.00    +0.020 A 
ATOM      2  C   UNL     1      -0.447   9.878  29.810  0.00  0.00    +0.013 A 
ATOM      3  C   UNL     1      -0.899  11.194  29.373  0.00  0.00    +0.019 A 
ATOM     38  C   UNL     1       0.104  12.149  28.928  0.00  0.00    +0.120 A 
ATOM     39  N   UNL     1       1.450  11.794  28.931  0.00  0.00    -0.263 NA
ATOM     40  C   UNL     1       1.896  10.533  29.351  0.00  0.00    +0.111 A 
ENDBRANCH   4   3
ENDBRANCH  10   9
BRANCH  12  13
ATOM     13  N   UNL     1      -8.621  14.764  32.454  0.00  0.00    -0.281 N 
ATOM     14  C   UNL     1      -9.531  15.533  33.161  0.00  0.00    +0.248 C 
ATOM     30  O   UNL     1      -9.502  16.753  33.226  0.00  0.00    -0.270 OA
ATOM     31  H   UNL     1      -8.641  13.762  32.640  0.00  0.00    +0.155 HD
BRANCH  14  15
ATOM     15  C   UNL     1     -10.621  14.846  33.918  0.00  0.00    +0.037 A 
ATOM     16  C   UNL     1     -11.703  14.144  33.223  0.00  0.00    +0.013 A 
ATOM     17  C   UNL     1     -12.752  13.505  33.977  0.00  0.00    +0.005 A 
ATOM     18  C   UNL     1     -12.723  13.564  35.437  0.00  0.00    -0.033 A 
ATOM     28  C   UNL     1     -11.636  14.263  36.101  0.00  0.00    +0.005 A 
ATOM     29  C   UNL     1     -10.606  14.892  35.365  0.00  0.00    +0.013 A 
BRANCH  18  19
ATOM     19  C   UNL     1     -13.812  12.928  36.321  0.00  0.00    +0.119 C 
BRANCH  19  20
ATOM     20  N   UNL     1     -13.499  11.611  36.951  0.00  0.00    -0.302 NA
ATOM     21  C   UNL     1     -12.267  11.686  37.857  0.00  0.00    +0.066 C 
ATOM     22  C   UNL     1     -11.967  10.305  38.525  0.00  0.00    -0.064 C 
ATOM     23  N   UNL     1     -11.776   9.246  37.438  0.00  0.00    +0.379 N 
ATOM     24  C   UNL     1     -11.436   7.958  38.061  0.00  0.00    -0.096 C 
ATOM     25  H   UNL     1     -10.908   9.558  36.811  0.00  0.00    -0.082 HD
ATOM     26  C   UNL     1     -12.995   9.167  36.530  0.00  0.00    -0.064 C 
ATOM     27  C   UNL     1     -13.302  10.551  35.895  0.00  0.00    +0.066 C 
ENDBRANCH  19  20
ENDBRANCH  18  19
ENDBRANCH  14  15
ENDBRANCH  12  13
TORSDOF 6
ENDMDL
