MODEL 1
REMARK VINA RESULT:      -8.7      0.000      0.000
REMARK  Name = C:\Users\Docking\Desktop\test protocol\1iep_ligandH.pdb
REMARK  8 active torsions:
REMARK  status: ('A' for Active; 'I' for Inactive)
REMARK    1  A    between atoms: _5  and  _11
REMARK    2  A    between atoms: _19  and  _21
REMARK    3  A    between atoms: _22  and  _66
REMARK    4  A    between atoms: _27  and  _30
REMARK    5  A    between atoms: _32  and  _33
REMARK    6  A    between atoms: _38  and  _43
REMARK    7  A    between atoms: _43  and  _46
REMARK    8  A    between atoms: _53  and  _55
REMARK                            x       y       z     vdW  Elec       q    Type
REMARK                         _______ _______ _______ _____ _____    ______ ____
ROOT
ATOM     10  C   UNL     1       2.529   8.306  31.842  0.00  0.00    +0.038 A 
ATOM     11  C   UNL     1       3.429   7.246  31.564  0.00  0.00    +0.047 A 
ATOM     12  C   UNL     1       4.852   7.377  31.834  0.00  0.00    +0.035 A 
ATOM     32  C   UNL     1       5.324   8.601  32.390  0.00  0.00    +0.024 A 
ATOM     33  C   UNL     1       4.424   9.690  32.678  0.00  0.00    +0.007 A 
ATOM     34  C   UNL     1       3.019   9.567  32.412  0.00  0.00    -0.029 A 
ATOM     35  C   UNL     1       2.101  10.769  32.734  0.00  0.00    +0.045 C 
ENDROOT
BRANCH  10   9
ATOM      4  C   UNL     1      -1.047   6.398  29.272  0.00  0.00    +0.077 A 
ATOM      5  C   UNL     1      -0.135   5.723  28.393  0.00  0.00    +0.048 A 
ATOM      6  C   UNL     1       1.246   5.899  28.633  0.00  0.00    +0.116 A 
ATOM      7  N   UNL     1       1.672   6.693  29.676  0.00  0.00    -0.223 NA
ATOM      8  C   UNL     1       0.766   7.330  30.503  0.00  0.00    +0.220 A 
ATOM      9  N   UNL     1       1.172   8.127  31.563  0.00  0.00    -0.283 N 
ATOM     36  H   UNL     1       0.472   8.586  32.146  0.00  0.00    +0.155 HD
ATOM     37  N   UNL     1      -0.559   7.180  30.294  0.00  0.00    -0.214 NA
BRANCH   4   3
ATOM      1  C   UNL     1      -4.648   5.229  28.287  0.00  0.00    +0.020 A 
ATOM      2  C   UNL     1      -3.207   5.272  28.373  0.00  0.00    +0.013 A 
ATOM      3  C   UNL     1      -2.537   6.308  29.149  0.00  0.00    +0.019 A 
ATOM     38  C   UNL     1      -3.361   7.293  29.833  0.00  0.00    +0.120 A 
ATOM     39  N   UNL     1      -4.747   7.227  29.731  0.00  0.00    -0.263 NA
ATOM     40  C   UNL     1      -5.403   6.236  28.986  0.00  0.00    +0.111 A 
ENDBRANCH   4   3
ENDBRANCH  10   9
BRANCH  12  13
ATOM     13  N   UNL     1       5.814   6.337  31.565  0.00  0.00    -0.281 N 
ATOM     14  C   UNL     1       6.764   6.296  30.557  0.00  0.00    +0.248 C 
ATOM     30  O   UNL     1       6.788   7.054  29.599  0.00  0.00    -0.270 OA
ATOM     31  H   UNL     1       5.793   5.535  32.194  0.00  0.00    +0.155 HD
BRANCH  14  15
ATOM     15  C   UNL     1       7.833   5.253  30.614  0.00  0.00    +0.037 A 
ATOM     16  C   UNL     1       7.707   4.083  31.487  0.00  0.00    +0.013 A 
ATOM     17  C   UNL     1       8.760   3.100  31.536  0.00  0.00    +0.005 A 
ATOM     18  C   UNL     1       9.950   3.284  30.708  0.00  0.00    -0.033 A 
ATOM     28  C   UNL     1      10.047   4.452  29.848  0.00  0.00    +0.005 A 
ATOM     29  C   UNL     1       9.017   5.417  29.798  0.00  0.00    +0.013 A 
BRANCH  18  19
ATOM     19  C   UNL     1      11.133   2.298  30.712  0.00  0.00    +0.119 C 
BRANCH  19  20
ATOM     20  N   UNL     1      10.871   0.915  30.213  0.00  0.00    -0.302 NA
ATOM     21  C   UNL     1      11.530  -0.149  31.096  0.00  0.00    +0.066 C 
ATOM     22  C   UNL     1      11.228  -1.591  30.572  0.00  0.00    -0.064 C 
ATOM     23  N   UNL     1      11.707  -1.715  29.124  0.00  0.00    +0.379 N 
ATOM     24  C   UNL     1      11.477  -3.087  28.648  0.00  0.00    -0.096 C 
ATOM     25  H   UNL     1      12.807  -1.534  29.116  0.00  0.00    -0.082 HD
ATOM     26  C   UNL     1      11.059  -0.659  28.240  0.00  0.00    -0.064 C 
ATOM     27  C   UNL     1      11.341   0.768  28.786  0.00  0.00    +0.066 C 
ENDBRANCH  19  20
ENDBRANCH  18  19
ENDBRANCH  14  15
ENDBRANCH  12  13
TORSDOF 6
ENDMDL
MODEL 2
REMARK VINA RESULT:      -8.5     16.165     18.618
REMARK  Name = C:\Users\Docking\Desktop\test protocol\1iep_ligandH.pdb
REMARK  8 active torsions:
REMARK  status: ('A' for Active; 'I' for Inactive)
REMARK    1  A    between atoms: _5  and  _11
REMARK    2  A    between atoms: _19  and  _21
REMARK    3  A    between atoms: _22  and  _66
REMARK    4  A    between atoms: _27  and  _30
REMARK    5  A    between atoms: _32  and  _33
REMARK    6  A    between atoms: _38  and  _43
REMARK    7  A    between atoms: _43  and  _46
REMARK    8  A    between atoms: _53  and  _55
REMARK                            x       y       z     vdW  Elec       q    Type
REMARK                         _______ _______ _______ _____ _____    ______ ____
ROOT
ATOM     10  C   UNL     1       4.196  -3.225  16.856  0.00  0.00    +0.038 A 
ATOM     11  C   UNL     1       3.291  -4.036  17.587  0.00  0.00    +0.047 A 
ATOM     12  C   UNL     1       3.741  -5.239  18.270  0.00  0.00    +0.035 A 
ATOM     32  C   UNL     1       5.122  -5.584  18.191  0.00  0.00    +0.024 A 
ATOM     33  C   UNL     1       6.056  -4.772  17.451  0.00  0.00    +0.007 A 
ATOM     34  C   UNL     1       5.617  -3.586  16.773  0.00  0.00    -0.029 A 
ATOM     35  C   UNL     1       6.661  -2.756  15.990  0.00  0.00    +0.045 C 
ENDROOT
BRANCH  10   9
ATOM      4  C   UNL     1       2.080  -1.017  13.158  0.00  0.00    +0.077 A 
ATOM      5  C   UNL     1       1.957  -2.241  12.420  0.00  0.00    +0.048 A 
ATOM      6  C   UNL     1       2.458  -3.416  13.025  0.00  0.00    +0.116 A 
ATOM      7  N   UNL     1       3.036  -3.358  14.275  0.00  0.00    -0.223 NA
ATOM      8  C   UNL     1       3.139  -2.161  14.958  0.00  0.00    +0.220 A 
ATOM      9  N   UNL     1       3.709  -2.081  16.219  0.00  0.00    -0.283 N 
ATOM     36  H   UNL     1       3.774  -1.178  16.688  0.00  0.00    +0.155 HD
ATOM     37  N   UNL     1       2.670  -1.025  14.402  0.00  0.00    -0.214 NA
BRANCH   4   3
ATOM      1  C   UNL     1      -0.233   1.951  12.087  0.00  0.00    +0.020 A 
ATOM      2  C   UNL     1       0.182   0.659  12.581  0.00  0.00    +0.013 A 
ATOM      3  C   UNL     1       1.595   0.307  12.654  0.00  0.00    +0.019 A 
ATOM     38  C   UNL     1       2.570   1.295  12.216  0.00  0.00    +0.120 A 
ATOM     39  N   UNL     1       2.141   2.531  11.743  0.00  0.00    -0.263 NA
ATOM     40  C   UNL     1       0.784   2.880  11.667  0.00  0.00    +0.111 A 
ENDBRANCH   4   3
ENDBRANCH  10   9
BRANCH  12  13
ATOM     13  N   UNL     1       2.867  -6.106  19.021  0.00  0.00    -0.281 N 
ATOM     14  C   UNL     1       3.057  -6.608  20.298  0.00  0.00    +0.248 C 
ATOM     30  O   UNL     1       4.113  -6.560  20.910  0.00  0.00    -0.270 OA
ATOM     31  H   UNL     1       2.004  -6.383  18.553  0.00  0.00    +0.155 HD
BRANCH  14  15
ATOM     15  C   UNL     1       1.911  -7.273  20.989  0.00  0.00    +0.037 A 
ATOM     16  C   UNL     1       1.533  -8.654  20.677  0.00  0.00    +0.013 A 
ATOM     17  C   UNL     1       0.412  -9.266  21.347  0.00  0.00    +0.005 A 
ATOM     18  C   UNL     1      -0.337  -8.497  22.337  0.00  0.00    -0.033 A 
ATOM     28  C   UNL     1       0.063  -7.131  22.631  0.00  0.00    +0.005 A 
ATOM     29  C   UNL     1       1.159  -6.527  21.976  0.00  0.00    +0.013 A 
BRANCH  18  19
ATOM     19  C   UNL     1      -1.559  -9.063  23.085  0.00  0.00    +0.119 C 
BRANCH  19  20
ATOM     20  N   UNL     1      -2.908  -8.615  22.627  0.00  0.00    -0.302 NA
ATOM     21  C   UNL     1      -4.015  -9.043  23.596  0.00  0.00    +0.066 C 
ATOM     22  C   UNL     1      -5.417  -8.547  23.113  0.00  0.00    -0.064 C 
ATOM     23  N   UNL     1      -5.689  -9.087  21.708  0.00  0.00    +0.379 N 
ATOM     24  C   UNL     1      -7.031  -8.670  21.274  0.00  0.00    -0.096 C 
ATOM     25  H   UNL     1      -5.682 -10.200  21.766  0.00  0.00    -0.082 HD
ATOM     26  C   UNL     1      -4.592  -8.669  20.739  0.00  0.00    -0.064 C 
ATOM     27  C   UNL     1      -3.200  -9.141  21.243  0.00  0.00    +0.066 C 
ENDBRANCH  19  20
ENDBRANCH  18  19
ENDBRANCH  14  15
ENDBRANCH  12  13
TORSDOF 6
ENDMDL
MODEL 3
REMARK VINA RESULT:      -8.5     16.522     19.351
REMARK  Name = C:\Users\Docking\Desktop\test protocol\1iep_ligandH.pdb
REMARK  8 active torsions:
REMARK  status: ('A' for Active; 'I' for Inactive)
REMARK    1  A    between atoms: _5  and  _11
REMARK    2  A    between atoms: _19  and  _21
REMARK    3  A    between atoms: _22  and  _66
REMARK    4  A    between atoms: _27  and  _30
REMARK    5  A    between atoms: _32  and  _33
REMARK    6  A    between atoms: _38  and  _43
REMARK    7  A    between atoms: _43  and  _46
REMARK    8  A    between atoms: _53  and  _55
REMARK                            x       y       z     vdW  Elec       q    Type
REMARK                         _______ _______ _______ _____ _____    ______ ____
ROOT
ATOM     10  C   UNL     1       3.778  -4.703  15.414  0.00  0.00    +0.038 A 
ATOM     11  C   UNL     1       3.090  -5.265  16.519  0.00  0.00    +0.047 A 
ATOM     12  C   UNL     1       3.493  -6.543  17.086  0.00  0.00    +0.035 A 
ATOM     32  C   UNL     1       4.604  -7.220  16.504  0.00  0.00    +0.024 A 
ATOM     33  C   UNL     1       5.314  -6.663  15.379  0.00  0.00    +0.007 A 
ATOM     34  C   UNL     1       4.919  -5.405  14.814  0.00  0.00    -0.029 A 
ATOM     35  C   UNL     1       5.713  -4.859  13.604  0.00  0.00    +0.045 C 
ENDROOT
BRANCH  10   9
ATOM      4  C   UNL     1       0.970  -2.042  12.573  0.00  0.00    +0.077 A 
ATOM      5  C   UNL     1       0.323  -3.200  12.027  0.00  0.00    +0.048 A 
ATOM      6  C   UNL     1       0.748  -4.463  12.499  0.00  0.00    +0.116 A 
ATOM      7  N   UNL     1       1.745  -4.548  13.446  0.00  0.00    -0.223 NA
ATOM      8  C   UNL     1       2.349  -3.411  13.951  0.00  0.00    +0.220 A 
ATOM      9  N   UNL     1       3.348  -3.473  14.910  0.00  0.00    -0.283 N 
ATOM     36  H   UNL     1       3.774  -2.612  15.251  0.00  0.00    +0.155 HD
ATOM     37  N   UNL     1       1.963  -2.194  13.515  0.00  0.00    -0.214 NA
BRANCH   4   3
ATOM      1  C   UNL     1      -0.255   1.672  12.671  0.00  0.00    +0.020 A 
ATOM      2  C   UNL     1       0.055   0.329  13.104  0.00  0.00    +0.013 A 
ATOM      3  C   UNL     1       0.630  -0.638  12.178  0.00  0.00    +0.019 A 
ATOM     38  C   UNL     1       0.883  -0.210  10.810  0.00  0.00    +0.120 A 
ATOM     39  N   UNL     1       0.574   1.089  10.422  0.00  0.00    -0.263 NA
ATOM     40  C   UNL     1       0.018   2.028  11.304  0.00  0.00    +0.111 A 
ENDBRANCH   4   3
ENDBRANCH  10   9
BRANCH  12  13
ATOM     13  N   UNL     1       2.828  -7.167  18.203  0.00  0.00    -0.281 N 
ATOM     14  C   UNL     1       2.802  -6.746  19.522  0.00  0.00    +0.248 C 
ATOM     30  O   UNL     1       3.529  -5.879  19.986  0.00  0.00    -0.270 OA
ATOM     31  H   UNL     1       2.313  -8.023  17.995  0.00  0.00    +0.155 HD
BRANCH  14  15
ATOM     15  C   UNL     1       1.840  -7.390  20.467  0.00  0.00    +0.037 A 
ATOM     16  C   UNL     1       1.419  -8.782  20.291  0.00  0.00    +0.013 A 
ATOM     17  C   UNL     1       0.476  -9.374  21.207  0.00  0.00    +0.005 A 
ATOM     18  C   UNL     1      -0.051  -8.573  22.309  0.00  0.00    -0.033 A 
ATOM     28  C   UNL     1       0.388  -7.196  22.464  0.00  0.00    +0.005 A 
ATOM     29  C   UNL     1       1.311  -6.612  21.567  0.00  0.00    +0.013 A 
BRANCH  18  19
ATOM     19  C   UNL     1      -1.076  -9.117  23.322  0.00  0.00    +0.119 C 
BRANCH  19  20
ATOM     20  N   UNL     1      -2.487  -8.648  23.185  0.00  0.00    -0.302 NA
ATOM     21  C   UNL     1      -3.417  -9.321  24.198  0.00  0.00    +0.066 C 
ATOM     22  C   UNL     1      -4.885  -8.802  24.055  0.00  0.00    -0.064 C 
ATOM     23  N   UNL     1      -5.373  -9.046  22.626  0.00  0.00    +0.379 N 
ATOM     24  C   UNL     1      -6.772  -8.612  22.504  0.00  0.00    -0.096 C 
ATOM     25  H   UNL     1      -5.342 -10.145  22.442  0.00  0.00    -0.082 HD
ATOM     26  C   UNL     1      -4.452  -8.382  21.612  0.00  0.00    -0.064 C 
ATOM     27  C   UNL     1      -2.990  -8.883  21.782  0.00  0.00    +0.066 C 
ENDBRANCH  19  20
ENDBRANCH  18  19
ENDBRANCH  14  15
ENDBRANCH  12  13
TORSDOF 6
ENDMDL
MODEL 4
REMARK VINA RESULT:      -8.4     16.835     19.458
REMARK  Name = C:\Users\Docking\Desktop\test protocol\1iep_ligandH.pdb
REMARK  8 active torsions:
REMARK  status: ('A' for Active; 'I' for Inactive)
REMARK    1  A    between atoms: _5  and  _11
REMARK    2  A    between atoms: _19  and  _21
REMARK    3  A    between atoms: _22  and  _66
REMARK    4  A    between atoms: _27  and  _30
REMARK    5  A    between atoms: _32  and  _33
REMARK    6  A    between atoms: _38  and  _43
REMARK    7  A    between atoms: _43  and  _46
REMARK    8  A    between atoms: _53  and  _55
REMARK                            x       y       z     vdW  Elec       q    Type
REMARK                         _______ _______ _______ _____ _____    ______ ____
ROOT
ATOM     10  C   UNL     1       1.179  -3.387  13.124  0.00  0.00    +0.038 A 
ATOM     11  C   UNL     1       2.221  -3.167  14.061  0.00  0.00    +0.047 A 
ATOM     12  C   UNL     1       2.415  -1.865  14.678  0.00  0.00    +0.035 A 
ATOM     32  C   UNL     1       1.528  -0.808  14.320  0.00  0.00    +0.024 A 
ATOM     33  C   UNL     1       0.464  -1.014  13.368  0.00  0.00    +0.007 A 
ATOM     34  C   UNL     1       0.269  -2.296  12.754  0.00  0.00    -0.029 A 
ATOM     35  C   UNL     1      -0.883  -2.458  11.736  0.00  0.00    +0.045 C 
ENDROOT
BRANCH  10   9
ATOM      4  C   UNL     1       1.838  -6.538   9.563  0.00  0.00    +0.077 A 
ATOM      5  C   UNL     1       2.495  -5.562   8.742  0.00  0.00    +0.048 A 
ATOM      6  C   UNL     1       2.637  -4.259   9.270  0.00  0.00    +0.116 A 
ATOM      7  N   UNL     1       2.154  -3.966  10.527  0.00  0.00    -0.223 NA
ATOM      8  C   UNL     1       1.524  -4.930  11.292  0.00  0.00    +0.220 A 
ATOM      9  N   UNL     1       1.038  -4.658  12.562  0.00  0.00    -0.283 N 
ATOM     36  H   UNL     1       0.573  -5.395  13.092  0.00  0.00    +0.155 HD
ATOM     37  N   UNL     1       1.375  -6.181  10.810  0.00  0.00    -0.214 NA
BRANCH   4   3
ATOM      1  C   UNL     1       0.143  -9.970   8.756  0.00  0.00    +0.020 A 
ATOM      2  C   UNL     1       0.304  -8.595   9.170  0.00  0.00    +0.013 A 
ATOM      3  C   UNL     1       1.616  -7.959   9.147  0.00  0.00    +0.019 A 
ATOM     38  C   UNL     1       2.752  -8.748   8.696  0.00  0.00    +0.120 A 
ATOM     39  N   UNL     1       2.567 -10.070   8.305  0.00  0.00    -0.263 NA
ATOM     40  C   UNL     1       1.310 -10.693   8.325  0.00  0.00    +0.111 A 
ENDBRANCH   4   3
ENDBRANCH  10   9
BRANCH  12  13
ATOM     13  N   UNL     1       3.460  -1.580  15.630  0.00  0.00    -0.281 N 
ATOM     14  C   UNL     1       4.665  -0.935  15.404  0.00  0.00    +0.248 C 
ATOM     30  O   UNL     1       5.122  -0.693  14.297  0.00  0.00    -0.270 OA
ATOM     31  H   UNL     1       3.291  -1.892  16.586  0.00  0.00    +0.155 HD
BRANCH  14  15
ATOM     15  C   UNL     1       5.488  -0.510  16.577  0.00  0.00    +0.037 A 
ATOM     16  C   UNL     1       5.541  -1.316  17.799  0.00  0.00    +0.013 A 
ATOM     17  C   UNL     1       6.329  -0.875  18.923  0.00  0.00    +0.005 A 
ATOM     18  C   UNL     1       7.073   0.379  18.828  0.00  0.00    -0.033 A 
ATOM     28  C   UNL     1       7.007   1.156  17.601  0.00  0.00    +0.005 A 
ATOM     29  C   UNL     1       6.234   0.727  16.499  0.00  0.00    +0.013 A 
BRANCH  18  19
ATOM     19  C   UNL     1       7.923   0.937  19.985  0.00  0.00    +0.119 C 
BRANCH  19  20
ATOM     20  N   UNL     1       7.226   1.201  21.279  0.00  0.00    -0.302 NA
ATOM     21  C   UNL     1       5.873   1.887  21.074  0.00  0.00    +0.066 C 
ATOM     22  C   UNL     1       5.148   2.136  22.437  0.00  0.00    -0.064 C 
ATOM     23  N   UNL     1       6.049   2.975  23.344  0.00  0.00    +0.379 N 
ATOM     24  C   UNL     1       5.347   3.260  24.604  0.00  0.00    -0.096 C 
ATOM     25  H   UNL     1       6.232   3.948  22.832  0.00  0.00    -0.082 HD
ATOM     26  C   UNL     1       7.398   2.301  23.552  0.00  0.00    -0.064 C 
ATOM     27  C   UNL     1       8.097   2.032  22.189  0.00  0.00    +0.066 C 
ENDBRANCH  19  20
ENDBRANCH  18  19
ENDBRANCH  14  15
ENDBRANCH  12  13
TORSDOF 6
ENDMDL
MODEL 5
REMARK VINA RESULT:      -8.3     13.285     15.821
REMARK  Name = C:\Users\Docking\Desktop\test protocol\1iep_ligandH.pdb
REMARK  8 active torsions:
REMARK  status: ('A' for Active; 'I' for Inactive)
REMARK    1  A    between atoms: _5  and  _11
REMARK    2  A    between atoms: _19  and  _21
REMARK    3  A    between atoms: _22  and  _66
REMARK    4  A    between atoms: _27  and  _30
REMARK    5  A    between atoms: _32  and  _33
REMARK    6  A    between atoms: _38  and  _43
REMARK    7  A    between atoms: _43  and  _46
REMARK    8  A    between atoms: _53  and  _55
REMARK                            x       y       z     vdW  Elec       q    Type
REMARK                         _______ _______ _______ _____ _____    ______ ____
ROOT
ATOM     10  C   UNL     1       4.879  -0.997  22.088  0.00  0.00    +0.038 A 
ATOM     11  C   UNL     1       4.413  -1.032  20.749  0.00  0.00    +0.047 A 
ATOM     12  C   UNL     1       5.003  -1.933  19.771  0.00  0.00    +0.035 A 
ATOM     32  C   UNL     1       6.064  -2.787  20.193  0.00  0.00    +0.024 A 
ATOM     33  C   UNL     1       6.550  -2.764  21.550  0.00  0.00    +0.007 A 
ATOM     34  C   UNL     1       5.974  -1.875  22.518  0.00  0.00    -0.029 A 
ATOM     35  C   UNL     1       6.539  -1.888  23.958  0.00  0.00    +0.045 C 
ENDROOT
BRANCH  10   9
ATOM      4  C   UNL     1       4.836   3.068  24.641  0.00  0.00    +0.077 A 
ATOM      5  C   UNL     1       6.136   3.448  24.168  0.00  0.00    +0.048 A 
ATOM      6  C   UNL     1       6.785   2.566  23.274  0.00  0.00    +0.116 A 
ATOM      7  N   UNL     1       6.170   1.395  22.889  0.00  0.00    -0.223 NA
ATOM      8  C   UNL     1       4.917   1.057  23.366  0.00  0.00    +0.220 A 
ATOM      9  N   UNL     1       4.276  -0.112  22.986  0.00  0.00    -0.283 N 
ATOM     36  H   UNL     1       3.355  -0.329  23.365  0.00  0.00    +0.155 HD
ATOM     37  N   UNL     1       4.277   1.881  24.221  0.00  0.00    -0.214 NA
BRANCH   4   3
ATOM      1  C   UNL     1       3.700   5.147  27.753  0.00  0.00    +0.020 A 
ATOM      2  C   UNL     1       4.526   4.349  26.877  0.00  0.00    +0.013 A 
ATOM      3  C   UNL     1       4.023   3.895  25.587  0.00  0.00    +0.019 A 
ATOM     38  C   UNL     1       2.668   4.270  25.210  0.00  0.00    +0.120 A 
ATOM     39  N   UNL     1       1.895   5.038  26.075  0.00  0.00    -0.263 NA
ATOM     40  C   UNL     1       2.368   5.479  27.320  0.00  0.00    +0.111 A 
ENDBRANCH   4   3
ENDBRANCH  10   9
BRANCH  12  13
ATOM     13  N   UNL     1       4.577  -2.008  18.396  0.00  0.00    -0.281 N 
ATOM     14  C   UNL     1       3.928  -3.054  17.760  0.00  0.00    +0.248 C 
ATOM     30  O   UNL     1       3.804  -4.176  18.228  0.00  0.00    -0.270 OA
ATOM     31  H   UNL     1       4.780  -1.190  17.820  0.00  0.00    +0.155 HD
BRANCH  14  15
ATOM     15  C   UNL     1       3.345  -2.824  16.404  0.00  0.00    +0.037 A 
ATOM     16  C   UNL     1       2.392  -3.769  15.816  0.00  0.00    +0.013 A 
ATOM     17  C   UNL     1       1.858  -3.532  14.498  0.00  0.00    +0.005 A 
ATOM     18  C   UNL     1       2.274  -2.342  13.760  0.00  0.00    -0.033 A 
ATOM     28  C   UNL     1       3.216  -1.418  14.369  0.00  0.00    +0.005 A 
ATOM     29  C   UNL     1       3.743  -1.647  15.660  0.00  0.00    +0.013 A 
BRANCH  18  19
ATOM     19  C   UNL     1       1.771  -2.020  12.340  0.00  0.00    +0.119 C 
BRANCH  19  20
ATOM     20  N   UNL     1       1.730  -3.144  11.358  0.00  0.00    -0.302 NA
ATOM     21  C   UNL     1       3.047  -3.925  11.322  0.00  0.00    +0.066 C 
ATOM     22  C   UNL     1       2.978  -5.111  10.306  0.00  0.00    -0.064 C 
ATOM     23  N   UNL     1       2.631  -4.570   8.918  0.00  0.00    +0.379 N 
ATOM     24  C   UNL     1       2.623  -5.676   7.949  0.00  0.00    -0.096 C 
ATOM     25  H   UNL     1       3.440  -3.864   8.619  0.00  0.00    -0.082 HD
ATOM     26  C   UNL     1       1.324  -3.791   8.945  0.00  0.00    -0.064 C 
ATOM     27  C   UNL     1       1.393  -2.632   9.979  0.00  0.00    +0.066 C 
ENDBRANCH  19  20
ENDBRANCH  18  19
ENDBRANCH  14  15
ENDBRANCH  12  13
TORSDOF 6
ENDMDL
