MODEL 1
REMARK VINA RESULT:      -8.4      0.000      0.000
REMARK  Name = C:\Users\Docking\Desktop\test protocol\1iep_ligandH.pdb
REMARK  8 active torsions:
REMARK  status: ('A' for Active; 'I' for Inactive)
REMARK    1  A    between atoms: _5  and  _11
REMARK    2  A    between atoms: _19  and  _21
REMARK    3  A    between atoms: _22  and  _66
REMARK    4  A    between atoms: _27  and  _30
REMARK    5  A    between atoms: _32  and  _33
REMARK    6  A    between atoms: _38  and  _43
REMARK    7  A    between atoms: _43  and  _46
REMARK    8  A    between atoms: _53  and  _55
REMARK                            x       y       z     vdW  Elec       q    Type
REMARK                         _______ _______ _______ _____ _____    ______ ____
ROOT
ATOM     10  C   UNL     1      25.623   1.289  13.991  0.00  0.00    +0.038 A 
ATOM     11  C   UNL     1      26.817   1.795  13.418  0.00  0.00    +0.047 A 
ATOM     12  C   UNL     1      28.095   1.659  14.098  0.00  0.00    +0.035 A 
ATOM     32  C   UNL     1      28.122   0.998  15.361  0.00  0.00    +0.024 A 
ATOM     33  C   UNL     1      26.917   0.478  15.959  0.00  0.00    +0.007 A 
ATOM     34  C   UNL     1      25.653   0.612  15.294  0.00  0.00    -0.029 A 
ATOM     35  C   UNL     1      24.393   0.041  15.985  0.00  0.00    +0.045 C 
ENDROOT
BRANCH  10   9
ATOM      4  C   UNL     1      21.368   3.405  13.315  0.00  0.00    +0.077 A 
ATOM      5  C   UNL     1      21.539   4.248  14.463  0.00  0.00    +0.048 A 
ATOM      6  C   UNL     1      22.732   4.101  15.205  0.00  0.00    +0.116 A 
ATOM      7  N   UNL     1      23.678   3.176  14.818  0.00  0.00    -0.223 NA
ATOM      8  C   UNL     1      23.482   2.378  13.706  0.00  0.00    +0.220 A 
ATOM      9  N   UNL     1      24.423   1.447  13.294  0.00  0.00    -0.283 N 
ATOM     36  H   UNL     1      24.237   0.872  12.473  0.00  0.00    +0.155 HD
ATOM     37  N   UNL     1      22.350   2.498  12.982  0.00  0.00    -0.214 NA
BRANCH   4   3
ATOM      1  C   UNL     1      18.172   4.615  11.412  0.00  0.00    +0.020 A 
ATOM      2  C   UNL     1      19.325   4.629  12.282  0.00  0.00    +0.013 A 
ATOM      3  C   UNL     1      20.163   3.445  12.428  0.00  0.00    +0.019 A 
ATOM     38  C   UNL     1      19.803   2.254  11.673  0.00  0.00    +0.120 A 
ATOM     39  N   UNL     1      18.686   2.269  10.844  0.00  0.00    -0.263 NA
ATOM     40  C   UNL     1      17.872   3.402  10.697  0.00  0.00    +0.111 A 
ENDBRANCH   4   3
ENDBRANCH  10   9
BRANCH  12  13
ATOM     13  N   UNL     1      29.339   2.160  13.568  0.00  0.00    -0.281 N 
ATOM     14  C   UNL     1      30.447   1.433  13.163  0.00  0.00    +0.248 C 
ATOM     30  O   UNL     1      30.617   0.246  13.396  0.00  0.00    -0.270 OA
ATOM     31  H   UNL     1      29.412   3.174  13.481  0.00  0.00    +0.155 HD
BRANCH  14  15
ATOM     15  C   UNL     1      31.528   2.130  12.402  0.00  0.00    +0.037 A 
ATOM     16  C   UNL     1      32.800   1.464  12.108  0.00  0.00    +0.013 A 
ATOM     17  C   UNL     1      33.833   2.164  11.386  0.00  0.00    +0.005 A 
ATOM     18  C   UNL     1      33.597   3.539  10.953  0.00  0.00    -0.033 A 
ATOM     28  C   UNL     1      32.325   4.174  11.253  0.00  0.00    +0.005 A 
ATOM     29  C   UNL     1      31.310   3.491  11.961  0.00  0.00    +0.013 A 
BRANCH  18  19
ATOM     19  C   UNL     1      34.651   4.370  10.196  0.00  0.00    +0.119 C 
BRANCH  19  20
ATOM     20  N   UNL     1      35.997   3.753  10.001  0.00  0.00    -0.302 NA
ATOM     21  C   UNL     1      36.904   3.958  11.217  0.00  0.00    +0.066 C 
ATOM     22  C   UNL     1      38.300   3.287  11.005  0.00  0.00    -0.064 C 
ATOM     23  N   UNL     1      38.950   3.856   9.743  0.00  0.00    +0.379 N 
ATOM     24  C   UNL     1      40.287   3.270   9.572  0.00  0.00    -0.096 C 
ATOM     25  H   UNL     1      39.078   4.953   9.894  0.00  0.00    -0.082 HD
ATOM     26  C   UNL     1      38.053   3.659   8.529  0.00  0.00    -0.064 C 
ATOM     27  C   UNL     1      36.658   4.304   8.762  0.00  0.00    +0.066 C 
ENDBRANCH  19  20
ENDBRANCH  18  19
ENDBRANCH  14  15
ENDBRANCH  12  13
TORSDOF 6
ENDMDL
MODEL 2
REMARK VINA RESULT:      -8.4      3.299     14.183
REMARK  Name = C:\Users\Docking\Desktop\test protocol\1iep_ligandH.pdb
REMARK  8 active torsions:
REMARK  status: ('A' for Active; 'I' for Inactive)
REMARK    1  A    between atoms: _5  and  _11
REMARK    2  A    between atoms: _19  and  _21
REMARK    3  A    between atoms: _22  and  _66
REMARK    4  A    between atoms: _27  and  _30
REMARK    5  A    between atoms: _32  and  _33
REMARK    6  A    between atoms: _38  and  _43
REMARK    7  A    between atoms: _43  and  _46
REMARK    8  A    between atoms: _53  and  _55
REMARK                            x       y       z     vdW  Elec       q    Type
REMARK                         _______ _______ _______ _____ _____    ______ ____
ROOT
ATOM     10  C   UNL     1      25.562   3.277  14.009  0.00  0.00    +0.038 A 
ATOM     11  C   UNL     1      24.490   2.926  13.149  0.00  0.00    +0.047 A 
ATOM     12  C   UNL     1      23.134   2.782  13.657  0.00  0.00    +0.035 A 
ATOM     32  C   UNL     1      22.906   3.007  15.046  0.00  0.00    +0.024 A 
ATOM     33  C   UNL     1      23.984   3.363  15.934  0.00  0.00    +0.007 A 
ATOM     34  C   UNL     1      25.324   3.504  15.440  0.00  0.00    -0.029 A 
ATOM     35  C   UNL     1      26.442   3.882  16.439  0.00  0.00    +0.045 C 
ENDROOT
BRANCH  10   9
ATOM      4  C   UNL     1      29.995   1.623  13.203  0.00  0.00    +0.077 A 
ATOM      5  C   UNL     1      29.745   0.421  13.945  0.00  0.00    +0.048 A 
ATOM      6  C   UNL     1      28.465   0.270  14.525  0.00  0.00    +0.116 A 
ATOM      7  N   UNL     1      27.513   1.255  14.367  0.00  0.00    -0.223 NA
ATOM      8  C   UNL     1      27.788   2.402  13.646  0.00  0.00    +0.220 A 
ATOM      9  N   UNL     1      26.843   3.402  13.468  0.00  0.00    -0.283 N 
ATOM     36  H   UNL     1      27.087   4.237  12.936  0.00  0.00    +0.155 HD
ATOM     37  N   UNL     1      29.003   2.571  13.084  0.00  0.00    -0.214 NA
BRANCH   4   3
ATOM      1  C   UNL     1      33.814   1.851  12.392  0.00  0.00    +0.020 A 
ATOM      2  C   UNL     1      32.586   1.534  13.084  0.00  0.00    +0.013 A 
ATOM      3  C   UNL     1      31.297   1.926  12.529  0.00  0.00    +0.019 A 
ATOM     38  C   UNL     1      31.285   2.643  11.263  0.00  0.00    +0.120 A 
ATOM     39  N   UNL     1      32.484   2.936  10.620  0.00  0.00    -0.263 NA
ATOM     40  C   UNL     1      33.731   2.565  11.145  0.00  0.00    +0.111 A 
ENDBRANCH   4   3
ENDBRANCH  10   9
BRANCH  12  13
ATOM     13  N   UNL     1      22.007   2.420  12.834  0.00  0.00    -0.281 N 
ATOM     14  C   UNL     1      20.810   3.100  12.681  0.00  0.00    +0.248 C 
ATOM     30  O   UNL     1      20.441   4.018  13.398  0.00  0.00    -0.270 OA
ATOM     31  H   UNL     1      22.104   1.557  12.299  0.00  0.00    +0.155 HD
BRANCH  14  15
ATOM     15  C   UNL     1      19.883   2.692  11.582  0.00  0.00    +0.037 A 
ATOM     16  C   UNL     1      19.030   3.672  10.904  0.00  0.00    +0.013 A 
ATOM     17  C   UNL     1      18.133   3.249   9.859  0.00  0.00    +0.005 A 
ATOM     18  C   UNL     1      18.084   1.838   9.484  0.00  0.00    -0.033 A 
ATOM     28  C   UNL     1      18.945   0.888  10.169  0.00  0.00    +0.005 A 
ATOM     29  C   UNL     1      19.826   1.299  11.195  0.00  0.00    +0.013 A 
BRANCH  18  19
ATOM     19  C   UNL     1      17.141   1.294   8.394  0.00  0.00    +0.119 C 
BRANCH  19  20
ATOM     20  N   UNL     1      15.693   1.641   8.507  0.00  0.00    -0.302 NA
ATOM     21  C   UNL     1      15.129   1.306   9.890  0.00  0.00    +0.066 C 
ATOM     22  C   UNL     1      13.619   1.697   9.999  0.00  0.00    -0.064 C 
ATOM     23  N   UNL     1      12.829   0.979   8.903  0.00  0.00    +0.379 N 
ATOM     24  C   UNL     1      11.400   1.299   9.038  0.00  0.00    -0.096 C 
ATOM     25  H   UNL     1      12.947  -0.118   9.065  0.00  0.00    -0.082 HD
ATOM     26  C   UNL     1      13.386   1.305   7.524  0.00  0.00    -0.064 C 
ATOM     27  C   UNL     1      14.894   0.940   7.437  0.00  0.00    +0.066 C 
ENDBRANCH  19  20
ENDBRANCH  18  19
ENDBRANCH  14  15
ENDBRANCH  12  13
TORSDOF 6
ENDMDL
MODEL 3
REMARK VINA RESULT:      -8.2      5.037     10.999
REMARK  Name = C:\Users\Docking\Desktop\test protocol\1iep_ligandH.pdb
REMARK  8 active torsions:
REMARK  status: ('A' for Active; 'I' for Inactive)
REMARK    1  A    between atoms: _5  and  _11
REMARK    2  A    between atoms: _19  and  _21
REMARK    3  A    between atoms: _22  and  _66
REMARK    4  A    between atoms: _27  and  _30
REMARK    5  A    between atoms: _32  and  _33
REMARK    6  A    between atoms: _38  and  _43
REMARK    7  A    between atoms: _43  and  _46
REMARK    8  A    between atoms: _53  and  _55
REMARK                            x       y       z     vdW  Elec       q    Type
REMARK                         _______ _______ _______ _____ _____    ______ ____
ROOT
ATOM     10  C   UNL     1      16.405   3.612   8.754  0.00  0.00    +0.038 A 
ATOM     11  C   UNL     1      17.325   3.530   9.830  0.00  0.00    +0.047 A 
ATOM     12  C   UNL     1      18.623   2.896   9.663  0.00  0.00    +0.035 A 
ATOM     32  C   UNL     1      18.953   2.359   8.384  0.00  0.00    +0.024 A 
ATOM     33  C   UNL     1      18.030   2.433   7.280  0.00  0.00    +0.007 A 
ATOM     34  C   UNL     1      16.746   3.055   7.440  0.00  0.00    -0.029 A 
ATOM     35  C   UNL     1      15.793   3.101   6.222  0.00  0.00    +0.045 C 
ENDROOT
BRANCH  10   9
ATOM      4  C   UNL     1      11.715   3.468   9.767  0.00  0.00    +0.077 A 
ATOM      5  C   UNL     1      11.716   2.035   9.845  0.00  0.00    +0.048 A 
ATOM      6  C   UNL     1      12.942   1.373   9.611  0.00  0.00    +0.116 A 
ATOM      7  N   UNL     1      14.077   2.100   9.322  0.00  0.00    -0.223 NA
ATOM      8  C   UNL     1      14.041   3.481   9.252  0.00  0.00    +0.220 A 
ATOM      9  N   UNL     1      15.172   4.232   8.971  0.00  0.00    -0.283 N 
ATOM     36  H   UNL     1      15.102   5.248   8.921  0.00  0.00    +0.155 HD
ATOM     37  N   UNL     1      12.882   4.136   9.471  0.00  0.00    -0.214 NA
BRANCH   4   3
ATOM      1  C   UNL     1       8.003   4.629  10.183  0.00  0.00    +0.020 A 
ATOM      2  C   UNL     1       9.145   3.772   9.958  0.00  0.00    +0.013 A 
ATOM      3  C   UNL     1      10.499   4.311   9.993  0.00  0.00    +0.019 A 
ATOM     38  C   UNL     1      10.665   5.731  10.261  0.00  0.00    +0.120 A 
ATOM     39  N   UNL     1       9.547   6.532  10.473  0.00  0.00    -0.263 NA
ATOM     40  C   UNL     1       8.239   6.026  10.440  0.00  0.00    +0.111 A 
ENDBRANCH   4   3
ENDBRANCH  10   9
BRANCH  12  13
ATOM     13  N   UNL     1      19.595   2.775  10.721  0.00  0.00    -0.281 N 
ATOM     14  C   UNL     1      19.672   1.797  11.699  0.00  0.00    +0.248 C 
ATOM     30  O   UNL     1      18.786   0.992  11.942  0.00  0.00    -0.270 OA
ATOM     31  H   UNL     1      20.314   3.499  10.753  0.00  0.00    +0.155 HD
BRANCH  14  15
ATOM     15  C   UNL     1      20.906   1.711  12.538  0.00  0.00    +0.037 A 
ATOM     16  C   UNL     1      21.417   0.420  13.007  0.00  0.00    +0.013 A 
ATOM     17  C   UNL     1      22.600   0.366  13.829  0.00  0.00    +0.005 A 
ATOM     18  C   UNL     1      23.281   1.609  14.186  0.00  0.00    -0.033 A 
ATOM     28  C   UNL     1      22.756   2.875  13.702  0.00  0.00    +0.005 A 
ATOM     29  C   UNL     1      21.596   2.931  12.897  0.00  0.00    +0.013 A 
BRANCH  18  19
ATOM     19  C   UNL     1      24.538   1.647  15.076  0.00  0.00    +0.119 C 
BRANCH  19  20
ATOM     20  N   UNL     1      25.828   2.017  14.422  0.00  0.00    -0.302 NA
ATOM     21  C   UNL     1      26.235   1.010  13.343  0.00  0.00    +0.066 C 
ATOM     22  C   UNL     1      27.575   1.424  12.654  0.00  0.00    -0.064 C 
ATOM     23  N   UNL     1      28.671   1.555  13.713  0.00  0.00    +0.379 N 
ATOM     24  C   UNL     1      29.946   1.888  13.061  0.00  0.00    -0.096 C 
ATOM     25  H   UNL     1      28.790   0.560  14.201  0.00  0.00    -0.082 HD
ATOM     26  C   UNL     1      28.274   2.553  14.791  0.00  0.00    -0.064 C 
ATOM     27  C   UNL     1      26.925   2.148  15.450  0.00  0.00    +0.066 C 
ENDBRANCH  19  20
ENDBRANCH  18  19
ENDBRANCH  14  15
ENDBRANCH  12  13
TORSDOF 6
ENDMDL
MODEL 4
REMARK VINA RESULT:      -7.9      5.568     10.314
REMARK  Name = C:\Users\Docking\Desktop\test protocol\1iep_ligandH.pdb
REMARK  8 active torsions:
REMARK  status: ('A' for Active; 'I' for Inactive)
REMARK    1  A    between atoms: _5  and  _11
REMARK    2  A    between atoms: _19  and  _21
REMARK    3  A    between atoms: _22  and  _66
REMARK    4  A    between atoms: _27  and  _30
REMARK    5  A    between atoms: _32  and  _33
REMARK    6  A    between atoms: _38  and  _43
REMARK    7  A    between atoms: _43  and  _46
REMARK    8  A    between atoms: _53  and  _55
REMARK                            x       y       z     vdW  Elec       q    Type
REMARK                         _______ _______ _______ _____ _____    ______ ____
ROOT
ATOM     10  C   UNL     1      17.740   1.798   9.416  0.00  0.00    +0.038 A 
ATOM     11  C   UNL     1      18.916   1.935  10.196  0.00  0.00    +0.047 A 
ATOM     12  C   UNL     1      19.202   3.166  10.916  0.00  0.00    +0.035 A 
ATOM     32  C   UNL     1      18.266   4.237  10.821  0.00  0.00    +0.024 A 
ATOM     33  C   UNL     1      17.066   4.115  10.032  0.00  0.00    +0.007 A 
ATOM     34  C   UNL     1      16.780   2.904   9.317  0.00  0.00    -0.029 A 
ATOM     35  C   UNL     1      15.481   2.832   8.481  0.00  0.00    +0.045 C 
ENDROOT
BRANCH  10   9
ATOM      4  C   UNL     1      18.337  -1.130   5.660  0.00  0.00    +0.077 A 
ATOM      5  C   UNL     1      19.142  -0.169   4.963  0.00  0.00    +0.048 A 
ATOM      6  C   UNL     1      19.373   1.069   5.602  0.00  0.00    +0.116 A 
ATOM      7  N   UNL     1      18.834   1.317   6.846  0.00  0.00    -0.223 NA
ATOM      8  C   UNL     1      18.061   0.369   7.490  0.00  0.00    +0.220 A 
ATOM      9  N   UNL     1      17.515   0.594   8.745  0.00  0.00    -0.283 N 
ATOM     36  H   UNL     1      16.944  -0.129   9.183  0.00  0.00    +0.155 HD
ATOM     37  N   UNL     1      17.824  -0.821   6.900  0.00  0.00    -0.214 NA
BRANCH   4   3
ATOM      1  C   UNL     1      16.837  -4.018   3.489  0.00  0.00    +0.020 A 
ATOM      2  C   UNL     1      17.123  -2.688   3.974  0.00  0.00    +0.013 A 
ATOM      3  C   UNL     1      18.006  -2.486   5.116  0.00  0.00    +0.019 A 
ATOM     38  C   UNL     1      18.588  -3.660   5.749  0.00  0.00    +0.120 A 
ATOM     39  N   UNL     1      18.293  -4.929   5.260  0.00  0.00    -0.263 NA
ATOM     40  C   UNL     1      17.443  -5.135   4.163  0.00  0.00    +0.111 A 
ENDBRANCH   4   3
ENDBRANCH  10   9
BRANCH  12  13
ATOM     13  N   UNL     1      20.384   3.367  11.717  0.00  0.00    -0.281 N 
ATOM     14  C   UNL     1      20.495   3.321  13.097  0.00  0.00    +0.248 C 
ATOM     30  O   UNL     1      19.546   3.312  13.867  0.00  0.00    -0.270 OA
ATOM     31  H   UNL     1      21.243   3.566  11.205  0.00  0.00    +0.155 HD
BRANCH  14  15
ATOM     15  C   UNL     1      21.857   3.297  13.712  0.00  0.00    +0.037 A 
ATOM     16  C   UNL     1      22.167   4.089  14.905  0.00  0.00    +0.013 A 
ATOM     17  C   UNL     1      23.494   4.060  15.467  0.00  0.00    +0.005 A 
ATOM     18  C   UNL     1      24.522   3.235  14.837  0.00  0.00    -0.033 A 
ATOM     28  C   UNL     1      24.185   2.454  13.658  0.00  0.00    +0.005 A 
ATOM     29  C   UNL     1      22.886   2.481  13.103  0.00  0.00    +0.013 A 
BRANCH  18  19
ATOM     19  C   UNL     1      25.970   3.160  15.357  0.00  0.00    +0.119 C 
BRANCH  19  20
ATOM     20  N   UNL     1      26.778   1.969  14.959  0.00  0.00    -0.302 NA
ATOM     21  C   UNL     1      27.215   1.141  16.171  0.00  0.00    +0.066 C 
ATOM     22  C   UNL     1      28.040  -0.114  15.736  0.00  0.00    -0.064 C 
ATOM     23  N   UNL     1      29.254   0.336  14.922  0.00  0.00    +0.379 N 
ATOM     24  C   UNL     1      30.064  -0.837  14.560  0.00  0.00    -0.096 C 
ATOM     25  H   UNL     1      29.877   0.989  15.576  0.00  0.00    -0.082 HD
ATOM     26  C   UNL     1      28.829   1.162  13.716  0.00  0.00    -0.064 C 
ATOM     27  C   UNL     1      27.985   2.390  14.157  0.00  0.00    +0.066 C 
ENDBRANCH  19  20
ENDBRANCH  18  19
ENDBRANCH  14  15
ENDBRANCH  12  13
TORSDOF 6
ENDMDL
MODEL 5
REMARK VINA RESULT:      -7.8     12.854     18.744
REMARK  Name = C:\Users\Docking\Desktop\test protocol\1iep_ligandH.pdb
REMARK  8 active torsions:
REMARK  status: ('A' for Active; 'I' for Inactive)
REMARK    1  A    between atoms: _5  and  _11
REMARK    2  A    between atoms: _19  and  _21
REMARK    3  A    between atoms: _22  and  _66
REMARK    4  A    between atoms: _27  and  _30
REMARK    5  A    between atoms: _32  and  _33
REMARK    6  A    between atoms: _38  and  _43
REMARK    7  A    between atoms: _43  and  _46
REMARK    8  A    between atoms: _53  and  _55
REMARK                            x       y       z     vdW  Elec       q    Type
REMARK                         _______ _______ _______ _____ _____    ______ ____
ROOT
ATOM     10  C   UNL     1      17.396  -0.040   6.709  0.00  0.00    +0.038 A 
ATOM     11  C   UNL     1      16.862  -0.902   5.717  0.00  0.00    +0.047 A 
ATOM     12  C   UNL     1      17.645  -1.288   4.554  0.00  0.00    +0.035 A 
ATOM     32  C   UNL     1      18.971  -0.779   4.434  0.00  0.00    +0.024 A 
ATOM     33  C   UNL     1      19.530   0.099   5.431  0.00  0.00    +0.007 A 
ATOM     34  C   UNL     1      18.761   0.485   6.580  0.00  0.00    -0.029 A 
ATOM     35  C   UNL     1      19.409   1.434   7.615  0.00  0.00    +0.045 C 
ENDROOT
BRANCH  10   9
ATOM      4  C   UNL     1      14.467   2.957   9.048  0.00  0.00    +0.077 A 
ATOM      5  C   UNL     1      14.552   3.944   8.011  0.00  0.00    +0.048 A 
ATOM      6  C   UNL     1      15.366   3.645   6.895  0.00  0.00    +0.116 A 
ATOM      7  N   UNL     1      16.039   2.445   6.832  0.00  0.00    -0.223 NA
ATOM      8  C   UNL     1      15.937   1.515   7.851  0.00  0.00    +0.220 A 
ATOM      9  N   UNL     1      16.600   0.298   7.805  0.00  0.00    -0.283 N 
ATOM     36  H   UNL     1      16.504  -0.358   8.580  0.00  0.00    +0.155 HD
ATOM     37  N   UNL     1      15.167   1.778   8.928  0.00  0.00    -0.214 NA
BRANCH   4   3
ATOM      1  C   UNL     1      13.351   3.116  12.794  0.00  0.00    +0.020 A 
ATOM      2  C   UNL     1      14.187   2.941  11.629  0.00  0.00    +0.013 A 
ATOM      3  C   UNL     1      13.645   3.125  10.289  0.00  0.00    +0.019 A 
ATOM     38  C   UNL     1      12.242   3.490  10.161  0.00  0.00    +0.120 A 
ATOM     39  N   UNL     1      11.461   3.650  11.301  0.00  0.00    -0.263 NA
ATOM     40  C   UNL     1      11.971   3.474  12.596  0.00  0.00    +0.111 A 
ENDBRANCH   4   3
ENDBRANCH  10   9
BRANCH  12  13
ATOM     13  N   UNL     1      17.153  -2.153   3.511  0.00  0.00    -0.281 N 
ATOM     14  C   UNL     1      16.861  -3.505   3.593  0.00  0.00    +0.248 C 
ATOM     30  O   UNL     1      17.184  -4.226   4.525  0.00  0.00    -0.270 OA
ATOM     31  H   UNL     1      17.001  -1.716   2.602  0.00  0.00    +0.155 HD
BRANCH  14  15
ATOM     15  C   UNL     1      16.116  -4.152   2.470  0.00  0.00    +0.037 A 
ATOM     16  C   UNL     1      14.847  -4.848   2.702  0.00  0.00    +0.013 A 
ATOM     17  C   UNL     1      14.158  -5.478   1.604  0.00  0.00    +0.005 A 
ATOM     18  C   UNL     1      14.735  -5.413   0.264  0.00  0.00    -0.033 A 
ATOM     28  C   UNL     1      15.991  -4.712   0.061  0.00  0.00    +0.005 A 
ATOM     29  C   UNL     1      16.671  -4.094   1.135  0.00  0.00    +0.013 A 
BRANCH  18  19
ATOM     19  C   UNL     1      14.078  -6.075  -0.962  0.00  0.00    +0.119 C 
BRANCH  19  20
ATOM     20  N   UNL     1      12.701  -5.627  -1.326  0.00  0.00    -0.302 NA
ATOM     21  C   UNL     1      11.697  -6.784  -1.310  0.00  0.00    +0.066 C 
ATOM     22  C   UNL     1      10.257  -6.294  -1.670  0.00  0.00    -0.064 C 
ATOM     23  N   UNL     1      10.281  -5.616  -3.041  0.00  0.00    +0.379 N 
ATOM     24  C   UNL     1       8.918  -5.205  -3.409  0.00  0.00    -0.096 C 
ATOM     25  H   UNL     1      10.619  -6.373  -3.787  0.00  0.00    -0.082 HD
ATOM     26  C   UNL     1      11.278  -4.466  -3.067  0.00  0.00    -0.064 C 
ATOM     27  C   UNL     1      12.700  -4.959  -2.678  0.00  0.00    +0.066 C 
ENDBRANCH  19  20
ENDBRANCH  18  19
ENDBRANCH  14  15
ENDBRANCH  12  13
TORSDOF 6
ENDMDL
