MODEL 1
REMARK VINA RESULT:      -8.4      0.000      0.000
REMARK  Name = C:\Users\Docking\Desktop\test protocol\1iep_ligandH.pdb
REMARK  8 active torsions:
REMARK  status: ('A' for Active; 'I' for Inactive)
REMARK    1  A    between atoms: _5  and  _11
REMARK    2  A    between atoms: _19  and  _21
REMARK    3  A    between atoms: _22  and  _66
REMARK    4  A    between atoms: _27  and  _30
REMARK    5  A    between atoms: _32  and  _33
REMARK    6  A    between atoms: _38  and  _43
REMARK    7  A    between atoms: _43  and  _46
REMARK    8  A    between atoms: _53  and  _55
REMARK                            x       y       z     vdW  Elec       q    Type
REMARK                         _______ _______ _______ _____ _____    ______ ____
ROOT
ATOM     10  C   UNL     1      56.042  29.556   6.854  0.00  0.00    +0.038 A 
ATOM     11  C   UNL     1      55.180  28.750   6.068  0.00  0.00    +0.047 A 
ATOM     12  C   UNL     1      54.349  27.722   6.676  0.00  0.00    +0.035 A 
ATOM     32  C   UNL     1      54.419  27.545   8.088  0.00  0.00    +0.024 A 
ATOM     33  C   UNL     1      55.291  28.355   8.902  0.00  0.00    +0.007 A 
ATOM     34  C   UNL     1      56.114  29.368   8.308  0.00  0.00    -0.029 A 
ATOM     35  C   UNL     1      57.035  30.203   9.229  0.00  0.00    +0.045 C 
ENDROOT
BRANCH  10   9
ATOM      4  C   UNL     1      60.227  31.200   5.175  0.00  0.00    +0.077 A 
ATOM      5  C   UNL     1      60.933  30.036   5.627  0.00  0.00    +0.048 A 
ATOM      6  C   UNL     1      60.184  29.040   6.293  0.00  0.00    +0.116 A 
ATOM      7  N   UNL     1      58.830  29.207   6.488  0.00  0.00    -0.223 NA
ATOM      8  C   UNL     1      58.180  30.343   6.041  0.00  0.00    +0.220 A 
ATOM      9  N   UNL     1      56.818  30.528   6.218  0.00  0.00    -0.283 N 
ATOM     36  H   UNL     1      56.377  31.383   5.881  0.00  0.00    +0.155 HD
ATOM     37  N   UNL     1      58.874  31.309   5.403  0.00  0.00    -0.214 NA
BRANCH   4   3
ATOM      1  C   UNL     1      62.666  34.102   4.210  0.00  0.00    +0.020 A 
ATOM      2  C   UNL     1      62.075  33.008   4.947  0.00  0.00    +0.013 A 
ATOM      3  C   UNL     1      60.880  32.337   4.453  0.00  0.00    +0.019 A 
ATOM     38  C   UNL     1      60.302  32.800   3.200  0.00  0.00    +0.120 A 
ATOM     39  N   UNL     1      60.892  33.856   2.513  0.00  0.00    -0.263 NA
ATOM     40  C   UNL     1      62.042  34.511   2.979  0.00  0.00    +0.111 A 
ENDBRANCH   4   3
ENDBRANCH  10   9
BRANCH  12  13
ATOM     13  N   UNL     1      53.460  26.868   5.927  0.00  0.00    -0.281 N 
ATOM     14  C   UNL     1      52.085  26.754   6.049  0.00  0.00    +0.248 C 
ATOM     30  O   UNL     1      51.432  27.218   6.972  0.00  0.00    -0.270 OA
ATOM     31  H   UNL     1      53.899  26.275   5.223  0.00  0.00    +0.155 HD
BRANCH  14  15
ATOM     15  C   UNL     1      51.327  26.005   5.001  0.00  0.00    +0.037 A 
ATOM     16  C   UNL     1      50.005  26.451   4.555  0.00  0.00    +0.013 A 
ATOM     17  C   UNL     1      49.288  25.700   3.555  0.00  0.00    +0.005 A 
ATOM     18  C   UNL     1      49.894  24.496   2.992  0.00  0.00    -0.033 A 
ATOM     28  C   UNL     1      51.209  24.079   3.448  0.00  0.00    +0.005 A 
ATOM     29  C   UNL     1      51.915  24.812   4.429  0.00  0.00    +0.013 A 
BRANCH  18  19
ATOM     19  C   UNL     1      49.192  23.621   1.936  0.00  0.00    +0.119 C 
BRANCH  19  20
ATOM     20  N   UNL     1      49.843  23.513   0.596  0.00  0.00    -0.302 NA
ATOM     21  C   UNL     1      50.064  24.884  -0.048  0.00  0.00    +0.066 C 
ATOM     22  C   UNL     1      50.766  24.753  -1.439  0.00  0.00    -0.064 C 
ATOM     23  N   UNL     1      49.925  23.856  -2.349  0.00  0.00    +0.379 N 
ATOM     24  C   UNL     1      50.553  23.778  -3.676  0.00  0.00    -0.096 C 
ATOM     25  H   UNL     1      48.929  24.341  -2.474  0.00  0.00    -0.082 HD
ATOM     26  C   UNL     1      49.699  22.491  -1.715  0.00  0.00    -0.064 C 
ATOM     27  C   UNL     1      49.027  22.634  -0.320  0.00  0.00    +0.066 C 
ENDBRANCH  19  20
ENDBRANCH  18  19
ENDBRANCH  14  15
ENDBRANCH  12  13
TORSDOF 6
ENDMDL
MODEL 2
REMARK VINA RESULT:      -8.2      1.564      2.389
REMARK  Name = C:\Users\Docking\Desktop\test protocol\1iep_ligandH.pdb
REMARK  8 active torsions:
REMARK  status: ('A' for Active; 'I' for Inactive)
REMARK    1  A    between atoms: _5  and  _11
REMARK    2  A    between atoms: _19  and  _21
REMARK    3  A    between atoms: _22  and  _66
REMARK    4  A    between atoms: _27  and  _30
REMARK    5  A    between atoms: _32  and  _33
REMARK    6  A    between atoms: _38  and  _43
REMARK    7  A    between atoms: _43  and  _46
REMARK    8  A    between atoms: _53  and  _55
REMARK                            x       y       z     vdW  Elec       q    Type
REMARK                         _______ _______ _______ _____ _____    ______ ____
ROOT
ATOM     10  C   UNL     1      55.695  29.401   6.575  0.00  0.00    +0.038 A 
ATOM     11  C   UNL     1      54.995  28.524   5.707  0.00  0.00    +0.047 A 
ATOM     12  C   UNL     1      54.129  27.480   6.232  0.00  0.00    +0.035 A 
ATOM     32  C   UNL     1      53.995  27.359   7.646  0.00  0.00    +0.024 A 
ATOM     33  C   UNL     1      54.700  28.242   8.542  0.00  0.00    +0.007 A 
ATOM     34  C   UNL     1      55.558  29.272   8.031  0.00  0.00    -0.029 A 
ATOM     35  C   UNL     1      56.294  30.185   9.038  0.00  0.00    +0.045 C 
ENDROOT
BRANCH  10   9
ATOM      4  C   UNL     1      59.990  31.079   5.241  0.00  0.00    +0.077 A 
ATOM      5  C   UNL     1      60.662  29.906   5.720  0.00  0.00    +0.048 A 
ATOM      6  C   UNL     1      59.868  28.897   6.309  0.00  0.00    +0.116 A 
ATOM      7  N   UNL     1      58.503  29.060   6.407  0.00  0.00    -0.223 NA
ATOM      8  C   UNL     1      57.886  30.204   5.936  0.00  0.00    +0.220 A 
ATOM      9  N   UNL     1      56.514  30.386   6.017  0.00  0.00    -0.283 N 
ATOM     36  H   UNL     1      56.097  31.248   5.665  0.00  0.00    +0.155 HD
ATOM     37  N   UNL     1      58.623  31.183   5.371  0.00  0.00    -0.214 NA
BRANCH   4   3
ATOM      1  C   UNL     1      62.563  33.915   4.446  0.00  0.00    +0.020 A 
ATOM      2  C   UNL     1      61.926  32.803   5.113  0.00  0.00    +0.013 A 
ATOM      3  C   UNL     1      60.691  32.230   4.591  0.00  0.00    +0.019 A 
ATOM     38  C   UNL     1      60.124  32.810   3.382  0.00  0.00    +0.120 A 
ATOM     39  N   UNL     1      60.760  33.882   2.763  0.00  0.00    -0.263 NA
ATOM     40  C   UNL     1      61.947  34.442   3.257  0.00  0.00    +0.111 A 
ENDBRANCH   4   3
ENDBRANCH  10   9
BRANCH  12  13
ATOM     13  N   UNL     1      53.400  26.555   5.400  0.00  0.00    -0.281 N 
ATOM     14  C   UNL     1      52.029  26.364   5.337  0.00  0.00    +0.248 C 
ATOM     30  O   UNL     1      51.231  26.813   6.146  0.00  0.00    -0.270 OA
ATOM     31  H   UNL     1      53.963  25.969   4.782  0.00  0.00    +0.155 HD
BRANCH  14  15
ATOM     15  C   UNL     1      51.465  25.543   4.223  0.00  0.00    +0.037 A 
ATOM     16  C   UNL     1      50.403  26.064   3.357  0.00  0.00    +0.013 A 
ATOM     17  C   UNL     1      49.865  25.245   2.300  0.00  0.00    +0.005 A 
ATOM     18  C   UNL     1      50.389  23.896   2.102  0.00  0.00    -0.033 A 
ATOM     28  C   UNL     1      51.445  23.406   2.971  0.00  0.00    +0.005 A 
ATOM     29  C   UNL     1      51.975  24.206   4.009  0.00  0.00    +0.013 A 
BRANCH  18  19
ATOM     19  C   UNL     1      49.859  22.945   1.013  0.00  0.00    +0.119 C 
BRANCH  19  20
ATOM     20  N   UNL     1      48.448  22.472   1.145  0.00  0.00    -0.302 NA
ATOM     21  C   UNL     1      47.471  23.354   0.364  0.00  0.00    +0.066 C 
ATOM     22  C   UNL     1      46.003  22.831   0.495  0.00  0.00    -0.064 C 
ATOM     23  N   UNL     1      45.616  22.772   1.974  0.00  0.00    +0.379 N 
ATOM     24  C   UNL     1      44.217  22.336   2.098  0.00  0.00    -0.096 C 
ATOM     25  H   UNL     1      45.686  23.806   2.383  0.00  0.00    -0.082 HD
ATOM     26  C   UNL     1      46.585  21.899   2.759  0.00  0.00    -0.064 C 
ATOM     27  C   UNL     1      48.044  22.409   2.597  0.00  0.00    +0.066 C 
ENDBRANCH  19  20
ENDBRANCH  18  19
ENDBRANCH  14  15
ENDBRANCH  12  13
TORSDOF 6
ENDMDL
MODEL 3
REMARK VINA RESULT:      -7.9      1.501      1.998
REMARK  Name = C:\Users\Docking\Desktop\test protocol\1iep_ligandH.pdb
REMARK  8 active torsions:
REMARK  status: ('A' for Active; 'I' for Inactive)
REMARK    1  A    between atoms: _5  and  _11
REMARK    2  A    between atoms: _19  and  _21
REMARK    3  A    between atoms: _22  and  _66
REMARK    4  A    between atoms: _27  and  _30
REMARK    5  A    between atoms: _32  and  _33
REMARK    6  A    between atoms: _38  and  _43
REMARK    7  A    between atoms: _43  and  _46
REMARK    8  A    between atoms: _53  and  _55
REMARK                            x       y       z     vdW  Elec       q    Type
REMARK                         _______ _______ _______ _____ _____    ______ ____
ROOT
ATOM     10  C   UNL     1      56.251  29.381   6.596  0.00  0.00    +0.038 A 
ATOM     11  C   UNL     1      55.564  28.519   5.704  0.00  0.00    +0.047 A 
ATOM     12  C   UNL     1      54.814  27.373   6.193  0.00  0.00    +0.035 A 
ATOM     32  C   UNL     1      54.783  27.135   7.598  0.00  0.00    +0.024 A 
ATOM     33  C   UNL     1      55.476  28.001   8.519  0.00  0.00    +0.007 A 
ATOM     34  C   UNL     1      56.220  29.132   8.043  0.00  0.00    -0.029 A 
ATOM     35  C   UNL     1      56.950  30.022   9.075  0.00  0.00    +0.045 C 
ENDROOT
BRANCH  10   9
ATOM      4  C   UNL     1      60.316  31.504   5.180  0.00  0.00    +0.077 A 
ATOM      5  C   UNL     1      61.107  30.362   5.540  0.00  0.00    +0.048 A 
ATOM      6  C   UNL     1      60.430  29.252   6.093  0.00  0.00    +0.116 A 
ATOM      7  N   UNL     1      59.064  29.291   6.268  0.00  0.00    -0.223 NA
ATOM      8  C   UNL     1      58.331  30.409   5.912  0.00  0.00    +0.220 A 
ATOM      9  N   UNL     1      56.955  30.467   6.072  0.00  0.00    -0.283 N 
ATOM     36  H   UNL     1      56.452  31.313   5.804  0.00  0.00    +0.155 HD
ATOM     37  N   UNL     1      58.954  31.482   5.383  0.00  0.00    -0.214 NA
BRANCH   4   3
ATOM      1  C   UNL     1      60.955  35.256   4.277  0.00  0.00    +0.020 A 
ATOM      2  C   UNL     1      60.369  34.082   4.882  0.00  0.00    +0.013 A 
ATOM      3  C   UNL     1      60.885  32.752   4.581  0.00  0.00    +0.019 A 
ATOM     38  C   UNL     1      62.005  32.644   3.658  0.00  0.00    +0.120 A 
ATOM     39  N   UNL     1      62.549  33.792   3.090  0.00  0.00    -0.263 NA
ATOM     40  C   UNL     1      62.059  35.077   3.370  0.00  0.00    +0.111 A 
ENDBRANCH   4   3
ENDBRANCH  10   9
BRANCH  12  13
ATOM     13  N   UNL     1      54.103  26.458   5.334  0.00  0.00    -0.281 N 
ATOM     14  C   UNL     1      54.418  25.140   5.048  0.00  0.00    +0.248 C 
ATOM     30  O   UNL     1      55.484  24.609   5.321  0.00  0.00    -0.270 OA
ATOM     31  H   UNL     1      53.266  26.827   4.883  0.00  0.00    +0.155 HD
BRANCH  14  15
ATOM     15  C   UNL     1      53.408  24.293   4.343  0.00  0.00    +0.037 A 
ATOM     16  C   UNL     1      53.813  23.132   3.546  0.00  0.00    +0.013 A 
ATOM     17  C   UNL     1      52.819  22.342   2.863  0.00  0.00    +0.005 A 
ATOM     18  C   UNL     1      51.410  22.710   2.975  0.00  0.00    -0.033 A 
ATOM     28  C   UNL     1      51.036  23.864   3.776  0.00  0.00    +0.005 A 
ATOM     29  C   UNL     1      52.007  24.641   4.447  0.00  0.00    +0.013 A 
BRANCH  18  19
ATOM     19  C   UNL     1      50.285  21.937   2.262  0.00  0.00    +0.119 C 
BRANCH  19  20
ATOM     20  N   UNL     1      49.990  22.309   0.846  0.00  0.00    -0.302 NA
ATOM     21  C   UNL     1      51.141  21.945  -0.095  0.00  0.00    +0.066 C 
ATOM     22  C   UNL     1      50.807  22.320  -1.575  0.00  0.00    -0.064 C 
ATOM     23  N   UNL     1      50.489  23.814  -1.661  0.00  0.00    +0.379 N 
ATOM     24  C   UNL     1      50.231  24.181  -3.060  0.00  0.00    -0.096 C 
ATOM     25  H   UNL     1      51.395  24.371  -1.326  0.00  0.00    -0.082 HD
ATOM     26  C   UNL     1      49.347  24.185  -0.726  0.00  0.00    -0.064 C 
ATOM     27  C   UNL     1      49.678  23.781   0.738  0.00  0.00    +0.066 C 
ENDBRANCH  19  20
ENDBRANCH  18  19
ENDBRANCH  14  15
ENDBRANCH  12  13
TORSDOF 6
ENDMDL
MODEL 4
REMARK VINA RESULT:      -7.9      4.221     14.150
REMARK  Name = C:\Users\Docking\Desktop\test protocol\1iep_ligandH.pdb
REMARK  8 active torsions:
REMARK  status: ('A' for Active; 'I' for Inactive)
REMARK    1  A    between atoms: _5  and  _11
REMARK    2  A    between atoms: _19  and  _21
REMARK    3  A    between atoms: _22  and  _66
REMARK    4  A    between atoms: _27  and  _30
REMARK    5  A    between atoms: _32  and  _33
REMARK    6  A    between atoms: _38  and  _43
REMARK    7  A    between atoms: _43  and  _46
REMARK    8  A    between atoms: _53  and  _55
REMARK                            x       y       z     vdW  Elec       q    Type
REMARK                         _______ _______ _______ _____ _____    ______ ____
ROOT
ATOM     10  C   UNL     1      47.788  24.411   1.210  0.00  0.00    +0.038 A 
ATOM     11  C   UNL     1      48.591  24.884   2.279  0.00  0.00    +0.047 A 
ATOM     12  C   UNL     1      50.009  25.149   2.096  0.00  0.00    +0.035 A 
ATOM     32  C   UNL     1      50.578  24.924   0.808  0.00  0.00    +0.024 A 
ATOM     33  C   UNL     1      49.777  24.444  -0.290  0.00  0.00    +0.007 A 
ATOM     34  C   UNL     1      48.378  24.178  -0.114  0.00  0.00    -0.029 A 
ATOM     35  C   UNL     1      47.569  23.657  -1.326  0.00  0.00    +0.045 C 
ENDROOT
BRANCH  10   9
ATOM      4  C   UNL     1      44.171  21.617   2.674  0.00  0.00    +0.077 A 
ATOM      5  C   UNL     1      45.056  20.529   2.977  0.00  0.00    +0.048 A 
ATOM      6  C   UNL     1      46.434  20.727   2.735  0.00  0.00    +0.116 A 
ATOM      7  N   UNL     1      46.883  21.927   2.228  0.00  0.00    -0.223 NA
ATOM      8  C   UNL     1      46.002  22.955   1.945  0.00  0.00    +0.220 A 
ATOM      9  N   UNL     1      46.432  24.173   1.442  0.00  0.00    -0.283 N 
ATOM     36  H   UNL     1      45.750  24.904   1.239  0.00  0.00    +0.155 HD
ATOM     37  N   UNL     1      44.681  22.790   2.166  0.00  0.00    -0.214 NA
BRANCH   4   3
ATOM      1  C   UNL     1      40.476  22.609   3.485  0.00  0.00    +0.020 A 
ATOM      2  C   UNL     1      41.905  22.715   3.303  0.00  0.00    +0.013 A 
ATOM      3  C   UNL     1      42.689  21.562   2.878  0.00  0.00    +0.019 A 
ATOM     38  C   UNL     1      41.991  20.307   2.643  0.00  0.00    +0.120 A 
ATOM     39  N   UNL     1      40.614  20.234   2.828  0.00  0.00    -0.263 NA
ATOM     40  C   UNL     1      39.849  21.337   3.238  0.00  0.00    +0.111 A 
ENDBRANCH   4   3
ENDBRANCH  10   9
BRANCH  12  13
ATOM     13  N   UNL     1      50.876  25.622   3.147  0.00  0.00    -0.281 N 
ATOM     14  C   UNL     1      51.404  24.900   4.205  0.00  0.00    +0.248 C 
ATOM     30  O   UNL     1      51.036  23.780   4.529  0.00  0.00    -0.270 OA
ATOM     31  H   UNL     1      51.131  26.609   3.107  0.00  0.00    +0.155 HD
BRANCH  14  15
ATOM     15  C   UNL     1      52.486  25.516   5.031  0.00  0.00    +0.037 A 
ATOM     16  C   UNL     1      53.828  24.931   5.084  0.00  0.00    +0.013 A 
ATOM     17  C   UNL     1      54.849  25.536   5.902  0.00  0.00    +0.005 A 
ATOM     18  C   UNL     1      54.531  26.735   6.674  0.00  0.00    -0.033 A 
ATOM     28  C   UNL     1      53.193  27.297   6.599  0.00  0.00    +0.005 A 
ATOM     29  C   UNL     1      52.189  26.707   5.799  0.00  0.00    +0.013 A 
BRANCH  18  19
ATOM     19  C   UNL     1      55.552  27.435   7.590  0.00  0.00    +0.119 C 
BRANCH  19  20
ATOM     20  N   UNL     1      56.798  27.957   6.953  0.00  0.00    -0.302 NA
ATOM     21  C   UNL     1      57.633  28.796   7.925  0.00  0.00    +0.066 C 
ATOM     22  C   UNL     1      58.943  29.315   7.248  0.00  0.00    -0.064 C 
ATOM     23  N   UNL     1      58.583  30.128   6.003  0.00  0.00    +0.379 N 
ATOM     24  C   UNL     1      59.809  30.667   5.397  0.00  0.00    -0.096 C 
ATOM     25  H   UNL     1      57.960  30.992   6.332  0.00  0.00    -0.082 HD
ATOM     26  C   UNL     1      57.750  29.303   5.032  0.00  0.00    -0.064 C 
ATOM     27  C   UNL     1      56.465  28.767   5.723  0.00  0.00    +0.066 C 
ENDBRANCH  19  20
ENDBRANCH  18  19
ENDBRANCH  14  15
ENDBRANCH  12  13
TORSDOF 6
ENDMDL
MODEL 5
REMARK VINA RESULT:      -7.9      4.703     14.754
REMARK  Name = C:\Users\Docking\Desktop\test protocol\1iep_ligandH.pdb
REMARK  8 active torsions:
REMARK  status: ('A' for Active; 'I' for Inactive)
REMARK    1  A    between atoms: _5  and  _11
REMARK    2  A    between atoms: _19  and  _21
REMARK    3  A    between atoms: _22  and  _66
REMARK    4  A    between atoms: _27  and  _30
REMARK    5  A    between atoms: _32  and  _33
REMARK    6  A    between atoms: _38  and  _43
REMARK    7  A    between atoms: _43  and  _46
REMARK    8  A    between atoms: _53  and  _55
REMARK                            x       y       z     vdW  Elec       q    Type
REMARK                         _______ _______ _______ _____ _____    ______ ____
ROOT
ATOM     10  C   UNL     1      46.918  24.036   1.080  0.00  0.00    +0.038 A 
ATOM     11  C   UNL     1      47.544  24.638   2.201  0.00  0.00    +0.047 A 
ATOM     12  C   UNL     1      48.918  25.111   2.132  0.00  0.00    +0.035 A 
ATOM     32  C   UNL     1      49.625  24.956   0.904  0.00  0.00    +0.024 A 
ATOM     33  C   UNL     1      49.004  24.345  -0.245  0.00  0.00    +0.007 A 
ATOM     34  C   UNL     1      47.650  23.875  -0.182  0.00  0.00    -0.029 A 
ATOM     35  C   UNL     1      47.037  23.222  -1.443  0.00  0.00    +0.045 C 
ENDROOT
BRANCH  10   9
ATOM      4  C   UNL     1      43.634  20.802   2.419  0.00  0.00    +0.077 A 
ATOM      5  C   UNL     1      44.637  19.891   2.890  0.00  0.00    +0.048 A 
ATOM      6  C   UNL     1      45.987  20.290   2.763  0.00  0.00    +0.116 A 
ATOM      7  N   UNL     1      46.298  21.511   2.206  0.00  0.00    -0.223 NA
ATOM      8  C   UNL     1      45.306  22.365   1.759  0.00  0.00    +0.220 A 
ATOM      9  N   UNL     1      45.596  23.601   1.202  0.00  0.00    -0.283 N 
ATOM     36  H   UNL     1      44.837  24.199   0.878  0.00  0.00    +0.155 HD
ATOM     37  N   UNL     1      44.010  22.006   1.868  0.00  0.00    -0.214 NA
BRANCH   4   3
ATOM      1  C   UNL     1      39.747  21.234   2.353  0.00  0.00    +0.020 A 
ATOM      2  C   UNL     1      41.154  21.554   2.277  0.00  0.00    +0.013 A 
ATOM      3  C   UNL     1      42.164  20.525   2.486  0.00  0.00    +0.019 A 
ATOM     38  C   UNL     1      41.714  19.171   2.772  0.00  0.00    +0.120 A 
ATOM     39  N   UNL     1      40.353  18.893   2.841  0.00  0.00    -0.263 NA
ATOM     40  C   UNL     1      39.371  19.875   2.643  0.00  0.00    +0.111 A 
ENDBRANCH   4   3
ENDBRANCH  10   9
BRANCH  12  13
ATOM     13  N   UNL     1      49.609  25.723   3.240  0.00  0.00    -0.281 N 
ATOM     14  C   UNL     1      49.102  26.614   4.172  0.00  0.00    +0.248 C 
ATOM     30  O   UNL     1      48.028  27.188   4.067  0.00  0.00    -0.270 OA
ATOM     31  H   UNL     1      50.590  25.468   3.351  0.00  0.00    +0.155 HD
BRANCH  14  15
ATOM     15  C   UNL     1      49.912  26.923   5.390  0.00  0.00    +0.037 A 
ATOM     16  C   UNL     1      49.335  27.657   6.519  0.00  0.00    +0.013 A 
ATOM     17  C   UNL     1      50.143  27.957   7.675  0.00  0.00    +0.005 A 
ATOM     18  C   UNL     1      51.537  27.521   7.707  0.00  0.00    -0.033 A 
ATOM     28  C   UNL     1      52.082  26.789   6.575  0.00  0.00    +0.005 A 
ATOM     29  C   UNL     1      51.293  26.494   5.440  0.00  0.00    +0.013 A 
BRANCH  18  19
ATOM     19  C   UNL     1      52.479  27.815   8.890  0.00  0.00    +0.119 C 
BRANCH  19  20
ATOM     20  N   UNL     1      53.898  28.149   8.567  0.00  0.00    -0.302 NA
ATOM     21  C   UNL     1      54.815  27.995   9.784  0.00  0.00    +0.066 C 
ATOM     22  C   UNL     1      56.300  28.326   9.423  0.00  0.00    -0.064 C 
ATOM     23  N   UNL     1      56.380  29.746   8.861  0.00  0.00    +0.379 N 
ATOM     24  C   UNL     1      57.783  30.082   8.574  0.00  0.00    -0.096 C 
ATOM     25  H   UNL     1      56.020  30.444   9.652  0.00  0.00    -0.082 HD
ATOM     26  C   UNL     1      55.469  29.910   7.652  0.00  0.00    -0.064 C 
ATOM     27  C   UNL     1      54.001  29.549   8.014  0.00  0.00    +0.066 C 
ENDBRANCH  19  20
ENDBRANCH  18  19
ENDBRANCH  14  15
ENDBRANCH  12  13
TORSDOF 6
ENDMDL
