MODEL 1
REMARK VINA RESULT:      -8.1      0.000      0.000
REMARK  Name = C:\Users\Docking\Desktop\test protocol\1iep_ligandH.pdb
REMARK  8 active torsions:
REMARK  status: ('A' for Active; 'I' for Inactive)
REMARK    1  A    between atoms: _5  and  _11
REMARK    2  A    between atoms: _19  and  _21
REMARK    3  A    between atoms: _22  and  _66
REMARK    4  A    between atoms: _27  and  _30
REMARK    5  A    between atoms: _32  and  _33
REMARK    6  A    between atoms: _38  and  _43
REMARK    7  A    between atoms: _43  and  _46
REMARK    8  A    between atoms: _53  and  _55
REMARK                            x       y       z     vdW  Elec       q    Type
REMARK                         _______ _______ _______ _____ _____    ______ ____
ROOT
ATOM     10  C   UNL     1      55.939  29.339   6.748  0.00  0.00    +0.038 A 
ATOM     11  C   UNL     1      55.240  28.406   5.940  0.00  0.00    +0.047 A 
ATOM     12  C   UNL     1      54.462  27.330   6.533  0.00  0.00    +0.035 A 
ATOM     32  C   UNL     1      54.415  27.234   7.954  0.00  0.00    +0.024 A 
ATOM     33  C   UNL     1      55.120  28.173   8.792  0.00  0.00    +0.007 A 
ATOM     34  C   UNL     1      55.891  29.235   8.212  0.00  0.00    -0.029 A 
ATOM     35  C   UNL     1      56.632  30.209   9.158  0.00  0.00    +0.045 C 
ENDROOT
BRANCH  10   9
ATOM      4  C   UNL     1      60.047  31.191   5.096  0.00  0.00    +0.077 A 
ATOM      5  C   UNL     1      60.804  30.054   5.534  0.00  0.00    +0.048 A 
ATOM      6  C   UNL     1      60.100  29.018   6.187  0.00  0.00    +0.116 A 
ATOM      7  N   UNL     1      58.740  29.121   6.382  0.00  0.00    -0.223 NA
ATOM      8  C   UNL     1      58.040  30.231   5.948  0.00  0.00    +0.220 A 
ATOM      9  N   UNL     1      56.670  30.352   6.125  0.00  0.00    -0.283 N 
ATOM     36  H   UNL     1      56.191  31.191   5.797  0.00  0.00    +0.155 HD
ATOM     37  N   UNL     1      58.689  31.235   5.323  0.00  0.00    -0.214 NA
BRANCH   4   3
ATOM      1  C   UNL     1      62.354  34.210   4.167  0.00  0.00    +0.020 A 
ATOM      2  C   UNL     1      61.813  33.082   4.890  0.00  0.00    +0.013 A 
ATOM      3  C   UNL     1      60.647  32.365   4.388  0.00  0.00    +0.019 A 
ATOM     38  C   UNL     1      60.049  32.818   3.141  0.00  0.00    +0.120 A 
ATOM     39  N   UNL     1      60.591  33.908   2.468  0.00  0.00    -0.263 NA
ATOM     40  C   UNL     1      61.711  34.607   2.942  0.00  0.00    +0.111 A 
ENDBRANCH   4   3
ENDBRANCH  10   9
BRANCH  12  13
ATOM     13  N   UNL     1      53.739  26.349   5.763  0.00  0.00    -0.281 N 
ATOM     14  C   UNL     1      52.370  26.141   5.719  0.00  0.00    +0.248 C 
ATOM     30  O   UNL     1      51.571  26.630   6.504  0.00  0.00    -0.270 OA
ATOM     31  H   UNL     1      54.304  25.733   5.179  0.00  0.00    +0.155 HD
BRANCH  14  15
ATOM     15  C   UNL     1      51.808  25.249   4.659  0.00  0.00    +0.037 A 
ATOM     16  C   UNL     1      52.603  24.162   4.081  0.00  0.00    +0.013 A 
ATOM     17  C   UNL     1      52.043  23.327   3.048  0.00  0.00    +0.005 A 
ATOM     18  C   UNL     1      50.679  23.575   2.587  0.00  0.00    -0.033 A 
ATOM     28  C   UNL     1      49.911  24.657   3.182  0.00  0.00    +0.005 A 
ATOM     29  C   UNL     1      50.457  25.478   4.194  0.00  0.00    +0.013 A 
BRANCH  18  19
ATOM     19  C   UNL     1      50.009  22.748   1.475  0.00  0.00    +0.119 C 
BRANCH  19  20
ATOM     20  N   UNL     1      49.750  23.434   0.174  0.00  0.00    -0.302 NA
ATOM     21  C   UNL     1      49.252  22.462  -0.899  0.00  0.00    +0.066 C 
ATOM     22  C   UNL     1      48.965  23.200  -2.247  0.00  0.00    -0.064 C 
ATOM     23  N   UNL     1      50.233  23.918  -2.713  0.00  0.00    +0.379 N 
ATOM     24  C   UNL     1      49.982  24.565  -4.009  0.00  0.00    -0.096 C 
ATOM     25  H   UNL     1      51.021  23.145  -2.867  0.00  0.00    -0.082 HD
ATOM     26  C   UNL     1      50.736  24.884  -1.650  0.00  0.00    -0.064 C 
ATOM     27  C   UNL     1      50.990  24.146  -0.306  0.00  0.00    +0.066 C 
ENDBRANCH  19  20
ENDBRANCH  18  19
ENDBRANCH  14  15
ENDBRANCH  12  13
TORSDOF 6
ENDMDL
MODEL 2
REMARK VINA RESULT:      -8.0      1.855      2.276
REMARK  Name = C:\Users\Docking\Desktop\test protocol\1iep_ligandH.pdb
REMARK  8 active torsions:
REMARK  status: ('A' for Active; 'I' for Inactive)
REMARK    1  A    between atoms: _5  and  _11
REMARK    2  A    between atoms: _19  and  _21
REMARK    3  A    between atoms: _22  and  _66
REMARK    4  A    between atoms: _27  and  _30
REMARK    5  A    between atoms: _32  and  _33
REMARK    6  A    between atoms: _38  and  _43
REMARK    7  A    between atoms: _43  and  _46
REMARK    8  A    between atoms: _53  and  _55
REMARK                            x       y       z     vdW  Elec       q    Type
REMARK                         _______ _______ _______ _____ _____    ______ ____
ROOT
ATOM     10  C   UNL     1      56.061  29.461   6.563  0.00  0.00    +0.038 A 
ATOM     11  C   UNL     1      55.385  28.566   5.694  0.00  0.00    +0.047 A 
ATOM     12  C   UNL     1      54.566  27.484   6.217  0.00  0.00    +0.035 A 
ATOM     32  C   UNL     1      54.455  27.343   7.631  0.00  0.00    +0.024 A 
ATOM     33  C   UNL     1      55.136  28.243   8.529  0.00  0.00    +0.007 A 
ATOM     34  C   UNL     1      55.947  29.311   8.019  0.00  0.00    -0.029 A 
ATOM     35  C   UNL     1      56.660  30.241   9.028  0.00  0.00    +0.045 C 
ENDROOT
BRANCH  10   9
ATOM      4  C   UNL     1      60.259  31.283   5.118  0.00  0.00    +0.077 A 
ATOM      5  C   UNL     1      60.977  30.112   5.531  0.00  0.00    +0.048 A 
ATOM      6  C   UNL     1      60.230  29.066   6.117  0.00  0.00    +0.116 A 
ATOM      7  N   UNL     1      58.867  29.193   6.274  0.00  0.00    -0.223 NA
ATOM      8  C   UNL     1      58.206  30.337   5.866  0.00  0.00    +0.220 A 
ATOM      9  N   UNL     1      56.834  30.482   6.006  0.00  0.00    -0.283 N 
ATOM     36  H   UNL     1      56.385  31.345   5.700  0.00  0.00    +0.155 HD
ATOM     37  N   UNL     1      58.897  31.350   5.305  0.00  0.00    -0.214 NA
BRANCH   4   3
ATOM      1  C   UNL     1      62.587  34.355   4.447  0.00  0.00    +0.020 A 
ATOM      2  C   UNL     1      61.994  33.214   5.107  0.00  0.00    +0.013 A 
ATOM      3  C   UNL     1      60.908  32.472   4.479  0.00  0.00    +0.019 A 
ATOM     38  C   UNL     1      60.442  32.913   3.173  0.00  0.00    +0.120 A 
ATOM     39  N   UNL     1      61.030  34.016   2.563  0.00  0.00    -0.263 NA
ATOM     40  C   UNL     1      62.075  34.739   3.158  0.00  0.00    +0.111 A 
ENDBRANCH   4   3
ENDBRANCH  10   9
BRANCH  12  13
ATOM     13  N   UNL     1      53.863  26.540   5.384  0.00  0.00    -0.281 N 
ATOM     14  C   UNL     1      54.113  25.186   5.233  0.00  0.00    +0.248 C 
ATOM     30  O   UNL     1      55.120  24.620   5.632  0.00  0.00    -0.270 OA
ATOM     31  H   UNL     1      53.087  26.916   4.839  0.00  0.00    +0.155 HD
BRANCH  14  15
ATOM     15  C   UNL     1      53.105  24.340   4.524  0.00  0.00    +0.037 A 
ATOM     16  C   UNL     1      53.513  23.184   3.722  0.00  0.00    +0.013 A 
ATOM     17  C   UNL     1      52.522  22.395   3.034  0.00  0.00    +0.005 A 
ATOM     18  C   UNL     1      51.112  22.760   3.147  0.00  0.00    -0.033 A 
ATOM     28  C   UNL     1      50.735  23.909   3.953  0.00  0.00    +0.005 A 
ATOM     29  C   UNL     1      51.704  24.685   4.628  0.00  0.00    +0.013 A 
BRANCH  18  19
ATOM     19  C   UNL     1      49.988  21.988   2.430  0.00  0.00    +0.119 C 
BRANCH  19  20
ATOM     20  N   UNL     1      48.694  22.702   2.220  0.00  0.00    -0.302 NA
ATOM     21  C   UNL     1      47.488  21.805   2.512  0.00  0.00    +0.066 C 
ATOM     22  C   UNL     1      46.143  22.576   2.309  0.00  0.00    -0.064 C 
ATOM     23  N   UNL     1      46.080  23.118   0.880  0.00  0.00    +0.379 N 
ATOM     24  C   UNL     1      44.792  23.793   0.668  0.00  0.00    -0.096 C 
ATOM     25  H   UNL     1      46.125  22.247   0.185  0.00  0.00    -0.082 HD
ATOM     26  C   UNL     1      47.277  24.009   0.580  0.00  0.00    -0.064 C 
ATOM     27  C   UNL     1      48.609  23.243   0.813  0.00  0.00    +0.066 C 
ENDBRANCH  19  20
ENDBRANCH  18  19
ENDBRANCH  14  15
ENDBRANCH  12  13
TORSDOF 6
ENDMDL
MODEL 3
REMARK VINA RESULT:      -7.6     12.903     17.627
REMARK  Name = C:\Users\Docking\Desktop\test protocol\1iep_ligandH.pdb
REMARK  8 active torsions:
REMARK  status: ('A' for Active; 'I' for Inactive)
REMARK    1  A    between atoms: _5  and  _11
REMARK    2  A    between atoms: _19  and  _21
REMARK    3  A    between atoms: _22  and  _66
REMARK    4  A    between atoms: _27  and  _30
REMARK    5  A    between atoms: _32  and  _33
REMARK    6  A    between atoms: _38  and  _43
REMARK    7  A    between atoms: _43  and  _46
REMARK    8  A    between atoms: _53  and  _55
REMARK                            x       y       z     vdW  Elec       q    Type
REMARK                         _______ _______ _______ _____ _____    ______ ____
ROOT
ATOM     10  C   UNL     1      55.477  40.810   7.858  0.00  0.00    +0.038 A 
ATOM     11  C   UNL     1      55.002  41.553   6.747  0.00  0.00    +0.047 A 
ATOM     12  C   UNL     1      55.750  42.685   6.224  0.00  0.00    +0.035 A 
ATOM     32  C   UNL     1      56.981  43.031   6.855  0.00  0.00    +0.024 A 
ATOM     33  C   UNL     1      57.478  42.288   7.986  0.00  0.00    +0.007 A 
ATOM     34  C   UNL     1      56.742  41.171   8.507  0.00  0.00    -0.029 A 
ATOM     35  C   UNL     1      57.320  40.414   9.726  0.00  0.00    +0.045 C 
ENDROOT
BRANCH  10   9
ATOM      4  C   UNL     1      51.690  38.982  10.171  0.00  0.00    +0.077 A 
ATOM      5  C   UNL     1      51.196  40.284  10.514  0.00  0.00    +0.048 A 
ATOM      6  C   UNL     1      51.949  41.398  10.082  0.00  0.00    +0.116 A 
ATOM      7  N   UNL     1      53.109  41.212   9.361  0.00  0.00    -0.223 NA
ATOM      8  C   UNL     1      53.558  39.942   9.049  0.00  0.00    +0.220 A 
ATOM      9  N   UNL     1      54.718  39.732   8.318  0.00  0.00    -0.283 N 
ATOM     36  H   UNL     1      55.020  38.779   8.115  0.00  0.00    +0.155 HD
ATOM     37  N   UNL     1      52.857  38.862   9.451  0.00  0.00    -0.214 NA
BRANCH   4   3
ATOM      1  C   UNL     1      49.176  35.987  10.294  0.00  0.00    +0.020 A 
ATOM      2  C   UNL     1      49.800  37.225   9.887  0.00  0.00    +0.013 A 
ATOM      3  C   UNL     1      51.003  37.707  10.553  0.00  0.00    +0.019 A 
ATOM     38  C   UNL     1      51.555  36.906  11.636  0.00  0.00    +0.120 A 
ATOM     39  N   UNL     1      50.932  35.719  12.007  0.00  0.00    -0.263 NA
ATOM     40  C   UNL     1      49.772  35.246  11.374  0.00  0.00    +0.111 A 
ENDBRANCH   4   3
ENDBRANCH  10   9
BRANCH  12  13
ATOM     13  N   UNL     1      55.314  43.482   5.104  0.00  0.00    -0.281 N 
ATOM     14  C   UNL     1      55.966  43.687   3.899  0.00  0.00    +0.248 C 
ATOM     30  O   UNL     1      57.131  43.386   3.684  0.00  0.00    -0.270 OA
ATOM     31  H   UNL     1      54.415  43.952   5.212  0.00  0.00    +0.155 HD
BRANCH  14  15
ATOM     15  C   UNL     1      55.222  44.333   2.776  0.00  0.00    +0.037 A 
ATOM     16  C   UNL     1      55.917  45.130   1.762  0.00  0.00    +0.013 A 
ATOM     17  C   UNL     1      55.173  45.756   0.698  0.00  0.00    +0.005 A 
ATOM     18  C   UNL     1      53.723  45.586   0.642  0.00  0.00    -0.033 A 
ATOM     28  C   UNL     1      53.059  44.785   1.658  0.00  0.00    +0.005 A 
ATOM     29  C   UNL     1      53.785  44.171   2.703  0.00  0.00    +0.013 A 
BRANCH  18  19
ATOM     19  C   UNL     1      52.846  46.235  -0.445  0.00  0.00    +0.119 C 
BRANCH  19  20
ATOM     20  N   UNL     1      53.429  46.351  -1.815  0.00  0.00    -0.302 NA
ATOM     21  C   UNL     1      53.604  47.811  -2.242  0.00  0.00    +0.066 C 
ATOM     22  C   UNL     1      54.236  47.914  -3.669  0.00  0.00    -0.064 C 
ATOM     23  N   UNL     1      53.359  47.159  -4.668  0.00  0.00    +0.379 N 
ATOM     24  C   UNL     1      53.919  47.303  -6.020  0.00  0.00    -0.096 C 
ATOM     25  H   UNL     1      52.353  47.640  -4.666  0.00  0.00    -0.082 HD
ATOM     26  C   UNL     1      53.177  45.707  -4.249  0.00  0.00    -0.064 C 
ATOM     27  C   UNL     1      52.576  45.616  -2.818  0.00  0.00    +0.066 C 
ENDBRANCH  19  20
ENDBRANCH  18  19
ENDBRANCH  14  15
ENDBRANCH  12  13
TORSDOF 6
ENDMDL
MODEL 4
REMARK VINA RESULT:      -7.6      4.993     15.053
REMARK  Name = C:\Users\Docking\Desktop\test protocol\1iep_ligandH.pdb
REMARK  8 active torsions:
REMARK  status: ('A' for Active; 'I' for Inactive)
REMARK    1  A    between atoms: _5  and  _11
REMARK    2  A    between atoms: _19  and  _21
REMARK    3  A    between atoms: _22  and  _66
REMARK    4  A    between atoms: _27  and  _30
REMARK    5  A    between atoms: _32  and  _33
REMARK    6  A    between atoms: _38  and  _43
REMARK    7  A    between atoms: _43  and  _46
REMARK    8  A    between atoms: _53  and  _55
REMARK                            x       y       z     vdW  Elec       q    Type
REMARK                         _______ _______ _______ _____ _____    ______ ____
ROOT
ATOM     10  C   UNL     1      47.351  21.916   0.696  0.00  0.00    +0.038 A 
ATOM     11  C   UNL     1      48.040  22.492   1.794  0.00  0.00    +0.047 A 
ATOM     12  C   UNL     1      48.886  23.662   1.622  0.00  0.00    +0.035 A 
ATOM     32  C   UNL     1      49.005  24.223   0.316  0.00  0.00    +0.024 A 
ATOM     33  C   UNL     1      48.313  23.650  -0.811  0.00  0.00    +0.007 A 
ATOM     34  C   UNL     1      47.479  22.493  -0.647  0.00  0.00    -0.029 A 
ATOM     35  C   UNL     1      46.766  21.917  -1.892  0.00  0.00    +0.045 C 
ENDROOT
BRANCH  10   9
ATOM      4  C   UNL     1      43.378  19.814   2.379  0.00  0.00    +0.077 A 
ATOM      5  C   UNL     1      42.862  21.055   2.879  0.00  0.00    +0.048 A 
ATOM      6  C   UNL     1      43.653  22.210   2.690  0.00  0.00    +0.116 A 
ATOM      7  N   UNL     1      44.868  22.119   2.046  0.00  0.00    -0.223 NA
ATOM      8  C   UNL     1      45.337  20.906   1.577  0.00  0.00    +0.220 A 
ATOM      9  N   UNL     1      46.552  20.792   0.919  0.00  0.00    -0.283 N 
ATOM     36  H   UNL     1      46.866  19.878   0.595  0.00  0.00    +0.155 HD
ATOM     37  N   UNL     1      44.601  19.788   1.747  0.00  0.00    -0.214 NA
BRANCH   4   3
ATOM      1  C   UNL     1      41.431  16.531   1.521  0.00  0.00    +0.020 A 
ATOM      2  C   UNL     1      42.118  17.790   1.350  0.00  0.00    +0.013 A 
ATOM      3  C   UNL     1      42.657  18.507   2.499  0.00  0.00    +0.019 A 
ATOM     38  C   UNL     1      42.483  17.917   3.818  0.00  0.00    +0.120 A 
ATOM     39  N   UNL     1      41.816  16.703   3.952  0.00  0.00    -0.263 NA
ATOM     40  C   UNL     1      41.291  16.006   2.853  0.00  0.00    +0.111 A 
ENDBRANCH   4   3
ENDBRANCH  10   9
BRANCH  12  13
ATOM     13  N   UNL     1      49.616  24.286   2.697  0.00  0.00    -0.281 N 
ATOM     14  C   UNL     1      50.832  23.901   3.236  0.00  0.00    +0.248 C 
ATOM     30  O   UNL     1      51.378  22.830   3.016  0.00  0.00    -0.270 OA
ATOM     31  H   UNL     1      49.183  25.111   3.112  0.00  0.00    +0.155 HD
BRANCH  14  15
ATOM     15  C   UNL     1      51.538  24.834   4.166  0.00  0.00    +0.037 A 
ATOM     16  C   UNL     1      52.927  24.599   4.570  0.00  0.00    +0.013 A 
ATOM     17  C   UNL     1      53.579  25.506   5.481  0.00  0.00    +0.005 A 
ATOM     18  C   UNL     1      52.841  26.658   5.995  0.00  0.00    -0.033 A 
ATOM     28  C   UNL     1      51.466  26.870   5.574  0.00  0.00    +0.005 A 
ATOM     29  C   UNL     1      50.824  25.983   4.682  0.00  0.00    +0.013 A 
BRANCH  18  19
ATOM     19  C   UNL     1      53.450  27.665   6.988  0.00  0.00    +0.119 C 
BRANCH  19  20
ATOM     20  N   UNL     1      54.881  28.042   6.789  0.00  0.00    -0.302 NA
ATOM     21  C   UNL     1      55.496  28.651   8.052  0.00  0.00    +0.066 C 
ATOM     22  C   UNL     1      57.000  29.018   7.833  0.00  0.00    -0.064 C 
ATOM     23  N   UNL     1      57.119  29.984   6.653  0.00  0.00    +0.379 N 
ATOM     24  C   UNL     1      58.525  30.377   6.481  0.00  0.00    -0.096 C 
ATOM     25  H   UNL     1      56.540  30.902   6.908  0.00  0.00    -0.082 HD
ATOM     26  C   UNL     1      56.508  29.388   5.393  0.00  0.00    -0.064 C 
ATOM     27  C   UNL     1      55.022  28.999   5.631  0.00  0.00    +0.066 C 
ENDBRANCH  19  20
ENDBRANCH  18  19
ENDBRANCH  14  15
ENDBRANCH  12  13
TORSDOF 6
ENDMDL
MODEL 5
REMARK VINA RESULT:      -7.6     14.935     19.023
REMARK  Name = C:\Users\Docking\Desktop\test protocol\1iep_ligandH.pdb
REMARK  8 active torsions:
REMARK  status: ('A' for Active; 'I' for Inactive)
REMARK    1  A    between atoms: _5  and  _11
REMARK    2  A    between atoms: _19  and  _21
REMARK    3  A    between atoms: _22  and  _66
REMARK    4  A    between atoms: _27  and  _30
REMARK    5  A    between atoms: _32  and  _33
REMARK    6  A    between atoms: _38  and  _43
REMARK    7  A    between atoms: _43  and  _46
REMARK    8  A    between atoms: _53  and  _55
REMARK                            x       y       z     vdW  Elec       q    Type
REMARK                         _______ _______ _______ _____ _____    ______ ____
ROOT
ATOM     10  C   UNL     1      52.127  44.538   3.474  0.00  0.00    +0.038 A 
ATOM     11  C   UNL     1      53.101  43.690   4.059  0.00  0.00    +0.047 A 
ATOM     12  C   UNL     1      53.175  43.512   5.501  0.00  0.00    +0.035 A 
ATOM     32  C   UNL     1      52.239  44.213   6.317  0.00  0.00    +0.024 A 
ATOM     33  C   UNL     1      51.243  45.080   5.739  0.00  0.00    +0.007 A 
ATOM     34  C   UNL     1      51.167  45.261   4.317  0.00  0.00    -0.029 A 
ATOM     35  C   UNL     1      50.083  46.208   3.753  0.00  0.00    +0.045 C 
ENDROOT
BRANCH  10   9
ATOM      4  C   UNL     1      53.593  46.591  -0.610  0.00  0.00    +0.077 A 
ATOM      5  C   UNL     1      54.465  47.492   0.087  0.00  0.00    +0.048 A 
ATOM      6  C   UNL     1      54.502  47.399   1.497  0.00  0.00    +0.116 A 
ATOM      7  N   UNL     1      53.720  46.471   2.150  0.00  0.00    -0.223 NA
ATOM      8  C   UNL     1      52.889  45.618   1.448  0.00  0.00    +0.220 A 
ATOM      9  N   UNL     1      52.100  44.672   2.084  0.00  0.00    -0.283 N 
ATOM     36  H   UNL     1      51.495  44.066   1.530  0.00  0.00    +0.155 HD
ATOM     37  N   UNL     1      52.835  45.687   0.101  0.00  0.00    -0.214 NA
BRANCH   4   3
ATOM      1  C   UNL     1      52.464  45.644  -4.233  0.00  0.00    +0.020 A 
ATOM      2  C   UNL     1      52.569  45.629  -2.792  0.00  0.00    +0.013 A 
ATOM      3  C   UNL     1      53.446  46.564  -2.099  0.00  0.00    +0.019 A 
ATOM     38  C   UNL     1      54.208  47.510  -2.900  0.00  0.00    +0.120 A 
ATOM     39  N   UNL     1      54.087  47.501  -4.286  0.00  0.00    -0.263 NA
ATOM     40  C   UNL     1      53.248  46.605  -4.964  0.00  0.00    +0.111 A 
ENDBRANCH   4   3
ENDBRANCH  10   9
BRANCH  12  13
ATOM     13  N   UNL     1      54.147  42.671   6.153  0.00  0.00    -0.281 N 
ATOM     14  C   UNL     1      55.466  42.969   6.456  0.00  0.00    +0.248 C 
ATOM     30  O   UNL     1      56.074  43.934   6.018  0.00  0.00    -0.270 OA
ATOM     31  H   UNL     1      53.824  41.742   6.424  0.00  0.00    +0.155 HD
BRANCH  14  15
ATOM     15  C   UNL     1      56.222  42.056   7.365  0.00  0.00    +0.037 A 
ATOM     16  C   UNL     1      55.574  40.904   7.997  0.00  0.00    +0.013 A 
ATOM     17  C   UNL     1      56.322  40.049   8.884  0.00  0.00    +0.005 A 
ATOM     18  C   UNL     1      57.730  40.342   9.142  0.00  0.00    -0.033 A 
ATOM     28  C   UNL     1      58.350  41.488   8.498  0.00  0.00    +0.005 A 
ATOM     29  C   UNL     1      57.619  42.329   7.629  0.00  0.00    +0.013 A 
BRANCH  18  19
ATOM     19  C   UNL     1      58.600  39.496  10.091  0.00  0.00    +0.119 C 
BRANCH  19  20
ATOM     20  N   UNL     1      58.674  39.927  11.518  0.00  0.00    -0.302 NA
ATOM     21  C   UNL     1      59.962  40.699  11.820  0.00  0.00    +0.066 C 
ATOM     22  C   UNL     1      60.012  41.162  13.312  0.00  0.00    -0.064 C 
ATOM     23  N   UNL     1      59.885  39.942  14.226  0.00  0.00    +0.379 N 
ATOM     24  C   UNL     1      59.990  40.367  15.630  0.00  0.00    -0.096 C 
ATOM     25  H   UNL     1      60.746  39.267  14.012  0.00  0.00    -0.082 HD
ATOM     26  C   UNL     1      58.608  39.168  13.932  0.00  0.00    -0.064 C 
ATOM     27  C   UNL     1      58.554  38.738  12.439  0.00  0.00    +0.066 C 
ENDBRANCH  19  20
ENDBRANCH  18  19
ENDBRANCH  14  15
ENDBRANCH  12  13
TORSDOF 6
ENDMDL
