MODEL 1
REMARK VINA RESULT:      -8.2      0.000      0.000
REMARK  Name = C:\Users\Docking\Desktop\test protocol\1iep_ligandH.pdb
REMARK  8 active torsions:
REMARK  status: ('A' for Active; 'I' for Inactive)
REMARK    1  A    between atoms: _5  and  _11
REMARK    2  A    between atoms: _19  and  _21
REMARK    3  A    between atoms: _22  and  _66
REMARK    4  A    between atoms: _27  and  _30
REMARK    5  A    between atoms: _32  and  _33
REMARK    6  A    between atoms: _38  and  _43
REMARK    7  A    between atoms: _43  and  _46
REMARK    8  A    between atoms: _53  and  _55
REMARK                            x       y       z     vdW  Elec       q    Type
REMARK                         _______ _______ _______ _____ _____    ______ ____
ROOT
ATOM     10  C   UNL     1       8.978  18.451  18.751  0.00  0.00    +0.038 A 
ATOM     11  C   UNL     1       7.757  18.331  19.462  0.00  0.00    +0.047 A 
ATOM     12  C   UNL     1       6.756  17.348  19.078  0.00  0.00    +0.035 A 
ATOM     32  C   UNL     1       7.033  16.500  17.967  0.00  0.00    +0.024 A 
ATOM     33  C   UNL     1       8.269  16.608  17.232  0.00  0.00    +0.007 A 
ATOM     34  C   UNL     1       9.259  17.578  17.604  0.00  0.00    -0.029 A 
ATOM     35  C   UNL     1      10.563  17.654  16.777  0.00  0.00    +0.045 C 
ENDROOT
BRANCH  10   9
ATOM      4  C   UNL     1      11.104  22.733  18.329  0.00  0.00    +0.077 A 
ATOM      5  C   UNL     1      10.322  23.073  17.174  0.00  0.00    +0.048 A 
ATOM      6  C   UNL     1       9.390  22.115  16.717  0.00  0.00    +0.116 A 
ATOM      7  N   UNL     1       9.257  20.911  17.373  0.00  0.00    -0.223 NA
ATOM      8  C   UNL     1      10.027  20.614  18.482  0.00  0.00    +0.220 A 
ATOM      9  N   UNL     1       9.904  19.412  19.162  0.00  0.00    -0.283 N 
ATOM     36  H   UNL     1      10.496  19.228  19.972  0.00  0.00    +0.155 HD
ATOM     37  N   UNL     1      10.925  21.511  18.938  0.00  0.00    -0.214 NA
BRANCH   4   3
ATOM      1  C   UNL     1      13.915  25.415  18.778  0.00  0.00    +0.020 A 
ATOM      2  C   UNL     1      12.940  24.559  18.144  0.00  0.00    +0.013 A 
ATOM      3  C   UNL     1      12.128  23.642  18.934  0.00  0.00    +0.019 A 
ATOM     38  C   UNL     1      12.329  23.617  20.375  0.00  0.00    +0.120 A 
ATOM     39  N   UNL     1      13.277  24.452  20.958  0.00  0.00    -0.263 NA
ATOM     40  C   UNL     1      14.065  25.337  20.207  0.00  0.00    +0.111 A 
ENDBRANCH   4   3
ENDBRANCH  10   9
BRANCH  12  13
ATOM     13  N   UNL     1       5.494  17.186  19.757  0.00  0.00    -0.281 N 
ATOM     14  C   UNL     1       5.109  16.162  20.607  0.00  0.00    +0.248 C 
ATOM     30  O   UNL     1       5.720  15.112  20.744  0.00  0.00    -0.270 OA
ATOM     31  H   UNL     1       4.800  17.915  19.591  0.00  0.00    +0.155 HD
BRANCH  14  15
ATOM     15  C   UNL     1       3.858  16.321  21.409  0.00  0.00    +0.037 A 
ATOM     16  C   UNL     1       3.714  15.694  22.725  0.00  0.00    +0.013 A 
ATOM     17  C   UNL     1       2.490  15.849  23.470  0.00  0.00    +0.005 A 
ATOM     18  C   UNL     1       1.400  16.636  22.901  0.00  0.00    -0.033 A 
ATOM     28  C   UNL     1       1.571  17.252  21.595  0.00  0.00    +0.005 A 
ATOM     29  C   UNL     1       2.769  17.101  20.861  0.00  0.00    +0.013 A 
BRANCH  18  19
ATOM     19  C   UNL     1       0.051  16.837  23.616  0.00  0.00    +0.119 C 
BRANCH  19  20
ATOM     20  N   UNL     1      -0.011  17.887  24.677  0.00  0.00    -0.302 NA
ATOM     21  C   UNL     1      -1.175  17.657  25.645  0.00  0.00    +0.066 C 
ATOM     22  C   UNL     1      -1.211  18.751  26.761  0.00  0.00    -0.064 C 
ATOM     23  N   UNL     1      -1.311  20.133  26.113  0.00  0.00    +0.379 N 
ATOM     24  C   UNL     1      -1.404  21.160  27.161  0.00  0.00    -0.096 C 
ATOM     25  H   UNL     1      -2.257  20.163  25.525  0.00  0.00    -0.082 HD
ATOM     26  C   UNL     1      -0.159  20.369  25.147  0.00  0.00    -0.064 C 
ATOM     27  C   UNL     1      -0.114  19.260  24.059  0.00  0.00    +0.066 C 
ENDBRANCH  19  20
ENDBRANCH  18  19
ENDBRANCH  14  15
ENDBRANCH  12  13
TORSDOF 6
ENDMDL
MODEL 2
REMARK VINA RESULT:      -8.2      3.936     13.182
REMARK  Name = C:\Users\Docking\Desktop\test protocol\1iep_ligandH.pdb
REMARK  8 active torsions:
REMARK  status: ('A' for Active; 'I' for Inactive)
REMARK    1  A    between atoms: _5  and  _11
REMARK    2  A    between atoms: _19  and  _21
REMARK    3  A    between atoms: _22  and  _66
REMARK    4  A    between atoms: _27  and  _30
REMARK    5  A    between atoms: _32  and  _33
REMARK    6  A    between atoms: _38  and  _43
REMARK    7  A    between atoms: _43  and  _46
REMARK    8  A    between atoms: _53  and  _55
REMARK                            x       y       z     vdW  Elec       q    Type
REMARK                         _______ _______ _______ _____ _____    ______ ____
ROOT
ATOM     10  C   UNL     1       7.504  19.383  18.456  0.00  0.00    +0.038 A 
ATOM     11  C   UNL     1       8.658  20.073  18.906  0.00  0.00    +0.047 A 
ATOM     12  C   UNL     1       9.494  20.825  17.983  0.00  0.00    +0.035 A 
ATOM     32  C   UNL     1       9.122  20.855  16.607  0.00  0.00    +0.024 A 
ATOM     33  C   UNL     1       7.953  20.159  16.132  0.00  0.00    +0.007 A 
ATOM     34  C   UNL     1       7.126  19.413  17.038  0.00  0.00    -0.029 A 
ATOM     35  C   UNL     1       5.888  18.680  16.471  0.00  0.00    +0.045 C 
ENDROOT
BRANCH  10   9
ATOM      4  C   UNL     1       6.183  15.315  20.635  0.00  0.00    +0.077 A 
ATOM      5  C   UNL     1       7.076  14.527  19.835  0.00  0.00    +0.048 A 
ATOM      6  C   UNL     1       7.852  15.206  18.869  0.00  0.00    +0.116 A 
ATOM      7  N   UNL     1       7.736  16.571  18.723  0.00  0.00    -0.223 NA
ATOM      8  C   UNL     1       6.864  17.301  19.510  0.00  0.00    +0.220 A 
ATOM      9  N   UNL     1       6.738  18.676  19.386  0.00  0.00    -0.283 N 
ATOM     36  H   UNL     1       6.078  19.178  19.980  0.00  0.00    +0.155 HD
ATOM     37  N   UNL     1       6.111  16.676  20.439  0.00  0.00    -0.214 NA
BRANCH   4   3
ATOM      1  C   UNL     1       4.595  12.897  23.268  0.00  0.00    +0.020 A 
ATOM      2  C   UNL     1       5.476  13.401  22.240  0.00  0.00    +0.013 A 
ATOM      3  C   UNL     1       5.300  14.744  21.700  0.00  0.00    +0.019 A 
ATOM     38  C   UNL     1       4.214  15.557  22.228  0.00  0.00    +0.120 A 
ATOM     39  N   UNL     1       3.381  15.045  23.217  0.00  0.00    -0.263 NA
ATOM     40  C   UNL     1       3.540  13.754  23.742  0.00  0.00    +0.111 A 
ENDBRANCH   4   3
ENDBRANCH  10   9
BRANCH  12  13
ATOM     13  N   UNL     1      10.682  21.538  18.381  0.00  0.00    -0.281 N 
ATOM     14  C   UNL     1      11.016  22.855  18.109  0.00  0.00    +0.248 C 
ATOM     30  O   UNL     1      10.439  23.560  17.295  0.00  0.00    -0.270 OA
ATOM     31  H   UNL     1      11.358  21.008  18.931  0.00  0.00    +0.155 HD
BRANCH  14  15
ATOM     15  C   UNL     1      12.167  23.472  18.835  0.00  0.00    +0.037 A 
ATOM     16  C   UNL     1      12.898  22.734  19.868  0.00  0.00    +0.013 A 
ATOM     17  C   UNL     1      13.994  23.360  20.565  0.00  0.00    +0.005 A 
ATOM     18  C   UNL     1      14.367  24.732  20.229  0.00  0.00    -0.033 A 
ATOM     28  C   UNL     1      13.628  25.439  19.196  0.00  0.00    +0.005 A 
ATOM     29  C   UNL     1      12.553  24.829  18.512  0.00  0.00    +0.013 A 
BRANCH  18  19
ATOM     19  C   UNL     1      15.509  25.485  20.936  0.00  0.00    +0.119 C 
BRANCH  19  20
ATOM     20  N   UNL     1      16.240  26.518  20.143  0.00  0.00    -0.302 NA
ATOM     21  C   UNL     1      17.009  25.904  18.970  0.00  0.00    +0.066 C 
ATOM     22  C   UNL     1      17.750  27.001  18.139  0.00  0.00    -0.064 C 
ATOM     23  N   UNL     1      18.694  27.782  19.055  0.00  0.00    +0.379 N 
ATOM     24  C   UNL     1      19.434  28.776  18.265  0.00  0.00    -0.096 C 
ATOM     25  H   UNL     1      19.434  27.060  19.472  0.00  0.00    -0.082 HD
ATOM     26  C   UNL     1      17.937  28.394  20.226  0.00  0.00    -0.064 C 
ATOM     27  C   UNL     1      17.181  27.299  21.028  0.00  0.00    +0.066 C 
ENDBRANCH  19  20
ENDBRANCH  18  19
ENDBRANCH  14  15
ENDBRANCH  12  13
TORSDOF 6
ENDMDL
MODEL 3
REMARK VINA RESULT:      -8.2      1.615      2.653
REMARK  Name = C:\Users\Docking\Desktop\test protocol\1iep_ligandH.pdb
REMARK  8 active torsions:
REMARK  status: ('A' for Active; 'I' for Inactive)
REMARK    1  A    between atoms: _5  and  _11
REMARK    2  A    between atoms: _19  and  _21
REMARK    3  A    between atoms: _22  and  _66
REMARK    4  A    between atoms: _27  and  _30
REMARK    5  A    between atoms: _32  and  _33
REMARK    6  A    between atoms: _38  and  _43
REMARK    7  A    between atoms: _43  and  _46
REMARK    8  A    between atoms: _53  and  _55
REMARK                            x       y       z     vdW  Elec       q    Type
REMARK                         _______ _______ _______ _____ _____    ______ ____
ROOT
ATOM     10  C   UNL     1       8.939  18.403  18.906  0.00  0.00    +0.038 A 
ATOM     11  C   UNL     1       7.704  18.329  19.599  0.00  0.00    +0.047 A 
ATOM     12  C   UNL     1       6.700  17.338  19.246  0.00  0.00    +0.035 A 
ATOM     32  C   UNL     1       6.989  16.434  18.181  0.00  0.00    +0.024 A 
ATOM     33  C   UNL     1       8.238  16.496  17.465  0.00  0.00    +0.007 A 
ATOM     34  C   UNL     1       9.231  17.474  17.807  0.00  0.00    -0.029 A 
ATOM     35  C   UNL     1      10.550  17.498  17.001  0.00  0.00    +0.045 C 
ENDROOT
BRANCH  10   9
ATOM      4  C   UNL     1      11.070  22.668  18.354  0.00  0.00    +0.077 A 
ATOM      5  C   UNL     1      10.288  22.975  17.191  0.00  0.00    +0.048 A 
ATOM      6  C   UNL     1       9.353  22.005  16.763  0.00  0.00    +0.116 A 
ATOM      7  N   UNL     1       9.219  20.821  17.455  0.00  0.00    -0.223 NA
ATOM      8  C   UNL     1       9.991  20.556  18.572  0.00  0.00    +0.220 A 
ATOM      9  N   UNL     1       9.867  19.375  19.287  0.00  0.00    -0.283 N 
ATOM     36  H   UNL     1      10.460  19.214  20.101  0.00  0.00    +0.155 HD
ATOM     37  N   UNL     1      10.891  21.465  18.999  0.00  0.00    -0.214 NA
BRANCH   4   3
ATOM      1  C   UNL     1      13.845  25.400  18.725  0.00  0.00    +0.020 A 
ATOM      2  C   UNL     1      12.865  24.529  18.119  0.00  0.00    +0.013 A 
ATOM      3  C   UNL     1      12.097  23.592  18.930  0.00  0.00    +0.019 A 
ATOM     38  C   UNL     1      12.346  23.564  20.364  0.00  0.00    +0.120 A 
ATOM     39  N   UNL     1      13.297  24.414  20.919  0.00  0.00    -0.263 NA
ATOM     40  C   UNL     1      14.043  25.317  20.148  0.00  0.00    +0.111 A 
ENDBRANCH   4   3
ENDBRANCH  10   9
BRANCH  12  13
ATOM     13  N   UNL     1       5.426  17.220  19.909  0.00  0.00    -0.281 N 
ATOM     14  C   UNL     1       4.988  16.201  20.739  0.00  0.00    +0.248 C 
ATOM     30  O   UNL     1       5.551  15.124  20.867  0.00  0.00    -0.270 OA
ATOM     31  H   UNL     1       4.766  17.981  19.747  0.00  0.00    +0.155 HD
BRANCH  14  15
ATOM     15  C   UNL     1       3.736  16.401  21.530  0.00  0.00    +0.037 A 
ATOM     16  C   UNL     1       2.709  17.353  21.099  0.00  0.00    +0.013 A 
ATOM     17  C   UNL     1       1.518  17.540  21.890  0.00  0.00    +0.005 A 
ATOM     18  C   UNL     1       1.348  16.771  23.121  0.00  0.00    -0.033 A 
ATOM     28  C   UNL     1       2.380  15.829  23.522  0.00  0.00    +0.005 A 
ATOM     29  C   UNL     1       3.549  15.645  22.750  0.00  0.00    +0.013 A 
BRANCH  18  19
ATOM     19  C   UNL     1       0.120  16.921  24.037  0.00  0.00    +0.119 C 
BRANCH  19  20
ATOM     20  N   UNL     1      -0.798  15.748  24.148  0.00  0.00    -0.302 NA
ATOM     21  C   UNL     1      -1.316  15.293  22.780  0.00  0.00    +0.066 C 
ATOM     22  C   UNL     1      -2.257  14.051  22.912  0.00  0.00    -0.064 C 
ATOM     23  N   UNL     1      -3.420  14.393  23.845  0.00  0.00    +0.379 N 
ATOM     24  C   UNL     1      -4.338  13.248  23.925  0.00  0.00    -0.096 C 
ATOM     25  H   UNL     1      -3.979  15.244  23.390  0.00  0.00    -0.082 HD
ATOM     26  C   UNL     1      -2.914  14.850  25.206  0.00  0.00    -0.064 C 
ATOM     27  C   UNL     1      -1.957  16.065  25.061  0.00  0.00    +0.066 C 
ENDBRANCH  19  20
ENDBRANCH  18  19
ENDBRANCH  14  15
ENDBRANCH  12  13
TORSDOF 6
ENDMDL
MODEL 4
REMARK VINA RESULT:      -8.1      7.813     13.905
REMARK  Name = C:\Users\Docking\Desktop\test protocol\1iep_ligandH.pdb
REMARK  8 active torsions:
REMARK  status: ('A' for Active; 'I' for Inactive)
REMARK    1  A    between atoms: _5  and  _11
REMARK    2  A    between atoms: _19  and  _21
REMARK    3  A    between atoms: _22  and  _66
REMARK    4  A    between atoms: _27  and  _30
REMARK    5  A    between atoms: _32  and  _33
REMARK    6  A    between atoms: _38  and  _43
REMARK    7  A    between atoms: _43  and  _46
REMARK    8  A    between atoms: _53  and  _55
REMARK                            x       y       z     vdW  Elec       q    Type
REMARK                         _______ _______ _______ _____ _____    ______ ____
ROOT
ATOM     10  C   UNL     1      19.139  28.607  18.747  0.00  0.00    +0.038 A 
ATOM     11  C   UNL     1      18.156  27.611  18.975  0.00  0.00    +0.047 A 
ATOM     12  C   UNL     1      17.225  27.219  17.928  0.00  0.00    +0.035 A 
ATOM     32  C   UNL     1      17.325  27.862  16.660  0.00  0.00    +0.024 A 
ATOM     33  C   UNL     1      18.318  28.878  16.411  0.00  0.00    +0.007 A 
ATOM     34  C   UNL     1      19.238  29.270  17.441  0.00  0.00    -0.029 A 
ATOM     35  C   UNL     1      20.277  30.369  17.121  0.00  0.00    +0.045 C 
ENDROOT
BRANCH  10   9
ATOM      4  C   UNL     1      20.147  30.887  22.849  0.00  0.00    +0.077 A 
ATOM      5  C   UNL     1      18.842  31.479  22.909  0.00  0.00    +0.048 A 
ATOM      6  C   UNL     1      17.943  31.177  21.862  0.00  0.00    +0.116 A 
ATOM      7  N   UNL     1      18.331  30.344  20.835  0.00  0.00    -0.223 NA
ATOM      8  C   UNL     1      19.598  29.791  20.806  0.00  0.00    +0.220 A 
ATOM      9  N   UNL     1      20.008  28.944  19.788  0.00  0.00    -0.283 N 
ATOM     36  H   UNL     1      20.953  28.562  19.799  0.00  0.00    +0.155 HD
ATOM     37  N   UNL     1      20.476  30.065  21.794  0.00  0.00    -0.214 NA
BRANCH   4   3
ATOM      1  C   UNL     1      22.115  30.921  26.229  0.00  0.00    +0.020 A 
ATOM      2  C   UNL     1      21.061  30.684  25.270  0.00  0.00    +0.013 A 
ATOM      3  C   UNL     1      21.207  31.108  23.883  0.00  0.00    +0.019 A 
ATOM     38  C   UNL     1      22.442  31.774  23.496  0.00  0.00    +0.120 A 
ATOM     39  N   UNL     1      23.439  31.990  24.442  0.00  0.00    -0.263 NA
ATOM     40  C   UNL     1      23.309  31.588  25.780  0.00  0.00    +0.111 A 
ENDBRANCH   4   3
ENDBRANCH  10   9
BRANCH  12  13
ATOM     13  N   UNL     1      16.200  26.220  18.103  0.00  0.00    -0.281 N 
ATOM     14  C   UNL     1      15.718  25.694  19.291  0.00  0.00    +0.248 C 
ATOM     30  O   UNL     1      16.247  25.850  20.381  0.00  0.00    -0.270 OA
ATOM     31  H   UNL     1      15.780  25.856  17.248  0.00  0.00    +0.155 HD
BRANCH  14  15
ATOM     15  C   UNL     1      14.476  24.863  19.260  0.00  0.00    +0.037 A 
ATOM     16  C   UNL     1      14.251  23.797  20.239  0.00  0.00    +0.013 A 
ATOM     17  C   UNL     1      13.052  22.999  20.177  0.00  0.00    +0.005 A 
ATOM     18  C   UNL     1      12.068  23.266  19.131  0.00  0.00    -0.033 A 
ATOM     28  C   UNL     1      12.314  24.333  18.176  0.00  0.00    +0.005 A 
ATOM     29  C   UNL     1      13.488  25.117  18.233  0.00  0.00    +0.013 A 
BRANCH  18  19
ATOM     19  C   UNL     1      10.770  22.451  18.976  0.00  0.00    +0.119 C 
BRANCH  19  20
ATOM     20  N   UNL     1      10.788  21.315  18.006  0.00  0.00    -0.302 NA
ATOM     21  C   UNL     1      10.338  21.748  16.608  0.00  0.00    +0.066 C 
ATOM     22  C   UNL     1      10.384  20.553  15.600  0.00  0.00    -0.064 C 
ATOM     23  N   UNL     1       9.506  19.415  16.123  0.00  0.00    +0.379 N 
ATOM     24  C   UNL     1       9.501  18.313  15.150  0.00  0.00    -0.096 C 
ATOM     25  H   UNL     1       8.464  19.801  16.202  0.00  0.00    -0.082 HD
ATOM     26  C   UNL     1       9.945  18.980  17.514  0.00  0.00    -0.064 C 
ATOM     27  C   UNL     1       9.924  20.181  18.501  0.00  0.00    +0.066 C 
ENDBRANCH  19  20
ENDBRANCH  18  19
ENDBRANCH  14  15
ENDBRANCH  12  13
TORSDOF 6
ENDMDL
MODEL 5
REMARK VINA RESULT:      -7.9      1.853      2.432
REMARK  Name = C:\Users\Docking\Desktop\test protocol\1iep_ligandH.pdb
REMARK  8 active torsions:
REMARK  status: ('A' for Active; 'I' for Inactive)
REMARK    1  A    between atoms: _5  and  _11
REMARK    2  A    between atoms: _19  and  _21
REMARK    3  A    between atoms: _22  and  _66
REMARK    4  A    between atoms: _27  and  _30
REMARK    5  A    between atoms: _32  and  _33
REMARK    6  A    between atoms: _38  and  _43
REMARK    7  A    between atoms: _43  and  _46
REMARK    8  A    between atoms: _53  and  _55
REMARK                            x       y       z     vdW  Elec       q    Type
REMARK                         _______ _______ _______ _____ _____    ______ ____
ROOT
ATOM     10  C   UNL     1       8.827  18.618  18.688  0.00  0.00    +0.038 A 
ATOM     11  C   UNL     1       7.631  18.600  19.450  0.00  0.00    +0.047 A 
ATOM     12  C   UNL     1       6.517  17.740  19.081  0.00  0.00    +0.035 A 
ATOM     32  C   UNL     1       6.656  16.909  17.931  0.00  0.00    +0.024 A 
ATOM     33  C   UNL     1       7.865  16.916  17.145  0.00  0.00    +0.007 A 
ATOM     34  C   UNL     1       8.966  17.764  17.503  0.00  0.00    -0.029 A 
ATOM     35  C   UNL     1      10.235  17.735  16.619  0.00  0.00    +0.045 C 
ENDROOT
BRANCH  10   9
ATOM      4  C   UNL     1      11.296  22.723  18.391  0.00  0.00    +0.077 A 
ATOM      5  C   UNL     1      10.464  23.216  17.331  0.00  0.00    +0.048 A 
ATOM      6  C   UNL     1       9.416  22.379  16.886  0.00  0.00    +0.116 A 
ATOM      7  N   UNL     1       9.223  21.143  17.466  0.00  0.00    -0.223 NA
ATOM      8  C   UNL     1      10.045  20.698  18.485  0.00  0.00    +0.220 A 
ATOM      9  N   UNL     1       9.865  19.463  19.088  0.00  0.00    -0.283 N 
ATOM     36  H   UNL     1      10.497  19.167  19.832  0.00  0.00    +0.155 HD
ATOM     37  N   UNL     1      11.054  21.478  18.927  0.00  0.00    -0.214 NA
BRANCH   4   3
ATOM      1  C   UNL     1      14.243  23.856  20.700  0.00  0.00    +0.020 A 
ATOM      2  C   UNL     1      13.142  23.078  20.181  0.00  0.00    +0.013 A 
ATOM      3  C   UNL     1      12.442  23.492  18.972  0.00  0.00    +0.019 A 
ATOM     38  C   UNL     1      12.885  24.707  18.305  0.00  0.00    +0.120 A 
ATOM     39  N   UNL     1      13.948  25.437  18.829  0.00  0.00    -0.263 NA
ATOM     40  C   UNL     1      14.628  25.049  19.993  0.00  0.00    +0.111 A 
ENDBRANCH   4   3
ENDBRANCH  10   9
BRANCH  12  13
ATOM     13  N   UNL     1       5.275  17.685  19.812  0.00  0.00    -0.281 N 
ATOM     14  C   UNL     1       4.012  18.047  19.373  0.00  0.00    +0.248 C 
ATOM     30  O   UNL     1       3.790  18.678  18.350  0.00  0.00    -0.270 OA
ATOM     31  H   UNL     1       5.334  17.336  20.769  0.00  0.00    +0.155 HD
BRANCH  14  15
ATOM     15  C   UNL     1       2.824  17.666  20.197  0.00  0.00    +0.037 A 
ATOM     16  C   UNL     1       1.724  18.606  20.424  0.00  0.00    +0.013 A 
ATOM     17  C   UNL     1       0.598  18.218  21.237  0.00  0.00    +0.005 A 
ATOM     18  C   UNL     1       0.567  16.882  21.827  0.00  0.00    -0.033 A 
ATOM     28  C   UNL     1       1.669  15.968  21.580  0.00  0.00    +0.005 A 
ATOM     29  C   UNL     1       2.775  16.344  20.785  0.00  0.00    +0.013 A 
BRANCH  18  19
ATOM     19  C   UNL     1      -0.585  16.391  22.724  0.00  0.00    +0.119 C 
BRANCH  19  20
ATOM     20  N   UNL     1      -0.304  16.260  24.185  0.00  0.00    -0.302 NA
ATOM     21  C   UNL     1       0.004  14.814  24.584  0.00  0.00    +0.066 C 
ATOM     22  C   UNL     1       0.317  14.699  26.111  0.00  0.00    -0.064 C 
ATOM     23  N   UNL     1      -0.867  15.241  26.914  0.00  0.00    +0.379 N 
ATOM     24  C   UNL     1      -0.600  15.081  28.351  0.00  0.00    -0.096 C 
ATOM     25  H   UNL     1      -1.758  14.620  26.664  0.00  0.00    -0.082 HD
ATOM     26  C   UNL     1      -1.182  16.678  26.522  0.00  0.00    -0.064 C 
ATOM     27  C   UNL     1      -1.462  16.786  24.997  0.00  0.00    +0.066 C 
ENDBRANCH  19  20
ENDBRANCH  18  19
ENDBRANCH  14  15
ENDBRANCH  12  13
TORSDOF 6
ENDMDL
