MODEL 1
REMARK VINA RESULT:      -8.2      0.000      0.000
REMARK  Name = C:\Users\Docking\Desktop\test protocol\1iep_ligandH.pdb
REMARK  8 active torsions:
REMARK  status: ('A' for Active; 'I' for Inactive)
REMARK    1  A    between atoms: _5  and  _11
REMARK    2  A    between atoms: _19  and  _21
REMARK    3  A    between atoms: _22  and  _66
REMARK    4  A    between atoms: _27  and  _30
REMARK    5  A    between atoms: _32  and  _33
REMARK    6  A    between atoms: _38  and  _43
REMARK    7  A    between atoms: _43  and  _46
REMARK    8  A    between atoms: _53  and  _55
REMARK                            x       y       z     vdW  Elec       q    Type
REMARK                         _______ _______ _______ _____ _____    ______ ____
ROOT
ATOM     10  C   UNL     1      -9.814  22.737  -2.552  0.00  0.00    +0.038 A 
ATOM     11  C   UNL     1      -9.356  21.707  -1.692  0.00  0.00    +0.047 A 
ATOM     12  C   UNL     1      -8.911  20.427  -2.221  0.00  0.00    +0.035 A 
ATOM     32  C   UNL     1      -8.945  20.232  -3.632  0.00  0.00    +0.024 A 
ATOM     33  C   UNL     1      -9.409  21.267  -4.521  0.00  0.00    +0.007 A 
ATOM     34  C   UNL     1      -9.851  22.531  -4.005  0.00  0.00    -0.029 A 
ATOM     35  C   UNL     1     -10.345  23.603  -5.004  0.00  0.00    +0.045 C 
ENDROOT
BRANCH  10   9
ATOM      4  C   UNL     1     -13.219  25.903  -1.359  0.00  0.00    +0.077 A 
ATOM      5  C   UNL     1     -14.256  25.092  -1.929  0.00  0.00    +0.048 A 
ATOM      6  C   UNL     1     -13.871  23.870  -2.525  0.00  0.00    +0.116 A 
ATOM      7  N   UNL     1     -12.544  23.498  -2.545  0.00  0.00    -0.223 NA
ATOM      8  C   UNL     1     -11.569  24.305  -1.988  0.00  0.00    +0.220 A 
ATOM      9  N   UNL     1     -10.229  23.947  -1.989  0.00  0.00    -0.283 N 
ATOM     36  H   UNL     1      -9.539  24.573  -1.575  0.00  0.00    +0.155 HD
ATOM     37  N   UNL     1     -11.911  25.477  -1.414  0.00  0.00    -0.214 NA
BRANCH   4   3
ATOM      1  C   UNL     1     -14.490  29.525  -0.602  0.00  0.00    +0.020 A 
ATOM      2  C   UNL     1     -14.280  28.272  -1.290  0.00  0.00    +0.013 A 
ATOM      3  C   UNL     1     -13.469  27.219  -0.691  0.00  0.00    +0.019 A 
ATOM     38  C   UNL     1     -12.880  27.469   0.617  0.00  0.00    +0.120 A 
ATOM     39  N   UNL     1     -13.099  28.685   1.255  0.00  0.00    -0.263 NA
ATOM     40  C   UNL     1     -13.876  29.706   0.687  0.00  0.00    +0.111 A 
ENDBRANCH   4   3
ENDBRANCH  10   9
BRANCH  12  13
ATOM     13  N   UNL     1      -8.443  19.341  -1.396  0.00  0.00    -0.281 N 
ATOM     14  C   UNL     1      -7.156  18.838  -1.302  0.00  0.00    +0.248 C 
ATOM     30  O   UNL     1      -6.249  19.107  -2.076  0.00  0.00    -0.270 OA
ATOM     31  H   UNL     1      -9.145  18.889  -0.811  0.00  0.00    +0.155 HD
BRANCH  14  15
ATOM     15  C   UNL     1      -6.832  17.886  -0.196  0.00  0.00    +0.037 A 
ATOM     16  C   UNL     1      -7.872  17.062   0.426  0.00  0.00    +0.013 A 
ATOM     17  C   UNL     1      -7.536  16.164   1.503  0.00  0.00    +0.005 A 
ATOM     18  C   UNL     1      -6.152  16.084   1.963  0.00  0.00    -0.033 A 
ATOM     28  C   UNL     1      -5.139  16.909   1.325  0.00  0.00    +0.005 A 
ATOM     29  C   UNL     1      -5.465  17.791   0.270  0.00  0.00    +0.013 A 
BRANCH  18  19
ATOM     19  C   UNL     1      -5.707  15.170   3.119  0.00  0.00    +0.119 C 
BRANCH  19  20
ATOM     20  N   UNL     1      -5.029  13.889   2.756  0.00  0.00    -0.302 NA
ATOM     21  C   UNL     1      -6.032  12.759   2.508  0.00  0.00    +0.066 C 
ATOM     22  C   UNL     1      -5.307  11.433   2.108  0.00  0.00    -0.064 C 
ATOM     23  N   UNL     1      -4.315  11.045   3.206  0.00  0.00    +0.379 N 
ATOM     24  C   UNL     1      -3.674   9.768   2.859  0.00  0.00    -0.096 C 
ATOM     25  H   UNL     1      -4.895  10.889   4.145  0.00  0.00    -0.082 HD
ATOM     26  C   UNL     1      -3.316  12.165   3.461  0.00  0.00    -0.064 C 
ATOM     27  C   UNL     1      -4.048  13.486   3.829  0.00  0.00    +0.066 C 
ENDBRANCH  19  20
ENDBRANCH  18  19
ENDBRANCH  14  15
ENDBRANCH  12  13
TORSDOF 6
ENDMDL
MODEL 2
REMARK VINA RESULT:      -8.1      5.385      8.393
REMARK  Name = C:\Users\Docking\Desktop\test protocol\1iep_ligandH.pdb
REMARK  8 active torsions:
REMARK  status: ('A' for Active; 'I' for Inactive)
REMARK    1  A    between atoms: _5  and  _11
REMARK    2  A    between atoms: _19  and  _21
REMARK    3  A    between atoms: _22  and  _66
REMARK    4  A    between atoms: _27  and  _30
REMARK    5  A    between atoms: _32  and  _33
REMARK    6  A    between atoms: _38  and  _43
REMARK    7  A    between atoms: _43  and  _46
REMARK    8  A    between atoms: _53  and  _55
REMARK                            x       y       z     vdW  Elec       q    Type
REMARK                         _______ _______ _______ _____ _____    ______ ____
ROOT
ATOM     10  C   UNL     1      -6.379  17.255   0.897  0.00  0.00    +0.038 A 
ATOM     11  C   UNL     1      -7.195  16.723   1.928  0.00  0.00    +0.047 A 
ATOM     12  C   UNL     1      -6.819  15.507   2.632  0.00  0.00    +0.035 A 
ATOM     32  C   UNL     1      -5.604  14.859   2.262  0.00  0.00    +0.024 A 
ATOM     33  C   UNL     1      -4.764  15.386   1.215  0.00  0.00    +0.007 A 
ATOM     34  C   UNL     1      -5.130  16.584   0.516  0.00  0.00    -0.029 A 
ATOM     35  C   UNL     1      -4.194  17.100  -0.602  0.00  0.00    +0.045 C 
ENDROOT
BRANCH  10   9
ATOM      4  C   UNL     1      -8.906  19.582  -2.456  0.00  0.00    +0.077 A 
ATOM      5  C   UNL     1      -9.436  18.360  -2.988  0.00  0.00    +0.048 A 
ATOM      6  C   UNL     1      -9.028  17.154  -2.376  0.00  0.00    +0.116 A 
ATOM      7  N   UNL     1      -8.155  17.180  -1.310  0.00  0.00    -0.223 NA
ATOM      8  C   UNL     1      -7.661  18.376  -0.822  0.00  0.00    +0.220 A 
ATOM      9  N   UNL     1      -6.788  18.426   0.254  0.00  0.00    -0.283 N 
ATOM     36  H   UNL     1      -6.440  19.327   0.579  0.00  0.00    +0.155 HD
ATOM     37  N   UNL     1      -8.034  19.541  -1.390  0.00  0.00    -0.214 NA
BRANCH   4   3
ATOM      1  C   UNL     1      -9.533  23.432  -2.748  0.00  0.00    +0.020 A 
ATOM      2  C   UNL     1      -9.196  22.147  -2.181  0.00  0.00    +0.013 A 
ATOM      3  C   UNL     1      -9.246  20.938  -2.993  0.00  0.00    +0.019 A 
ATOM     38  C   UNL     1      -9.643  21.064  -4.387  0.00  0.00    +0.120 A 
ATOM     39  N   UNL     1      -9.963  22.315  -4.906  0.00  0.00    -0.263 NA
ATOM     40  C   UNL     1      -9.920  23.485  -4.133  0.00  0.00    +0.111 A 
ENDBRANCH   4   3
ENDBRANCH  10   9
BRANCH  12  13
ATOM     13  N   UNL     1      -7.611  14.915   3.681  0.00  0.00    -0.281 N 
ATOM     14  C   UNL     1      -8.133  15.533   4.806  0.00  0.00    +0.248 C 
ATOM     30  O   UNL     1      -7.816  16.649   5.191  0.00  0.00    -0.270 OA
ATOM     31  H   UNL     1      -7.811  13.919   3.583  0.00  0.00    +0.155 HD
BRANCH  14  15
ATOM     15  C   UNL     1      -9.142  14.800   5.630  0.00  0.00    +0.037 A 
ATOM     16  C   UNL     1     -10.558  14.777   5.254  0.00  0.00    +0.013 A 
ATOM     17  C   UNL     1     -11.513  14.076   6.075  0.00  0.00    +0.005 A 
ATOM     18  C   UNL     1     -11.054  13.392   7.282  0.00  0.00    -0.033 A 
ATOM     28  C   UNL     1      -9.643  13.427   7.629  0.00  0.00    +0.005 A 
ATOM     29  C   UNL     1      -8.704  14.113   6.826  0.00  0.00    +0.013 A 
BRANCH  18  19
ATOM     19  C   UNL     1     -12.007  12.638   8.229  0.00  0.00    +0.119 C 
BRANCH  19  20
ATOM     20  N   UNL     1     -11.481  11.405   8.887  0.00  0.00    -0.302 NA
ATOM     21  C   UNL     1     -11.863  10.137   8.120  0.00  0.00    +0.066 C 
ATOM     22  C   UNL     1     -11.286   8.858   8.810  0.00  0.00    -0.064 C 
ATOM     23  N   UNL     1     -11.790   8.790  10.253  0.00  0.00    +0.379 N 
ATOM     24  C   UNL     1     -11.296   7.559  10.887  0.00  0.00    -0.096 C 
ATOM     25  H   UNL     1     -12.902   8.731  10.220  0.00  0.00    -0.082 HD
ATOM     26  C   UNL     1     -11.417  10.048  11.023  0.00  0.00    -0.064 C 
ATOM     27  C   UNL     1     -11.970  11.315  10.312  0.00  0.00    +0.066 C 
ENDBRANCH  19  20
ENDBRANCH  18  19
ENDBRANCH  14  15
ENDBRANCH  12  13
TORSDOF 6
ENDMDL
MODEL 3
REMARK VINA RESULT:      -8.1      2.233     14.438
REMARK  Name = C:\Users\Docking\Desktop\test protocol\1iep_ligandH.pdb
REMARK  8 active torsions:
REMARK  status: ('A' for Active; 'I' for Inactive)
REMARK    1  A    between atoms: _5  and  _11
REMARK    2  A    between atoms: _19  and  _21
REMARK    3  A    between atoms: _22  and  _66
REMARK    4  A    between atoms: _27  and  _30
REMARK    5  A    between atoms: _32  and  _33
REMARK    6  A    between atoms: _38  and  _43
REMARK    7  A    between atoms: _43  and  _46
REMARK    8  A    between atoms: _53  and  _55
REMARK                            x       y       z     vdW  Elec       q    Type
REMARK                         _______ _______ _______ _____ _____    ______ ____
ROOT
ATOM     10  C   UNL     1      -5.027  15.231   2.808  0.00  0.00    +0.038 A 
ATOM     11  C   UNL     1      -5.479  15.960   1.679  0.00  0.00    +0.047 A 
ATOM     12  C   UNL     1      -6.653  16.816   1.755  0.00  0.00    +0.035 A 
ATOM     32  C   UNL     1      -7.342  16.907   3.000  0.00  0.00    +0.024 A 
ATOM     33  C   UNL     1      -6.897  16.172   4.158  0.00  0.00    +0.007 A 
ATOM     34  C   UNL     1      -5.741  15.325   4.087  0.00  0.00    -0.029 A 
ATOM     35  C   UNL     1      -5.313  14.555   5.358  0.00  0.00    +0.045 C 
ENDROOT
BRANCH  10   9
ATOM      4  C   UNL     1      -2.917  10.972   2.141  0.00  0.00    +0.077 A 
ATOM      5  C   UNL     1      -4.178  10.291   2.074  0.00  0.00    +0.048 A 
ATOM      6  C   UNL     1      -5.346  11.073   2.222  0.00  0.00    +0.116 A 
ATOM      7  N   UNL     1      -5.248  12.433   2.423  0.00  0.00    -0.223 NA
ATOM      8  C   UNL     1      -4.016  13.057   2.485  0.00  0.00    +0.220 A 
ATOM      9  N   UNL     1      -3.894  14.425   2.678  0.00  0.00    -0.283 N 
ATOM     36  H   UNL     1      -2.967  14.847   2.725  0.00  0.00    +0.155 HD
ATOM     37  N   UNL     1      -2.886  12.333   2.347  0.00  0.00    -0.214 NA
BRANCH   4   3
ATOM      1  C   UNL     1       0.925  10.238   2.117  0.00  0.00    +0.020 A 
ATOM      2  C   UNL     1      -0.324  10.947   2.269  0.00  0.00    +0.013 A 
ATOM      3  C   UNL     1      -1.594  10.285   1.999  0.00  0.00    +0.019 A 
ATOM     38  C   UNL     1      -1.565   8.893   1.575  0.00  0.00    +0.120 A 
ATOM     39  N   UNL     1      -0.347   8.236   1.435  0.00  0.00    -0.263 NA
ATOM     40  C   UNL     1       0.882   8.864   1.690  0.00  0.00    +0.111 A 
ENDBRANCH   4   3
ENDBRANCH  10   9
BRANCH  12  13
ATOM     13  N   UNL     1      -7.163  17.574   0.640  0.00  0.00    -0.281 N 
ATOM     14  C   UNL     1      -8.164  17.214  -0.247  0.00  0.00    +0.248 C 
ATOM     30  O   UNL     1      -8.629  16.088  -0.345  0.00  0.00    -0.270 OA
ATOM     31  H   UNL     1      -6.734  18.486   0.486  0.00  0.00    +0.155 HD
BRANCH  14  15
ATOM     15  C   UNL     1      -8.720  18.252  -1.168  0.00  0.00    +0.037 A 
ATOM     16  C   UNL     1      -7.924  19.414  -1.573  0.00  0.00    +0.013 A 
ATOM     17  C   UNL     1      -8.489  20.409  -2.449  0.00  0.00    +0.005 A 
ATOM     18  C   UNL     1      -9.859  20.245  -2.928  0.00  0.00    -0.033 A 
ATOM     28  C   UNL     1     -10.625  19.080  -2.516  0.00  0.00    +0.005 A 
ATOM     29  C   UNL     1     -10.074  18.103  -1.656  0.00  0.00    +0.013 A 
BRANCH  18  19
ATOM     19  C   UNL     1     -10.551  21.268  -3.849  0.00  0.00    +0.119 C 
BRANCH  19  20
ATOM     20  N   UNL     1     -11.605  22.132  -3.240  0.00  0.00    -0.302 NA
ATOM     21  C   UNL     1     -12.030  23.267  -4.177  0.00  0.00    +0.066 C 
ATOM     22  C   UNL     1     -13.149  24.148  -3.533  0.00  0.00    -0.064 C 
ATOM     23  N   UNL     1     -12.651  24.706  -2.199  0.00  0.00    +0.379 N 
ATOM     24  C   UNL     1     -13.679  25.582  -1.619  0.00  0.00    -0.096 C 
ATOM     25  H   UNL     1     -11.752  25.331  -2.408  0.00  0.00    -0.082 HD
ATOM     26  C   UNL     1     -12.224  23.585  -1.262  0.00  0.00    -0.064 C 
ATOM     27  C   UNL     1     -11.133  22.697  -1.923  0.00  0.00    +0.066 C 
ENDBRANCH  19  20
ENDBRANCH  18  19
ENDBRANCH  14  15
ENDBRANCH  12  13
TORSDOF 6
ENDMDL
MODEL 4
REMARK VINA RESULT:      -8.0     14.002     16.531
REMARK  Name = C:\Users\Docking\Desktop\test protocol\1iep_ligandH.pdb
REMARK  8 active torsions:
REMARK  status: ('A' for Active; 'I' for Inactive)
REMARK    1  A    between atoms: _5  and  _11
REMARK    2  A    between atoms: _19  and  _21
REMARK    3  A    between atoms: _22  and  _66
REMARK    4  A    between atoms: _27  and  _30
REMARK    5  A    between atoms: _32  and  _33
REMARK    6  A    between atoms: _38  and  _43
REMARK    7  A    between atoms: _43  and  _46
REMARK    8  A    between atoms: _53  and  _55
REMARK                            x       y       z     vdW  Elec       q    Type
REMARK                         _______ _______ _______ _____ _____    ______ ____
ROOT
ATOM     10  C   UNL     1     -16.660  32.390  -6.223  0.00  0.00    +0.038 A 
ATOM     11  C   UNL     1     -16.098  32.392  -4.920  0.00  0.00    +0.047 A 
ATOM     12  C   UNL     1     -16.762  33.067  -3.815  0.00  0.00    +0.035 A 
ATOM     32  C   UNL     1     -17.998  33.727  -4.072  0.00  0.00    +0.024 A 
ATOM     33  C   UNL     1     -18.583  33.737  -5.390  0.00  0.00    +0.007 A 
ATOM     34  C   UNL     1     -17.932  33.075  -6.484  0.00  0.00    -0.029 A 
ATOM     35  C   UNL     1     -18.601  33.123  -7.877  0.00  0.00    +0.045 C 
ENDROOT
BRANCH  10   9
ATOM      4  C   UNL     1     -15.718  28.475  -8.834  0.00  0.00    +0.077 A 
ATOM      5  C   UNL     1     -16.639  27.676  -8.076  0.00  0.00    +0.048 A 
ATOM      6  C   UNL     1     -17.329  28.309  -7.019  0.00  0.00    +0.116 A 
ATOM      7  N   UNL     1     -17.108  29.642  -6.748  0.00  0.00    -0.223 NA
ATOM      8  C   UNL     1     -16.212  30.383  -7.496  0.00  0.00    +0.220 A 
ATOM      9  N   UNL     1     -15.980  31.727  -7.246  0.00  0.00    -0.283 N 
ATOM     36  H   UNL     1     -15.306  32.237  -7.817  0.00  0.00    +0.155 HD
ATOM     37  N   UNL     1     -15.539  29.801  -8.511  0.00  0.00    -0.214 NA
BRANCH   4   3
ATOM      1  C   UNL     1     -12.757  27.658 -11.255  0.00  0.00    +0.020 A 
ATOM      2  C   UNL     1     -13.485  28.187 -10.125  0.00  0.00    +0.013 A 
ATOM      3  C   UNL     1     -14.916  27.950  -9.984  0.00  0.00    +0.019 A 
ATOM     38  C   UNL     1     -15.585  27.166 -11.010  0.00  0.00    +0.120 A 
ATOM     39  N   UNL     1     -14.858  26.670 -12.088  0.00  0.00    -0.263 NA
ATOM     40  C   UNL     1     -13.481  26.893 -12.236  0.00  0.00    +0.111 A 
ENDBRANCH   4   3
ENDBRANCH  10   9
BRANCH  12  13
ATOM     13  N   UNL     1     -16.235  33.109  -2.474  0.00  0.00    -0.281 N 
ATOM     14  C   UNL     1     -16.095  32.060  -1.580  0.00  0.00    +0.248 C 
ATOM     30  O   UNL     1     -16.603  30.957  -1.724  0.00  0.00    -0.270 OA
ATOM     31  H   UNL     1     -15.928  34.024  -2.143  0.00  0.00    +0.155 HD
BRANCH  14  15
ATOM     15  C   UNL     1     -15.287  32.269  -0.341  0.00  0.00    +0.037 A 
ATOM     16  C   UNL     1     -14.261  31.307   0.070  0.00  0.00    +0.013 A 
ATOM     17  C   UNL     1     -13.507  31.525   1.279  0.00  0.00    +0.005 A 
ATOM     18  C   UNL     1     -13.776  32.713   2.086  0.00  0.00    -0.033 A 
ATOM     28  C   UNL     1     -14.795  33.654   1.653  0.00  0.00    +0.005 A 
ATOM     29  C   UNL     1     -15.537  33.443   0.469  0.00  0.00    +0.013 A 
BRANCH  18  19
ATOM     19  C   UNL     1     -13.035  33.015   3.402  0.00  0.00    +0.119 C 
BRANCH  19  20
ATOM     20  N   UNL     1     -13.620  34.062   4.291  0.00  0.00    -0.302 NA
ATOM     21  C   UNL     1     -12.676  34.434   5.438  0.00  0.00    +0.066 C 
ATOM     22  C   UNL     1     -13.294  35.548   6.345  0.00  0.00    -0.064 C 
ATOM     23  N   UNL     1     -14.643  35.070   6.887  0.00  0.00    +0.379 N 
ATOM     24  C   UNL     1     -15.199  36.091   7.786  0.00  0.00    -0.096 C 
ATOM     25  H   UNL     1     -14.458  34.151   7.490  0.00  0.00    -0.082 HD
ATOM     26  C   UNL     1     -15.586  34.696   5.753  0.00  0.00    -0.064 C 
ATOM     27  C   UNL     1     -14.950  33.610   4.840  0.00  0.00    +0.066 C 
ENDBRANCH  19  20
ENDBRANCH  18  19
ENDBRANCH  14  15
ENDBRANCH  12  13
TORSDOF 6
ENDMDL
MODEL 5
REMARK VINA RESULT:      -8.0     13.239     20.001
REMARK  Name = C:\Users\Docking\Desktop\test protocol\1iep_ligandH.pdb
REMARK  8 active torsions:
REMARK  status: ('A' for Active; 'I' for Inactive)
REMARK    1  A    between atoms: _5  and  _11
REMARK    2  A    between atoms: _19  and  _21
REMARK    3  A    between atoms: _22  and  _66
REMARK    4  A    between atoms: _27  and  _30
REMARK    5  A    between atoms: _32  and  _33
REMARK    6  A    between atoms: _38  and  _43
REMARK    7  A    between atoms: _43  and  _46
REMARK    8  A    between atoms: _53  and  _55
REMARK                            x       y       z     vdW  Elec       q    Type
REMARK                         _______ _______ _______ _____ _____    ______ ____
ROOT
ATOM     10  C   UNL     1     -15.181  32.018  -0.534  0.00  0.00    +0.038 A 
ATOM     11  C   UNL     1     -16.092  32.998  -1.004  0.00  0.00    +0.047 A 
ATOM     12  C   UNL     1     -17.162  32.651  -1.926  0.00  0.00    +0.035 A 
ATOM     32  C   UNL     1     -17.278  31.294  -2.347  0.00  0.00    +0.024 A 
ATOM     33  C   UNL     1     -16.360  30.285  -1.880  0.00  0.00    +0.007 A 
ATOM     34  C   UNL     1     -15.301  30.622  -0.973  0.00  0.00    -0.029 A 
ATOM     35  C   UNL     1     -14.342  29.500  -0.510  0.00  0.00    +0.045 C 
ENDROOT
BRANCH  10   9
ATOM      4  C   UNL     1     -13.672  33.535   3.762  0.00  0.00    +0.077 A 
ATOM      5  C   UNL     1     -15.009  33.583   4.280  0.00  0.00    +0.048 A 
ATOM      6  C   UNL     1     -16.057  33.216   3.407  0.00  0.00    +0.116 A 
ATOM      7  N   UNL     1     -15.778  32.831   2.114  0.00  0.00    -0.223 NA
ATOM      8  C   UNL     1     -14.477  32.798   1.645  0.00  0.00    +0.220 A 
ATOM      9  N   UNL     1     -14.173  32.407   0.350  0.00  0.00    -0.283 N 
ATOM     36  H   UNL     1     -13.201  32.403   0.040  0.00  0.00    +0.155 HD
ATOM     37  N   UNL     1     -13.459  33.145   2.458  0.00  0.00    -0.214 NA
BRANCH   4   3
ATOM      1  C   UNL     1      -9.964  33.944   4.939  0.00  0.00    +0.020 A 
ATOM      2  C   UNL     1     -11.102  33.578   4.128  0.00  0.00    +0.013 A 
ATOM      3  C   UNL     1     -12.458  33.890   4.563  0.00  0.00    +0.019 A 
ATOM     38  C   UNL     1     -12.628  34.579   5.833  0.00  0.00    +0.120 A 
ATOM     39  N   UNL     1     -11.513  34.917   6.594  0.00  0.00    -0.263 NA
ATOM     40  C   UNL     1     -10.204  34.620   6.186  0.00  0.00    +0.111 A 
ENDBRANCH   4   3
ENDBRANCH  10   9
BRANCH  12  13
ATOM     13  N   UNL     1     -18.112  33.605  -2.443  0.00  0.00    -0.281 N 
ATOM     14  C   UNL     1     -18.405  33.883  -3.768  0.00  0.00    +0.248 C 
ATOM     30  O   UNL     1     -17.737  33.501  -4.718  0.00  0.00    -0.270 OA
ATOM     31  H   UNL     1     -18.631  34.141  -1.748  0.00  0.00    +0.155 HD
BRANCH  14  15
ATOM     15  C   UNL     1     -19.604  34.716  -4.083  0.00  0.00    +0.037 A 
ATOM     16  C   UNL     1     -20.250  35.538  -3.056  0.00  0.00    +0.013 A 
ATOM     17  C   UNL     1     -21.416  36.320  -3.383  0.00  0.00    +0.005 A 
ATOM     18  C   UNL     1     -21.944  36.284  -4.745  0.00  0.00    -0.033 A 
ATOM     28  C   UNL     1     -21.281  35.464  -5.745  0.00  0.00    +0.005 A 
ATOM     29  C   UNL     1     -20.138  34.696  -5.429  0.00  0.00    +0.013 A 
BRANCH  18  19
ATOM     19  C   UNL     1     -23.196  37.069  -5.177  0.00  0.00    +0.119 C 
BRANCH  19  20
ATOM     20  N   UNL     1     -24.506  36.354  -5.120  0.00  0.00    -0.302 NA
ATOM     21  C   UNL     1     -24.431  35.087  -4.263  0.00  0.00    +0.066 C 
ATOM     22  C   UNL     1     -25.815  34.363  -4.195  0.00  0.00    -0.064 C 
ATOM     23  N   UNL     1     -26.284  34.031  -5.613  0.00  0.00    +0.379 N 
ATOM     24  C   UNL     1     -27.557  33.299  -5.550  0.00  0.00    -0.096 C 
ATOM     25  H   UNL     1     -25.525  33.353  -6.069  0.00  0.00    -0.082 HD
ATOM     26  C   UNL     1     -26.358  35.285  -6.473  0.00  0.00    -0.064 C 
ATOM     27  C   UNL     1     -24.985  36.013  -6.509  0.00  0.00    +0.066 C 
ENDBRANCH  19  20
ENDBRANCH  18  19
ENDBRANCH  14  15
ENDBRANCH  12  13
TORSDOF 6
ENDMDL
