MODEL 1
REMARK VINA RESULT:      -9.8      0.000      0.000
REMARK  Name = C:\Users\Docking\Desktop\test protocol\1iep_ligandH.pdb
REMARK  8 active torsions:
REMARK  status: ('A' for Active; 'I' for Inactive)
REMARK    1  A    between atoms: _5  and  _11
REMARK    2  A    between atoms: _19  and  _21
REMARK    3  A    between atoms: _22  and  _66
REMARK    4  A    between atoms: _27  and  _30
REMARK    5  A    between atoms: _32  and  _33
REMARK    6  A    between atoms: _38  and  _43
REMARK    7  A    between atoms: _43  and  _46
REMARK    8  A    between atoms: _53  and  _55
REMARK                            x       y       z     vdW  Elec       q    Type
REMARK                         _______ _______ _______ _____ _____    ______ ____
ROOT
ATOM     10  C   UNL     1      16.670  34.059  15.218  0.00  0.00    +0.038 A 
ATOM     11  C   UNL     1      16.523  35.439  15.509  0.00  0.00    +0.047 A 
ATOM     12  C   UNL     1      15.941  35.885  16.765  0.00  0.00    +0.035 A 
ATOM     32  C   UNL     1      15.520  34.898  17.703  0.00  0.00    +0.024 A 
ATOM     33  C   UNL     1      15.661  33.490  17.423  0.00  0.00    +0.007 A 
ATOM     34  C   UNL     1      16.233  33.044  16.184  0.00  0.00    -0.029 A 
ATOM     35  C   UNL     1      16.353  31.523  15.934  0.00  0.00    +0.045 C 
ENDROOT
BRANCH  10   9
ATOM      4  C   UNL     1      16.318  32.706  10.626  0.00  0.00    +0.077 A 
ATOM      5  C   UNL     1      14.884  32.715  10.672  0.00  0.00    +0.048 A 
ATOM      6  C   UNL     1      14.276  33.067  11.898  0.00  0.00    +0.116 A 
ATOM      7  N   UNL     1      15.054  33.384  12.990  0.00  0.00    -0.223 NA
ATOM      8  C   UNL     1      16.434  33.364  12.913  0.00  0.00    +0.220 A 
ATOM      9  N   UNL     1      17.236  33.687  13.996  0.00  0.00    -0.283 N 
ATOM     36  H   UNL     1      18.251  33.653  13.901  0.00  0.00    +0.155 HD
ATOM     37  N   UNL     1      17.039  33.030  11.753  0.00  0.00    -0.214 NA
BRANCH   4   3
ATOM      1  C   UNL     1      17.519  32.427   6.914  0.00  0.00    +0.020 A 
ATOM      2  C   UNL     1      16.722  32.789   8.063  0.00  0.00    +0.013 A 
ATOM      3  C   UNL     1      17.106  32.359   9.402  0.00  0.00    +0.019 A 
ATOM     38  C   UNL     1      18.313  31.558   9.544  0.00  0.00    +0.120 A 
ATOM     39  N   UNL     1      19.060  31.224   8.419  0.00  0.00    -0.263 NA
ATOM     40  C   UNL     1      18.699  31.630   7.126  0.00  0.00    +0.111 A 
ENDBRANCH   4   3
ENDBRANCH  10   9
BRANCH  12  13
ATOM     13  N   UNL     1      15.759  37.272  17.113  0.00  0.00    -0.281 N 
ATOM     14  C   UNL     1      16.718  38.271  17.162  0.00  0.00    +0.248 C 
ATOM     30  O   UNL     1      17.923  38.074  17.120  0.00  0.00    -0.270 OA
ATOM     31  H   UNL     1      14.808  37.553  17.352  0.00  0.00    +0.155 HD
BRANCH  14  15
ATOM     15  C   UNL     1      16.274  39.692  17.290  0.00  0.00    +0.037 A 
ATOM     16  C   UNL     1      15.084  40.050  18.065  0.00  0.00    +0.013 A 
ATOM     17  C   UNL     1      14.668  41.427  18.159  0.00  0.00    +0.005 A 
ATOM     18  C   UNL     1      15.446  42.458  17.475  0.00  0.00    -0.033 A 
ATOM     28  C   UNL     1      16.626  42.076  16.717  0.00  0.00    +0.005 A 
ATOM     29  C   UNL     1      17.035  40.727  16.622  0.00  0.00    +0.013 A 
BRANCH  18  19
ATOM     19  C   UNL     1      15.064  43.950  17.503  0.00  0.00    +0.119 C 
BRANCH  19  20
ATOM     20  N   UNL     1      13.709  44.318  16.996  0.00  0.00    -0.302 NA
ATOM     21  C   UNL     1      13.782  45.278  15.805  0.00  0.00    +0.066 C 
ATOM     22  C   UNL     1      12.356  45.635  15.273  0.00  0.00    -0.064 C 
ATOM     23  N   UNL     1      11.529  46.242  16.407  0.00  0.00    +0.379 N 
ATOM     24  C   UNL     1      10.207  46.633  15.896  0.00  0.00    -0.096 C 
ATOM     25  H   UNL     1      12.048  47.169  16.745  0.00  0.00    -0.082 HD
ATOM     26  C   UNL     1      11.453  45.296  17.597  0.00  0.00    -0.064 C 
ATOM     27  C   UNL     1      12.876  44.924  18.099  0.00  0.00    +0.066 C 
ENDBRANCH  19  20
ENDBRANCH  18  19
ENDBRANCH  14  15
ENDBRANCH  12  13
TORSDOF 6
ENDMDL
MODEL 2
REMARK VINA RESULT:      -9.7      2.182     12.528
REMARK  Name = C:\Users\Docking\Desktop\test protocol\1iep_ligandH.pdb
REMARK  8 active torsions:
REMARK  status: ('A' for Active; 'I' for Inactive)
REMARK    1  A    between atoms: _5  and  _11
REMARK    2  A    between atoms: _19  and  _21
REMARK    3  A    between atoms: _22  and  _66
REMARK    4  A    between atoms: _27  and  _30
REMARK    5  A    between atoms: _32  and  _33
REMARK    6  A    between atoms: _38  and  _43
REMARK    7  A    between atoms: _43  and  _46
REMARK    8  A    between atoms: _53  and  _55
REMARK                            x       y       z     vdW  Elec       q    Type
REMARK                         _______ _______ _______ _____ _____    ______ ____
ROOT
ATOM     10  C   UNL     1      16.216  40.388  17.944  0.00  0.00    +0.038 A 
ATOM     11  C   UNL     1      16.036  39.249  17.118  0.00  0.00    +0.047 A 
ATOM     12  C   UNL     1      16.942  38.113  17.195  0.00  0.00    +0.035 A 
ATOM     32  C   UNL     1      18.019  38.170  18.127  0.00  0.00    +0.024 A 
ATOM     33  C   UNL     1      18.217  39.320  18.973  0.00  0.00    +0.007 A 
ATOM     34  C   UNL     1      17.328  40.445  18.900  0.00  0.00    -0.029 A 
ATOM     35  C   UNL     1      17.592  41.654  19.827  0.00  0.00    +0.045 C 
ENDROOT
BRANCH  10   9
ATOM      4  C   UNL     1      12.186  42.677  19.192  0.00  0.00    +0.077 A 
ATOM      5  C   UNL     1      11.829  41.658  20.136  0.00  0.00    +0.048 A 
ATOM      6  C   UNL     1      12.706  40.557  20.265  0.00  0.00    +0.116 A 
ATOM      7  N   UNL     1      13.852  40.492  19.502  0.00  0.00    -0.223 NA
ATOM      8  C   UNL     1      14.165  41.491  18.600  0.00  0.00    +0.220 A 
ATOM      9  N   UNL     1      15.316  41.450  17.828  0.00  0.00    -0.283 N 
ATOM     36  H   UNL     1      15.508  42.204  17.168  0.00  0.00    +0.155 HD
ATOM     37  N   UNL     1      13.344  42.552  18.457  0.00  0.00    -0.214 NA
BRANCH   4   3
ATOM      1  C   UNL     1      10.856  46.044  17.710  0.00  0.00    +0.020 A 
ATOM      2  C   UNL     1      11.684  44.876  17.908  0.00  0.00    +0.013 A 
ATOM      3  C   UNL     1      11.364  43.904  18.945  0.00  0.00    +0.019 A 
ATOM     38  C   UNL     1      10.190  44.143  19.771  0.00  0.00    +0.120 A 
ATOM     39  N   UNL     1       9.412  45.277  19.558  0.00  0.00    -0.263 NA
ATOM     40  C   UNL     1       9.711  46.221  18.564  0.00  0.00    +0.111 A 
ENDBRANCH   4   3
ENDBRANCH  10   9
BRANCH  12  13
ATOM     13  N   UNL     1      16.814  36.933  16.376  0.00  0.00    -0.281 N 
ATOM     14  C   UNL     1      16.370  35.677  16.756  0.00  0.00    +0.248 C 
ATOM     30  O   UNL     1      16.216  35.320  17.914  0.00  0.00    -0.270 OA
ATOM     31  H   UNL     1      17.084  37.037  15.398  0.00  0.00    +0.155 HD
BRANCH  14  15
ATOM     15  C   UNL     1      16.067  34.668  15.696  0.00  0.00    +0.037 A 
ATOM     16  C   UNL     1      15.811  33.265  16.033  0.00  0.00    +0.013 A 
ATOM     17  C   UNL     1      15.538  32.309  14.990  0.00  0.00    +0.005 A 
ATOM     18  C   UNL     1      15.518  32.753  13.598  0.00  0.00    -0.033 A 
ATOM     28  C   UNL     1      15.771  34.151  13.292  0.00  0.00    +0.005 A 
ATOM     29  C   UNL     1      16.040  35.091  14.312  0.00  0.00    +0.013 A 
BRANCH  18  19
ATOM     19  C   UNL     1      15.257  31.797  12.419  0.00  0.00    +0.119 C 
BRANCH  19  20
ATOM     20  N   UNL     1      16.448  31.274  11.686  0.00  0.00    -0.302 NA
ATOM     21  C   UNL     1      17.620  30.983  12.627  0.00  0.00    +0.066 C 
ATOM     22  C   UNL     1      18.850  30.415  11.847  0.00  0.00    -0.064 C 
ATOM     23  N   UNL     1      19.262  31.408  10.759  0.00  0.00    +0.379 N 
ATOM     24  C   UNL     1      20.454  30.903  10.061  0.00  0.00    -0.096 C 
ATOM     25  H   UNL     1      19.543  32.362  11.261  0.00  0.00    -0.082 HD
ATOM     26  C   UNL     1      18.102  31.705   9.820  0.00  0.00    -0.064 C 
ATOM     27  C   UNL     1      16.875  32.241  10.609  0.00  0.00    +0.066 C 
ENDBRANCH  19  20
ENDBRANCH  18  19
ENDBRANCH  14  15
ENDBRANCH  12  13
TORSDOF 6
ENDMDL
MODEL 3
REMARK VINA RESULT:      -9.6      5.944     10.623
REMARK  Name = C:\Users\Docking\Desktop\test protocol\1iep_ligandH.pdb
REMARK  8 active torsions:
REMARK  status: ('A' for Active; 'I' for Inactive)
REMARK    1  A    between atoms: _5  and  _11
REMARK    2  A    between atoms: _19  and  _21
REMARK    3  A    between atoms: _22  and  _66
REMARK    4  A    between atoms: _27  and  _30
REMARK    5  A    between atoms: _32  and  _33
REMARK    6  A    between atoms: _38  and  _43
REMARK    7  A    between atoms: _43  and  _46
REMARK    8  A    between atoms: _53  and  _55
REMARK                            x       y       z     vdW  Elec       q    Type
REMARK                         _______ _______ _______ _____ _____    ______ ____
ROOT
ATOM     10  C   UNL     1      18.268  35.667   5.736  0.00  0.00    +0.038 A 
ATOM     11  C   UNL     1      17.863  35.583   7.093  0.00  0.00    +0.047 A 
ATOM     12  C   UNL     1      17.836  34.307   7.792  0.00  0.00    +0.035 A 
ATOM     32  C   UNL     1      18.231  33.138   7.080  0.00  0.00    +0.024 A 
ATOM     33  C   UNL     1      18.644  33.205   5.700  0.00  0.00    +0.007 A 
ATOM     34  C   UNL     1      18.670  34.460   5.004  0.00  0.00    -0.029 A 
ATOM     35  C   UNL     1      19.115  34.472   3.523  0.00  0.00    +0.045 C 
ENDROOT
BRANCH  10   9
ATOM      4  C   UNL     1      16.159  39.125   3.161  0.00  0.00    +0.077 A 
ATOM      5  C   UNL     1      14.950  38.365   3.020  0.00  0.00    +0.048 A 
ATOM      6  C   UNL     1      14.915  37.086   3.620  0.00  0.00    +0.116 A 
ATOM      7  N   UNL     1      16.012  36.612   4.306  0.00  0.00    -0.223 NA
ATOM      8  C   UNL     1      17.162  37.370   4.421  0.00  0.00    +0.220 A 
ATOM      9  N   UNL     1      18.275  36.917   5.114  0.00  0.00    -0.283 N 
ATOM     36  H   UNL     1      19.107  37.504   5.170  0.00  0.00    +0.155 HD
ATOM     37  N   UNL     1      17.222  38.594   3.857  0.00  0.00    -0.214 NA
BRANCH   4   3
ATOM      1  C   UNL     1      17.695  42.595   2.214  0.00  0.00    +0.020 A 
ATOM      2  C   UNL     1      17.561  41.278   2.791  0.00  0.00    +0.013 A 
ATOM      3  C   UNL     1      16.349  40.494   2.586  0.00  0.00    +0.019 A 
ATOM     38  C   UNL     1      15.283  41.078   1.786  0.00  0.00    +0.120 A 
ATOM     39  N   UNL     1      15.439  42.350   1.244  0.00  0.00    -0.263 NA
ATOM     40  C   UNL     1      16.600  43.113   1.436  0.00  0.00    +0.111 A 
ENDBRANCH   4   3
ENDBRANCH  10   9
BRANCH  12  13
ATOM     13  N   UNL     1      17.427  34.159   9.167  0.00  0.00    -0.281 N 
ATOM     14  C   UNL     1      16.247  33.619   9.651  0.00  0.00    +0.248 C 
ATOM     30  O   UNL     1      15.266  33.375   8.964  0.00  0.00    -0.270 OA
ATOM     31  H   UNL     1      18.088  34.493   9.869  0.00  0.00    +0.155 HD
BRANCH  14  15
ATOM     15  C   UNL     1      16.134  33.321  11.111  0.00  0.00    +0.037 A 
ATOM     16  C   UNL     1      14.829  33.140  11.751  0.00  0.00    +0.013 A 
ATOM     17  C   UNL     1      14.748  32.869  13.165  0.00  0.00    +0.005 A 
ATOM     18  C   UNL     1      15.978  32.777  13.948  0.00  0.00    -0.033 A 
ATOM     28  C   UNL     1      17.260  32.955  13.286  0.00  0.00    +0.005 A 
ATOM     29  C   UNL     1      17.343  33.221  11.901  0.00  0.00    +0.013 A 
BRANCH  18  19
ATOM     19  C   UNL     1      15.986  32.512  15.465  0.00  0.00    +0.119 C 
BRANCH  19  20
ATOM     20  N   UNL     1      16.303  33.666  16.358  0.00  0.00    -0.302 NA
ATOM     21  C   UNL     1      15.850  34.999  15.757  0.00  0.00    +0.066 C 
ATOM     22  C   UNL     1      16.169  36.193  16.715  0.00  0.00    -0.064 C 
ATOM     23  N   UNL     1      17.669  36.216  17.015  0.00  0.00    +0.379 N 
ATOM     24  C   UNL     1      17.982  37.371  17.869  0.00  0.00    -0.096 C 
ATOM     25  H   UNL     1      18.205  36.355  16.048  0.00  0.00    -0.082 HD
ATOM     26  C   UNL     1      18.128  34.892  17.611  0.00  0.00    -0.064 C 
ATOM     27  C   UNL     1      17.780  33.710  16.664  0.00  0.00    +0.066 C 
ENDBRANCH  19  20
ENDBRANCH  18  19
ENDBRANCH  14  15
ENDBRANCH  12  13
TORSDOF 6
ENDMDL
MODEL 4
REMARK VINA RESULT:      -9.5      8.008     15.819
REMARK  Name = C:\Users\Docking\Desktop\test protocol\1iep_ligandH.pdb
REMARK  8 active torsions:
REMARK  status: ('A' for Active; 'I' for Inactive)
REMARK    1  A    between atoms: _5  and  _11
REMARK    2  A    between atoms: _19  and  _21
REMARK    3  A    between atoms: _22  and  _66
REMARK    4  A    between atoms: _27  and  _30
REMARK    5  A    between atoms: _32  and  _33
REMARK    6  A    between atoms: _38  and  _43
REMARK    7  A    between atoms: _43  and  _46
REMARK    8  A    between atoms: _53  and  _55
REMARK                            x       y       z     vdW  Elec       q    Type
REMARK                         _______ _______ _______ _____ _____    ______ ____
ROOT
ATOM     10  C   UNL     1      18.551  29.109  11.474  0.00  0.00    +0.038 A 
ATOM     11  C   UNL     1      17.791  27.911  11.457  0.00  0.00    +0.047 A 
ATOM     12  C   UNL     1      17.836  27.008  10.318  0.00  0.00    +0.035 A 
ATOM     32  C   UNL     1      18.667  27.354   9.213  0.00  0.00    +0.024 A 
ATOM     33  C   UNL     1      19.445  28.568   9.213  0.00  0.00    +0.007 A 
ATOM     34  C   UNL     1      19.403  29.464  10.332  0.00  0.00    -0.029 A 
ATOM     35  C   UNL     1      20.253  30.755  10.274  0.00  0.00    +0.045 C 
ENDROOT
BRANCH  10   9
ATOM      4  C   UNL     1      16.535  32.694  13.948  0.00  0.00    +0.077 A 
ATOM      5  C   UNL     1      15.578  32.951  12.911  0.00  0.00    +0.048 A 
ATOM      6  C   UNL     1      15.643  32.142  11.754  0.00  0.00    +0.116 A 
ATOM      7  N   UNL     1      16.598  31.154  11.652  0.00  0.00    -0.223 NA
ATOM      8  C   UNL     1      17.507  30.934  12.671  0.00  0.00    +0.220 A 
ATOM      9  N   UNL     1      18.471  29.940  12.593  0.00  0.00    -0.283 N 
ATOM     36  H   UNL     1      19.128  29.815  13.363  0.00  0.00    +0.155 HD
ATOM     37  N   UNL     1      17.467  31.693  13.785  0.00  0.00    -0.214 NA
BRANCH   4   3
ATOM      1  C   UNL     1      15.572  34.947  16.997  0.00  0.00    +0.020 A 
ATOM      2  C   UNL     1      15.464  34.224  15.751  0.00  0.00    +0.013 A 
ATOM      3  C   UNL     1      16.593  33.461  15.233  0.00  0.00    +0.019 A 
ATOM     38  C   UNL     1      17.825  33.450  16.006  0.00  0.00    +0.120 A 
ATOM     39  N   UNL     1      17.900  34.157  17.202  0.00  0.00    -0.263 NA
ATOM     40  C   UNL     1      16.821  34.896  17.710  0.00  0.00    +0.111 A 
ENDBRANCH   4   3
ENDBRANCH  10   9
BRANCH  12  13
ATOM     13  N   UNL     1      17.081  25.782  10.242  0.00  0.00    -0.281 N 
ATOM     14  C   UNL     1      17.454  24.523  10.683  0.00  0.00    +0.248 C 
ATOM     30  O   UNL     1      18.588  24.217  11.020  0.00  0.00    -0.270 OA
ATOM     31  H   UNL     1      16.159  25.851   9.810  0.00  0.00    +0.155 HD
BRANCH  14  15
ATOM     15  C   UNL     1      16.421  23.444  10.745  0.00  0.00    +0.037 A 
ATOM     16  C   UNL     1      16.241  22.633  11.952  0.00  0.00    +0.013 A 
ATOM     17  C   UNL     1      15.249  21.588  11.980  0.00  0.00    +0.005 A 
ATOM     18  C   UNL     1      14.428  21.348  10.795  0.00  0.00    -0.033 A 
ATOM     28  C   UNL     1      14.624  22.171   9.613  0.00  0.00    +0.005 A 
ATOM     29  C   UNL     1      15.596  23.196   9.582  0.00  0.00    +0.013 A 
BRANCH  18  19
ATOM     19  C   UNL     1      13.360  20.241  10.728  0.00  0.00    +0.119 C 
BRANCH  19  20
ATOM     20  N   UNL     1      11.952  20.663  10.462  0.00  0.00    -0.302 NA
ATOM     21  C   UNL     1      11.486  21.751  11.433  0.00  0.00    +0.066 C 
ATOM     22  C   UNL     1      10.019  22.197  11.127  0.00  0.00    -0.064 C 
ATOM     23  N   UNL     1       9.094  20.980  11.192  0.00  0.00    +0.379 N 
ATOM     24  C   UNL     1       7.706  21.405  10.961  0.00  0.00    -0.096 C 
ATOM     25  H   UNL     1       9.154  20.565  12.225  0.00  0.00    -0.082 HD
ATOM     26  C   UNL     1       9.553  19.892  10.231  0.00  0.00    -0.064 C 
ATOM     27  C   UNL     1      11.021  19.477  10.526  0.00  0.00    +0.066 C 
ENDBRANCH  19  20
ENDBRANCH  18  19
ENDBRANCH  14  15
ENDBRANCH  12  13
TORSDOF 6
ENDMDL
MODEL 5
REMARK VINA RESULT:      -9.3      5.198      9.524
REMARK  Name = C:\Users\Docking\Desktop\test protocol\1iep_ligandH.pdb
REMARK  8 active torsions:
REMARK  status: ('A' for Active; 'I' for Inactive)
REMARK    1  A    between atoms: _5  and  _11
REMARK    2  A    between atoms: _19  and  _21
REMARK    3  A    between atoms: _22  and  _66
REMARK    4  A    between atoms: _27  and  _30
REMARK    5  A    between atoms: _32  and  _33
REMARK    6  A    between atoms: _38  and  _43
REMARK    7  A    between atoms: _43  and  _46
REMARK    8  A    between atoms: _53  and  _55
REMARK                            x       y       z     vdW  Elec       q    Type
REMARK                         _______ _______ _______ _____ _____    ______ ____
ROOT
ATOM     10  C   UNL     1      18.172  33.159   6.618  0.00  0.00    +0.038 A 
ATOM     11  C   UNL     1      17.941  33.121   8.017  0.00  0.00    +0.047 A 
ATOM     12  C   UNL     1      16.593  33.031   8.556  0.00  0.00    +0.035 A 
ATOM     32  C   UNL     1      15.502  32.978   7.640  0.00  0.00    +0.024 A 
ATOM     33  C   UNL     1      15.718  33.016   6.215  0.00  0.00    +0.007 A 
ATOM     34  C   UNL     1      17.046  33.108   5.678  0.00  0.00    -0.029 A 
ATOM     35  C   UNL     1      17.218  33.152   4.142  0.00  0.00    +0.045 C 
ENDROOT
BRANCH  10   9
ATOM      4  C   UNL     1      22.396  31.186   5.478  0.00  0.00    +0.077 A 
ATOM      5  C   UNL     1      21.955  29.876   5.860  0.00  0.00    +0.048 A 
ATOM      6  C   UNL     1      20.636  29.754   6.351  0.00  0.00    +0.116 A 
ATOM      7  N   UNL     1      19.827  30.865   6.449  0.00  0.00    -0.223 NA
ATOM      8  C   UNL     1      20.285  32.115   6.074  0.00  0.00    +0.220 A 
ATOM      9  N   UNL     1      19.487  33.246   6.157  0.00  0.00    -0.283 N 
ATOM     36  H   UNL     1      19.864  34.151   5.877  0.00  0.00    +0.155 HD
ATOM     37  N   UNL     1      21.541  32.259   5.603  0.00  0.00    -0.214 NA
BRANCH   4   3
ATOM      1  C   UNL     1      25.728  33.005   4.532  0.00  0.00    +0.020 A 
ATOM      2  C   UNL     1      24.407  32.777   5.072  0.00  0.00    +0.013 A 
ATOM      3  C   UNL     1      23.762  31.477   4.937  0.00  0.00    +0.019 A 
ATOM     38  C   UNL     1      24.486  30.421   4.246  0.00  0.00    +0.120 A 
ATOM     39  N   UNL     1      25.756  30.670   3.735  0.00  0.00    -0.263 NA
ATOM     40  C   UNL     1      26.386  31.917   3.857  0.00  0.00    +0.111 A 
ENDBRANCH   4   3
ENDBRANCH  10   9
BRANCH  12  13
ATOM     13  N   UNL     1      16.297  32.997   9.966  0.00  0.00    -0.281 N 
ATOM     14  C   UNL     1      16.663  32.033  10.891  0.00  0.00    +0.248 C 
ATOM     30  O   UNL     1      17.123  30.938  10.602  0.00  0.00    -0.270 OA
ATOM     31  H   UNL     1      15.750  33.780  10.327  0.00  0.00    +0.155 HD
BRANCH  14  15
ATOM     15  C   UNL     1      16.480  32.321  12.346  0.00  0.00    +0.037 A 
ATOM     16  C   UNL     1      17.522  31.994  13.323  0.00  0.00    +0.013 A 
ATOM     17  C   UNL     1      17.312  32.266  14.723  0.00  0.00    +0.005 A 
ATOM     18  C   UNL     1      16.055  32.872  15.154  0.00  0.00    -0.033 A 
ATOM     28  C   UNL     1      15.040  33.191  14.163  0.00  0.00    +0.005 A 
ATOM     29  C   UNL     1      15.242  32.924  12.790  0.00  0.00    +0.013 A 
BRANCH  18  19
ATOM     19  C   UNL     1      15.736  33.178  16.629  0.00  0.00    +0.119 C 
BRANCH  19  20
ATOM     20  N   UNL     1      16.312  34.429  17.207  0.00  0.00    -0.302 NA
ATOM     21  C   UNL     1      15.936  35.667  16.389  0.00  0.00    +0.066 C 
ATOM     22  C   UNL     1      16.528  36.969  17.020  0.00  0.00    -0.064 C 
ATOM     23  N   UNL     1      18.047  36.834  17.129  0.00  0.00    +0.379 N 
ATOM     24  C   UNL     1      18.613  38.079  17.669  0.00  0.00    -0.096 C 
ATOM     25  H   UNL     1      18.450  36.698  16.099  0.00  0.00    -0.082 HD
ATOM     26  C   UNL     1      18.431  35.604  17.940  0.00  0.00    -0.064 C 
ATOM     27  C   UNL     1      17.813  34.319  17.320  0.00  0.00    +0.066 C 
ENDBRANCH  19  20
ENDBRANCH  18  19
ENDBRANCH  14  15
ENDBRANCH  12  13
TORSDOF 6
ENDMDL
