MODEL 1
REMARK VINA RESULT:      -8.4      0.000      0.000
REMARK  Name = C:\Users\Docking\Desktop\test protocol\1iep_ligandH.pdb
REMARK  8 active torsions:
REMARK  status: ('A' for Active; 'I' for Inactive)
REMARK    1  A    between atoms: _5  and  _11
REMARK    2  A    between atoms: _19  and  _21
REMARK    3  A    between atoms: _22  and  _66
REMARK    4  A    between atoms: _27  and  _30
REMARK    5  A    between atoms: _32  and  _33
REMARK    6  A    between atoms: _38  and  _43
REMARK    7  A    between atoms: _43  and  _46
REMARK    8  A    between atoms: _53  and  _55
REMARK                            x       y       z     vdW  Elec       q    Type
REMARK                         _______ _______ _______ _____ _____    ______ ____
ROOT
ATOM     10  C   UNL     1       9.466 -11.299  17.943  0.00  0.00    +0.038 A 
ATOM     11  C   UNL     1       9.627 -10.177  17.090  0.00  0.00    +0.047 A 
ATOM     12  C   UNL     1       8.712  -9.048  17.150  0.00  0.00    +0.035 A 
ATOM     32  C   UNL     1       7.644  -9.093  18.093  0.00  0.00    +0.024 A 
ATOM     33  C   UNL     1       7.465 -10.226  18.967  0.00  0.00    +0.007 A 
ATOM     34  C   UNL     1       8.363 -11.343  18.911  0.00  0.00    -0.029 A 
ATOM     35  C   UNL     1       8.118 -12.533  19.868  0.00  0.00    +0.045 C 
ENDROOT
BRANCH  10   9
ATOM      4  C   UNL     1      13.508 -13.542  19.234  0.00  0.00    +0.077 A 
ATOM      5  C   UNL     1      13.853 -12.509  20.167  0.00  0.00    +0.048 A 
ATOM      6  C   UNL     1      12.968 -11.414  20.280  0.00  0.00    +0.116 A 
ATOM      7  N   UNL     1      11.825 -11.366  19.512  0.00  0.00    -0.223 NA
ATOM      8  C   UNL     1      11.522 -12.379  18.620  0.00  0.00    +0.220 A 
ATOM      9  N   UNL     1      10.374 -12.355  17.843  0.00  0.00    -0.283 N 
ATOM     36  H   UNL     1      10.190 -13.118  17.192  0.00  0.00    +0.155 HD
ATOM     37  N   UNL     1      12.352 -13.435  18.493  0.00  0.00    -0.214 NA
BRANCH   4   3
ATOM      1  C   UNL     1      14.872 -16.913  17.793  0.00  0.00    +0.020 A 
ATOM      2  C   UNL     1      14.035 -15.750  17.974  0.00  0.00    +0.013 A 
ATOM      3  C   UNL     1      14.341 -14.765  19.004  0.00  0.00    +0.019 A 
ATOM     38  C   UNL     1      15.510 -14.989  19.840  0.00  0.00    +0.120 A 
ATOM     39  N   UNL     1      16.297 -16.119  19.644  0.00  0.00    -0.263 NA
ATOM     40  C   UNL     1      16.012 -17.074  18.657  0.00  0.00    +0.111 A 
ENDBRANCH   4   3
ENDBRANCH  10   9
BRANCH  12  13
ATOM     13  N   UNL     1       8.822  -7.886  16.303  0.00  0.00    -0.281 N 
ATOM     14  C   UNL     1       9.242  -6.614  16.654  0.00  0.00    +0.248 C 
ATOM     30  O   UNL     1       9.387  -6.226  17.803  0.00  0.00    -0.270 OA
ATOM     31  H   UNL     1       8.556  -8.018  15.327  0.00  0.00    +0.155 HD
BRANCH  14  15
ATOM     15  C   UNL     1       9.531  -5.625  15.571  0.00  0.00    +0.037 A 
ATOM     16  C   UNL     1       9.978  -4.265  15.883  0.00  0.00    +0.013 A 
ATOM     17  C   UNL     1      10.233  -3.326  14.819  0.00  0.00    +0.005 A 
ATOM     18  C   UNL     1      10.042  -3.745  13.433  0.00  0.00    -0.033 A 
ATOM     28  C   UNL     1       9.603  -5.101  13.152  0.00  0.00    +0.005 A 
ATOM     29  C   UNL     1       9.351  -6.024  14.191  0.00  0.00    +0.013 A 
BRANCH  18  19
ATOM     19  C   UNL     1      10.270  -2.802  12.236  0.00  0.00    +0.119 C 
BRANCH  19  20
ATOM     20  N   UNL     1       9.528  -3.105  10.976  0.00  0.00    -0.302 NA
ATOM     21  C   UNL     1      10.456  -3.617   9.871  0.00  0.00    +0.066 C 
ATOM     22  C   UNL     1       9.659  -3.951   8.568  0.00  0.00    -0.064 C 
ATOM     23  N   UNL     1       8.900  -2.706   8.105  0.00  0.00    +0.379 N 
ATOM     24  C   UNL     1       8.197  -2.999   6.848  0.00  0.00    -0.096 C 
ATOM     25  H   UNL     1       9.653  -1.911   7.893  0.00  0.00    -0.082 HD
ATOM     26  C   UNL     1       7.977  -2.188   9.199  0.00  0.00    -0.064 C 
ATOM     27  C   UNL     1       8.774  -1.888  10.499  0.00  0.00    +0.066 C 
ENDBRANCH  19  20
ENDBRANCH  18  19
ENDBRANCH  14  15
ENDBRANCH  12  13
TORSDOF 6
ENDMDL
MODEL 2
REMARK VINA RESULT:      -8.4      2.066     12.450
REMARK  Name = C:\Users\Docking\Desktop\test protocol\1iep_ligandH.pdb
REMARK  8 active torsions:
REMARK  status: ('A' for Active; 'I' for Inactive)
REMARK    1  A    between atoms: _5  and  _11
REMARK    2  A    between atoms: _19  and  _21
REMARK    3  A    between atoms: _22  and  _66
REMARK    4  A    between atoms: _27  and  _30
REMARK    5  A    between atoms: _32  and  _33
REMARK    6  A    between atoms: _38  and  _43
REMARK    7  A    between atoms: _43  and  _46
REMARK    8  A    between atoms: _53  and  _55
REMARK                            x       y       z     vdW  Elec       q    Type
REMARK                         _______ _______ _______ _____ _____    ______ ____
ROOT
ATOM     10  C   UNL     1       8.998  -4.903  15.019  0.00  0.00    +0.038 A 
ATOM     11  C   UNL     1       9.151  -6.281  15.317  0.00  0.00    +0.047 A 
ATOM     12  C   UNL     1       9.699  -6.718  16.592  0.00  0.00    +0.035 A 
ATOM     32  C   UNL     1      10.077  -5.724  17.541  0.00  0.00    +0.024 A 
ATOM     33  C   UNL     1       9.929  -4.319  17.254  0.00  0.00    +0.007 A 
ATOM     34  C   UNL     1       9.392  -3.882  15.997  0.00  0.00    -0.029 A 
ATOM     35  C   UNL     1       9.262  -2.363  15.740  0.00  0.00    +0.045 C 
ENDROOT
BRANCH  10   9
ATOM      4  C   UNL     1       9.480  -3.505  10.453  0.00  0.00    +0.077 A 
ATOM      5  C   UNL     1      10.910  -3.469  10.553  0.00  0.00    +0.048 A 
ATOM      6  C   UNL     1      11.482  -3.811  11.799  0.00  0.00    +0.116 A 
ATOM      7  N   UNL     1      10.674  -4.161  12.858  0.00  0.00    -0.223 NA
ATOM      8  C   UNL     1       9.298  -4.183  12.729  0.00  0.00    +0.220 A 
ATOM      9  N   UNL     1       8.466  -4.540  13.779  0.00  0.00    -0.283 N 
ATOM     36  H   UNL     1       7.455  -4.537  13.645  0.00  0.00    +0.155 HD
ATOM     37  N   UNL     1       8.727  -3.860  11.550  0.00  0.00    -0.214 NA
BRANCH   4   3
ATOM      1  C   UNL     1       7.384  -1.609   7.748  0.00  0.00    +0.020 A 
ATOM      2  C   UNL     1       8.099  -1.878   8.974  0.00  0.00    +0.013 A 
ATOM      3  C   UNL     1       8.727  -3.173   9.202  0.00  0.00    +0.019 A 
ATOM     38  C   UNL     1       8.612  -4.182   8.159  0.00  0.00    +0.120 A 
ATOM     39  N   UNL     1       7.916  -3.895   6.989  0.00  0.00    -0.263 NA
ATOM     40  C   UNL     1       7.307  -2.652   6.761  0.00  0.00    +0.111 A 
ENDBRANCH   4   3
ENDBRANCH  10   9
BRANCH  12  13
ATOM     13  N   UNL     1       9.885  -8.103  16.948  0.00  0.00    -0.281 N 
ATOM     14  C   UNL     1       8.914  -9.075  17.127  0.00  0.00    +0.248 C 
ATOM     30  O   UNL     1       7.717  -8.847  17.216  0.00  0.00    -0.270 OA
ATOM     31  H   UNL     1      10.851  -8.403  17.086  0.00  0.00    +0.155 HD
BRANCH  14  15
ATOM     15  C   UNL     1       9.336 -10.505  17.236  0.00  0.00    +0.037 A 
ATOM     16  C   UNL     1      10.505 -10.894  18.028  0.00  0.00    +0.013 A 
ATOM     17  C   UNL     1      10.900 -12.278  18.103  0.00  0.00    +0.005 A 
ATOM     18  C   UNL     1      10.122 -13.285  17.384  0.00  0.00    -0.033 A 
ATOM     28  C   UNL     1       8.963 -12.871  16.610  0.00  0.00    +0.005 A 
ATOM     29  C   UNL     1       8.574 -11.515  16.534  0.00  0.00    +0.013 A 
BRANCH  18  19
ATOM     19  C   UNL     1      10.482 -14.782  17.390  0.00  0.00    +0.119 C 
BRANCH  19  20
ATOM     20  N   UNL     1      11.876 -15.151  17.003  0.00  0.00    -0.302 NA
ATOM     21  C   UNL     1      11.906 -16.131  15.827  0.00  0.00    +0.066 C 
ATOM     22  C   UNL     1      13.373 -16.489  15.421  0.00  0.00    -0.064 C 
ATOM     23  N   UNL     1      14.105 -17.073  16.630  0.00  0.00    +0.379 N 
ATOM     24  C   UNL     1      15.467 -17.464  16.236  0.00  0.00    -0.096 C 
ATOM     25  H   UNL     1      13.564 -17.997  16.939  0.00  0.00    -0.082 HD
ATOM     26  C   UNL     1      14.079 -16.106  17.805  0.00  0.00    -0.064 C 
ATOM     27  C   UNL     1      12.617 -15.734  18.182  0.00  0.00    +0.066 C 
ENDBRANCH  19  20
ENDBRANCH  18  19
ENDBRANCH  14  15
ENDBRANCH  12  13
TORSDOF 6
ENDMDL
MODEL 3
REMARK VINA RESULT:      -8.0     21.383     24.802
REMARK  Name = C:\Users\Docking\Desktop\test protocol\1iep_ligandH.pdb
REMARK  8 active torsions:
REMARK  status: ('A' for Active; 'I' for Inactive)
REMARK    1  A    between atoms: _5  and  _11
REMARK    2  A    between atoms: _19  and  _21
REMARK    3  A    between atoms: _22  and  _66
REMARK    4  A    between atoms: _27  and  _30
REMARK    5  A    between atoms: _32  and  _33
REMARK    6  A    between atoms: _38  and  _43
REMARK    7  A    between atoms: _43  and  _46
REMARK    8  A    between atoms: _53  and  _55
REMARK                            x       y       z     vdW  Elec       q    Type
REMARK                         _______ _______ _______ _____ _____    ______ ____
ROOT
ATOM     10  C   UNL     1      11.417  11.039  27.958  0.00  0.00    +0.038 A 
ATOM     11  C   UNL     1      12.205  11.711  26.988  0.00  0.00    +0.047 A 
ATOM     12  C   UNL     1      13.652  11.566  26.964  0.00  0.00    +0.035 A 
ATOM     32  C   UNL     1      14.264  10.727  27.940  0.00  0.00    +0.024 A 
ATOM     33  C   UNL     1      13.478  10.038  28.933  0.00  0.00    +0.007 A 
ATOM     34  C   UNL     1      12.051  10.178  28.964  0.00  0.00    -0.029 A 
ATOM     35  C   UNL     1      11.259   9.421  30.055  0.00  0.00    +0.045 C 
ENDROOT
BRANCH  10   9
ATOM      4  C   UNL     1       6.998   9.662  26.687  0.00  0.00    +0.077 A 
ATOM      5  C   UNL     1       7.493   8.512  25.987  0.00  0.00    +0.048 A 
ATOM      6  C   UNL     1       8.893   8.315  25.971  0.00  0.00    +0.116 A 
ATOM      7  N   UNL     1       9.724   9.208  26.612  0.00  0.00    -0.223 NA
ATOM      8  C   UNL     1       9.214  10.307  27.277  0.00  0.00    +0.220 A 
ATOM      9  N   UNL     1      10.031  11.213  27.935  0.00  0.00    -0.283 N 
ATOM     36  H   UNL     1       9.616  12.016  28.408  0.00  0.00    +0.155 HD
ATOM     37  N   UNL     1       7.881  10.518  27.305  0.00  0.00    -0.214 NA
BRANCH   4   3
ATOM      1  C   UNL     1       3.205  10.149  25.862  0.00  0.00    +0.020 A 
ATOM      2  C   UNL     1       4.599   9.802  25.705  0.00  0.00    +0.013 A 
ATOM      3  C   UNL     1       5.544  10.004  26.796  0.00  0.00    +0.019 A 
ATOM     38  C   UNL     1       5.043  10.564  28.042  0.00  0.00    +0.120 A 
ATOM     39  N   UNL     1       3.696  10.890  28.164  0.00  0.00    -0.263 NA
ATOM     40  C   UNL     1       2.777  10.701  27.121  0.00  0.00    +0.111 A 
ENDBRANCH   4   3
ENDBRANCH  10   9
BRANCH  12  13
ATOM     13  N   UNL     1      14.505  12.230  26.009  0.00  0.00    -0.281 N 
ATOM     14  C   UNL     1      14.332  13.480  25.438  0.00  0.00    +0.248 C 
ATOM     30  O   UNL     1      13.301  14.132  25.501  0.00  0.00    -0.270 OA
ATOM     31  H   UNL     1      15.336  11.715  25.719  0.00  0.00    +0.155 HD
BRANCH  14  15
ATOM     15  C   UNL     1      15.464  14.087  24.674  0.00  0.00    +0.037 A 
ATOM     16  C   UNL     1      15.523  14.011  23.212  0.00  0.00    +0.013 A 
ATOM     17  C   UNL     1      16.635  14.590  22.501  0.00  0.00    +0.005 A 
ATOM     18  C   UNL     1      17.698  15.254  23.253  0.00  0.00    -0.033 A 
ATOM     28  C   UNL     1      17.612  15.320  24.702  0.00  0.00    +0.005 A 
ATOM     29  C   UNL     1      16.524  14.752  25.402  0.00  0.00    +0.013 A 
BRANCH  18  19
ATOM     19  C   UNL     1      18.932  15.881  22.579  0.00  0.00    +0.119 C 
BRANCH  19  20
ATOM     20  N   UNL     1      19.978  14.948  22.063  0.00  0.00    -0.302 NA
ATOM     21  C   UNL     1      20.397  13.917  23.114  0.00  0.00    +0.066 C 
ATOM     22  C   UNL     1      21.475  12.935  22.551  0.00  0.00    -0.064 C 
ATOM     23  N   UNL     1      22.685  13.734  22.065  0.00  0.00    +0.379 N 
ATOM     24  C   UNL     1      23.724  12.811  21.587  0.00  0.00    -0.096 C 
ATOM     25  H   UNL     1      23.099  14.286  22.940  0.00  0.00    -0.082 HD
ATOM     26  C   UNL     1      22.277  14.764  21.021  0.00  0.00    -0.064 C 
ATOM     27  C   UNL     1      21.184  15.717  21.581  0.00  0.00    +0.066 C 
ENDBRANCH  19  20
ENDBRANCH  18  19
ENDBRANCH  14  15
ENDBRANCH  12  13
TORSDOF 6
ENDMDL
MODEL 4
REMARK VINA RESULT:      -7.9     15.391     20.160
REMARK  Name = C:\Users\Docking\Desktop\test protocol\1iep_ligandH.pdb
REMARK  8 active torsions:
REMARK  status: ('A' for Active; 'I' for Inactive)
REMARK    1  A    between atoms: _5  and  _11
REMARK    2  A    between atoms: _19  and  _21
REMARK    3  A    between atoms: _22  and  _66
REMARK    4  A    between atoms: _27  and  _30
REMARK    5  A    between atoms: _32  and  _33
REMARK    6  A    between atoms: _38  and  _43
REMARK    7  A    between atoms: _43  and  _46
REMARK    8  A    between atoms: _53  and  _55
REMARK                            x       y       z     vdW  Elec       q    Type
REMARK                         _______ _______ _______ _____ _____    ______ ____
ROOT
ATOM     10  C   UNL     1       3.185   5.291  19.866  0.00  0.00    +0.038 A 
ATOM     11  C   UNL     1       4.141   5.778  20.794  0.00  0.00    +0.047 A 
ATOM     12  C   UNL     1       3.735   6.301  22.089  0.00  0.00    +0.035 A 
ATOM     32  C   UNL     1       2.346   6.311  22.408  0.00  0.00    +0.024 A 
ATOM     33  C   UNL     1       1.360   5.822  21.477  0.00  0.00    +0.007 A 
ATOM     34  C   UNL     1       1.755   5.307  20.197  0.00  0.00    -0.029 A 
ATOM     35  C   UNL     1       0.654   4.801  19.235  0.00  0.00    +0.045 C 
ENDROOT
BRANCH  10   9
ATOM      4  C   UNL     1       4.586   5.911  15.318  0.00  0.00    +0.077 A 
ATOM      5  C   UNL     1       4.389   7.330  15.388  0.00  0.00    +0.048 A 
ATOM      6  C   UNL     1       3.919   7.860  16.611  0.00  0.00    +0.116 A 
ATOM      7  N   UNL     1       3.668   7.024  17.677  0.00  0.00    -0.223 NA
ATOM      8  C   UNL     1       3.868   5.659  17.575  0.00  0.00    +0.220 A 
ATOM      9  N   UNL     1       3.630   4.800  18.637  0.00  0.00    -0.283 N 
ATOM     36  H   UNL     1       3.782   3.799  18.519  0.00  0.00    +0.155 HD
ATOM     37  N   UNL     1       4.315   5.128  16.418  0.00  0.00    -0.214 NA
BRANCH   4   3
ATOM      1  C   UNL     1       6.359   5.119  11.922  0.00  0.00    +0.020 A 
ATOM      2  C   UNL     1       5.906   5.849  13.084  0.00  0.00    +0.013 A 
ATOM      3  C   UNL     1       5.082   5.202  14.096  0.00  0.00    +0.019 A 
ATOM     38  C   UNL     1       4.731   3.803  13.902  0.00  0.00    +0.120 A 
ATOM     39  N   UNL     1       5.180   3.125  12.773  0.00  0.00    -0.263 NA
ATOM     40  C   UNL     1       5.973   3.739  11.791  0.00  0.00    +0.111 A 
ENDBRANCH   4   3
ENDBRANCH  10   9
BRANCH  12  13
ATOM     13  N   UNL     1       4.661   6.815  23.068  0.00  0.00    -0.281 N 
ATOM     14  C   UNL     1       6.038   6.672  23.095  0.00  0.00    +0.248 C 
ATOM     30  O   UNL     1       6.666   5.894  22.393  0.00  0.00    -0.270 OA
ATOM     31  H   UNL     1       4.250   7.350  23.833  0.00  0.00    +0.155 HD
BRANCH  14  15
ATOM     15  C   UNL     1       6.832   7.503  24.052  0.00  0.00    +0.037 A 
ATOM     16  C   UNL     1       6.889   7.173  25.478  0.00  0.00    +0.013 A 
ATOM     17  C   UNL     1       7.648   8.001  26.382  0.00  0.00    +0.005 A 
ATOM     18  C   UNL     1       8.357   9.167  25.860  0.00  0.00    -0.033 A 
ATOM     28  C   UNL     1       8.287   9.468  24.440  0.00  0.00    +0.005 A 
ATOM     29  C   UNL     1       7.544   8.659  23.551  0.00  0.00    +0.013 A 
BRANCH  18  19
ATOM     19  C   UNL     1       9.174  10.118  26.754  0.00  0.00    +0.119 C 
BRANCH  19  20
ATOM     20  N   UNL     1      10.406   9.567  27.394  0.00  0.00    -0.302 NA
ATOM     21  C   UNL     1      10.438   9.832  28.901  0.00  0.00    +0.066 C 
ATOM     22  C   UNL     1      11.723   9.229  29.558  0.00  0.00    -0.064 C 
ATOM     23  N   UNL     1      12.962   9.813  28.878  0.00  0.00    +0.379 N 
ATOM     24  C   UNL     1      14.172   9.292  29.532  0.00  0.00    -0.096 C 
ATOM     25  H   UNL     1      12.943  10.917  29.032  0.00  0.00    -0.082 HD
ATOM     26  C   UNL     1      12.936   9.556  27.378  0.00  0.00    -0.064 C 
ATOM     27  C   UNL     1      11.642  10.134  26.741  0.00  0.00    +0.066 C 
ENDBRANCH  19  20
ENDBRANCH  18  19
ENDBRANCH  14  15
ENDBRANCH  12  13
TORSDOF 6
ENDMDL
MODEL 5
REMARK VINA RESULT:      -7.9     14.800     20.128
REMARK  Name = C:\Users\Docking\Desktop\test protocol\1iep_ligandH.pdb
REMARK  8 active torsions:
REMARK  status: ('A' for Active; 'I' for Inactive)
REMARK    1  A    between atoms: _5  and  _11
REMARK    2  A    between atoms: _19  and  _21
REMARK    3  A    between atoms: _22  and  _66
REMARK    4  A    between atoms: _27  and  _30
REMARK    5  A    between atoms: _32  and  _33
REMARK    6  A    between atoms: _38  and  _43
REMARK    7  A    between atoms: _43  and  _46
REMARK    8  A    between atoms: _53  and  _55
REMARK                            x       y       z     vdW  Elec       q    Type
REMARK                         _______ _______ _______ _____ _____    ______ ____
ROOT
ATOM     10  C   UNL     1       4.130   4.839  20.103  0.00  0.00    +0.038 A 
ATOM     11  C   UNL     1       5.168   5.264  20.971  0.00  0.00    +0.047 A 
ATOM     12  C   UNL     1       4.881   6.052  22.159  0.00  0.00    +0.035 A 
ATOM     32  C   UNL     1       3.523   6.389  22.434  0.00  0.00    +0.024 A 
ATOM     33  C   UNL     1       2.455   5.966  21.562  0.00  0.00    +0.007 A 
ATOM     34  C   UNL     1       2.733   5.190  20.388  0.00  0.00    -0.029 A 
ATOM     35  C   UNL     1       1.550   4.771  19.485  0.00  0.00    +0.045 C 
ENDROOT
BRANCH  10   9
ATOM      4  C   UNL     1       5.196   4.437  15.441  0.00  0.00    +0.077 A 
ATOM      5  C   UNL     1       5.050   5.848  15.225  0.00  0.00    +0.048 A 
ATOM      6  C   UNL     1       4.694   6.641  16.339  0.00  0.00    +0.116 A 
ATOM      7  N   UNL     1       4.499   6.056  17.571  0.00  0.00    -0.223 NA
ATOM      8  C   UNL     1       4.646   4.692  17.744  0.00  0.00    +0.220 A 
ATOM      9  N   UNL     1       4.463   4.084  18.977  0.00  0.00    -0.283 N 
ATOM     36  H   UNL     1       4.573   3.074  19.062  0.00  0.00    +0.155 HD
ATOM     37  N   UNL     1       4.984   3.913  16.696  0.00  0.00    -0.214 NA
BRANCH   4   3
ATOM      1  C   UNL     1       6.321   2.908  12.021  0.00  0.00    +0.020 A 
ATOM      2  C   UNL     1       5.967   3.885  13.024  0.00  0.00    +0.013 A 
ATOM      3  C   UNL     1       5.572   3.467  14.364  0.00  0.00    +0.019 A 
ATOM     38  C   UNL     1       5.547   2.042  14.657  0.00  0.00    +0.120 A 
ATOM     39  N   UNL     1       5.892   1.125  13.670  0.00  0.00    -0.263 NA
ATOM     40  C   UNL     1       6.272   1.515  12.377  0.00  0.00    +0.111 A 
ENDBRANCH   4   3
ENDBRANCH  10   9
BRANCH  12  13
ATOM     13  N   UNL     1       5.894   6.519  23.073  0.00  0.00    -0.281 N 
ATOM     14  C   UNL     1       6.372   7.810  23.227  0.00  0.00    +0.248 C 
ATOM     30  O   UNL     1       6.151   8.726  22.450  0.00  0.00    -0.270 OA
ATOM     31  H   UNL     1       6.310   5.811  23.679  0.00  0.00    +0.155 HD
BRANCH  14  15
ATOM     15  C   UNL     1       7.233   8.124  24.408  0.00  0.00    +0.037 A 
ATOM     16  C   UNL     1       7.326   7.206  25.546  0.00  0.00    +0.013 A 
ATOM     17  C   UNL     1       8.150   7.542  26.680  0.00  0.00    +0.005 A 
ATOM     18  C   UNL     1       8.890   8.802  26.681  0.00  0.00    -0.033 A 
ATOM     28  C   UNL     1       8.783   9.691  25.536  0.00  0.00    +0.005 A 
ATOM     29  C   UNL     1       7.976   9.366  24.423  0.00  0.00    +0.013 A 
BRANCH  18  19
ATOM     19  C   UNL     1       9.777   9.251  27.857  0.00  0.00    +0.119 C 
BRANCH  19  20
ATOM     20  N   UNL     1       9.095   9.555  29.150  0.00  0.00    -0.302 NA
ATOM     21  C   UNL     1       8.191  10.787  29.047  0.00  0.00    +0.066 C 
ATOM     22  C   UNL     1       7.468  11.078  30.402  0.00  0.00    -0.064 C 
ATOM     23  N   UNL     1       8.512  11.264  31.504  0.00  0.00    +0.379 N 
ATOM     24  C   UNL     1       7.838  11.594  32.768  0.00  0.00    -0.096 C 
ATOM     25  H   UNL     1       9.149  12.134  31.223  0.00  0.00    -0.082 HD
ATOM     26  C   UNL     1       9.417  10.044  31.612  0.00  0.00    -0.064 C 
ATOM     27  C   UNL     1      10.108   9.747  30.252  0.00  0.00    +0.066 C 
ENDBRANCH  19  20
ENDBRANCH  18  19
ENDBRANCH  14  15
ENDBRANCH  12  13
TORSDOF 6
ENDMDL
