MODEL 1
REMARK VINA RESULT:      -8.5      0.000      0.000
REMARK  Name = C:\Users\Docking\Desktop\test protocol\1iep_ligandH.pdb
REMARK  8 active torsions:
REMARK  status: ('A' for Active; 'I' for Inactive)
REMARK    1  A    between atoms: _5  and  _11
REMARK    2  A    between atoms: _19  and  _21
REMARK    3  A    between atoms: _22  and  _66
REMARK    4  A    between atoms: _27  and  _30
REMARK    5  A    between atoms: _32  and  _33
REMARK    6  A    between atoms: _38  and  _43
REMARK    7  A    between atoms: _43  and  _46
REMARK    8  A    between atoms: _53  and  _55
REMARK                            x       y       z     vdW  Elec       q    Type
REMARK                         _______ _______ _______ _____ _____    ______ ____
ROOT
ATOM     10  C   UNL     1      18.289  29.059  11.364  0.00  0.00    +0.038 A 
ATOM     11  C   UNL     1      17.694  27.774  11.285  0.00  0.00    +0.047 A 
ATOM     12  C   UNL     1      17.982  26.878  10.176  0.00  0.00    +0.035 A 
ATOM     32  C   UNL     1      18.883  27.323   9.165  0.00  0.00    +0.024 A 
ATOM     33  C   UNL     1      19.495  28.627   9.228  0.00  0.00    +0.007 A 
ATOM     34  C   UNL     1      19.213  29.516  10.319  0.00  0.00    -0.029 A 
ATOM     35  C   UNL     1      19.893  30.905  10.333  0.00  0.00    +0.045 C 
ENDROOT
BRANCH  10   9
ATOM      4  C   UNL     1      15.620  32.431  13.495  0.00  0.00    +0.077 A 
ATOM      5  C   UNL     1      14.793  32.595  12.334  0.00  0.00    +0.048 A 
ATOM      6  C   UNL     1      15.093  31.797  11.207  0.00  0.00    +0.116 A 
ATOM      7  N   UNL     1      16.142  30.906  11.249  0.00  0.00    -0.223 NA
ATOM      8  C   UNL     1      16.921  30.774  12.385  0.00  0.00    +0.220 A 
ATOM      9  N   UNL     1      17.977  29.878  12.452  0.00  0.00    -0.283 N 
ATOM     36  H   UNL     1      18.532  29.816  13.305  0.00  0.00    +0.155 HD
ATOM     37  N   UNL     1      16.656  31.525  13.474  0.00  0.00    -0.214 NA
BRANCH   4   3
ATOM      1  C   UNL     1      14.507  33.467  17.100  0.00  0.00    +0.020 A 
ATOM      2  C   UNL     1      14.663  32.685  15.895  0.00  0.00    +0.013 A 
ATOM      3  C   UNL     1      15.427  33.200  14.766  0.00  0.00    +0.019 A 
ATOM     38  C   UNL     1      16.027  34.520  14.889  0.00  0.00    +0.120 A 
ATOM     39  N   UNL     1      15.859  35.251  16.061  0.00  0.00    -0.263 NA
ATOM     40  C   UNL     1      15.124  34.767  17.153  0.00  0.00    +0.111 A 
ENDBRANCH   4   3
ENDBRANCH  10   9
BRANCH  12  13
ATOM     13  N   UNL     1      17.402  25.565  10.039  0.00  0.00    -0.281 N 
ATOM     14  C   UNL     1      17.691  24.426  10.771  0.00  0.00    +0.248 C 
ATOM     30  O   UNL     1      18.651  24.309  11.518  0.00  0.00    -0.270 OA
ATOM     31  H   UNL     1      16.692  25.464   9.313  0.00  0.00    +0.155 HD
BRANCH  14  15
ATOM     15  C   UNL     1      16.792  23.239  10.645  0.00  0.00    +0.037 A 
ATOM     16  C   UNL     1      16.389  22.727   9.332  0.00  0.00    +0.013 A 
ATOM     17  C   UNL     1      15.507  21.591   9.239  0.00  0.00    +0.005 A 
ATOM     18  C   UNL     1      15.023  20.957  10.463  0.00  0.00    -0.033 A 
ATOM     28  C   UNL     1      15.443  21.482  11.752  0.00  0.00    +0.005 A 
ATOM     29  C   UNL     1      16.307  22.596  11.847  0.00  0.00    +0.013 A 
BRANCH  18  19
ATOM     19  C   UNL     1      14.062  19.753  10.458  0.00  0.00    +0.119 C 
BRANCH  19  20
ATOM     20  N   UNL     1      12.641  20.011  10.836  0.00  0.00    -0.302 NA
ATOM     21  C   UNL     1      11.738  18.814  10.528  0.00  0.00    +0.066 C 
ATOM     22  C   UNL     1      10.259  19.092  10.950  0.00  0.00    -0.064 C 
ATOM     23  N   UNL     1       9.755  20.348  10.236  0.00  0.00    +0.379 N 
ATOM     24  C   UNL     1       8.346  20.580  10.585  0.00  0.00    -0.096 C 
ATOM     25  H   UNL     1       9.804  20.155   9.139  0.00  0.00    -0.082 HD
ATOM     26  C   UNL     1      10.649  21.543  10.534  0.00  0.00    -0.064 C 
ATOM     27  C   UNL     1      12.122  21.245  10.138  0.00  0.00    +0.066 C 
ENDBRANCH  19  20
ENDBRANCH  18  19
ENDBRANCH  14  15
ENDBRANCH  12  13
TORSDOF 6
ENDMDL
MODEL 2
REMARK VINA RESULT:      -7.9      5.728      8.072
REMARK  Name = C:\Users\Docking\Desktop\test protocol\1iep_ligandH.pdb
REMARK  8 active torsions:
REMARK  status: ('A' for Active; 'I' for Inactive)
REMARK    1  A    between atoms: _5  and  _11
REMARK    2  A    between atoms: _19  and  _21
REMARK    3  A    between atoms: _22  and  _66
REMARK    4  A    between atoms: _27  and  _30
REMARK    5  A    between atoms: _32  and  _33
REMARK    6  A    between atoms: _38  and  _43
REMARK    7  A    between atoms: _43  and  _46
REMARK    8  A    between atoms: _53  and  _55
REMARK                            x       y       z     vdW  Elec       q    Type
REMARK                         _______ _______ _______ _____ _____    ______ ____
ROOT
ATOM     10  C   UNL     1      17.983  30.504  13.327  0.00  0.00    +0.038 A 
ATOM     11  C   UNL     1      18.407  29.335  14.009  0.00  0.00    +0.047 A 
ATOM     12  C   UNL     1      18.244  28.017  13.417  0.00  0.00    +0.035 A 
ATOM     32  C   UNL     1      17.646  27.925  12.126  0.00  0.00    +0.024 A 
ATOM     33  C   UNL     1      17.208  29.103  11.419  0.00  0.00    +0.007 A 
ATOM     34  C   UNL     1      17.364  30.406  11.999  0.00  0.00    -0.029 A 
ATOM     35  C   UNL     1      16.870  31.633  11.199  0.00  0.00    +0.045 C 
ENDROOT
BRANCH  10   9
ATOM      4  C   UNL     1      16.605  33.974  16.343  0.00  0.00    +0.077 A 
ATOM      5  C   UNL     1      15.409  33.268  16.702  0.00  0.00    +0.048 A 
ATOM      6  C   UNL     1      15.182  32.018  16.083  0.00  0.00    +0.116 A 
ATOM      7  N   UNL     1      16.090  31.521  15.174  0.00  0.00    -0.223 NA
ATOM      8  C   UNL     1      17.233  32.229  14.848  0.00  0.00    +0.220 A 
ATOM      9  N   UNL     1      18.164  31.744  13.943  0.00  0.00    -0.283 N 
ATOM     36  H   UNL     1      18.991  32.300  13.724  0.00  0.00    +0.155 HD
ATOM     37  N   UNL     1      17.472  33.425  15.425  0.00  0.00    -0.214 NA
BRANCH   4   3
ATOM      1  C   UNL     1      16.533  37.734  17.418  0.00  0.00    +0.020 A 
ATOM      2  C   UNL     1      16.117  36.472  16.851  0.00  0.00    +0.013 A 
ATOM      3  C   UNL     1      16.986  35.304  16.914  0.00  0.00    +0.019 A 
ATOM     38  C   UNL     1      18.280  35.448  17.564  0.00  0.00    +0.120 A 
ATOM     39  N   UNL     1      18.655  36.676  18.100  0.00  0.00    -0.263 NA
ATOM     40  C   UNL     1      17.827  37.807  18.044  0.00  0.00    +0.111 A 
ENDBRANCH   4   3
ENDBRANCH  10   9
BRANCH  12  13
ATOM     13  N   UNL     1      18.648  26.794  14.065  0.00  0.00    -0.281 N 
ATOM     14  C   UNL     1      19.822  26.081  13.883  0.00  0.00    +0.248 C 
ATOM     30  O   UNL     1      20.613  26.274  12.972  0.00  0.00    -0.270 OA
ATOM     31  H   UNL     1      17.989  26.407  14.741  0.00  0.00    +0.155 HD
BRANCH  14  15
ATOM     15  C   UNL     1      20.158  24.986  14.843  0.00  0.00    +0.037 A 
ATOM     16  C   UNL     1      20.372  25.262  16.266  0.00  0.00    +0.013 A 
ATOM     17  C   UNL     1      20.712  24.190  17.167  0.00  0.00    +0.005 A 
ATOM     18  C   UNL     1      20.839  22.830  16.648  0.00  0.00    -0.033 A 
ATOM     28  C   UNL     1      20.616  22.584  15.233  0.00  0.00    +0.005 A 
ATOM     29  C   UNL     1      20.284  23.632  14.346  0.00  0.00    +0.013 A 
BRANCH  18  19
ATOM     19  C   UNL     1      21.219  21.629  17.533  0.00  0.00    +0.119 C 
BRANCH  19  20
ATOM     20  N   UNL     1      22.641  21.173  17.494  0.00  0.00    -0.302 NA
ATOM     21  C   UNL     1      22.819  19.919  16.634  0.00  0.00    +0.066 C 
ATOM     22  C   UNL     1      24.315  19.469  16.585  0.00  0.00    -0.064 C 
ATOM     23  N   UNL     1      24.818  19.225  18.009  0.00  0.00    +0.379 N 
ATOM     24  C   UNL     1      26.207  18.746  17.963  0.00  0.00    -0.096 C 
ATOM     25  H   UNL     1      24.195  18.414  18.453  0.00  0.00    -0.082 HD
ATOM     26  C   UNL     1      24.642  20.467  18.872  0.00  0.00    -0.064 C 
ATOM     27  C   UNL     1      23.157  20.922  18.889  0.00  0.00    +0.066 C 
ENDBRANCH  19  20
ENDBRANCH  18  19
ENDBRANCH  14  15
ENDBRANCH  12  13
TORSDOF 6
ENDMDL
MODEL 3
REMARK VINA RESULT:      -7.7      5.928      8.320
REMARK  Name = C:\Users\Docking\Desktop\test protocol\1iep_ligandH.pdb
REMARK  8 active torsions:
REMARK  status: ('A' for Active; 'I' for Inactive)
REMARK    1  A    between atoms: _5  and  _11
REMARK    2  A    between atoms: _19  and  _21
REMARK    3  A    between atoms: _22  and  _66
REMARK    4  A    between atoms: _27  and  _30
REMARK    5  A    between atoms: _32  and  _33
REMARK    6  A    between atoms: _38  and  _43
REMARK    7  A    between atoms: _43  and  _46
REMARK    8  A    between atoms: _53  and  _55
REMARK                            x       y       z     vdW  Elec       q    Type
REMARK                         _______ _______ _______ _____ _____    ______ ____
ROOT
ATOM     10  C   UNL     1      18.033  30.415  13.355  0.00  0.00    +0.038 A 
ATOM     11  C   UNL     1      18.499  29.254  14.023  0.00  0.00    +0.047 A 
ATOM     12  C   UNL     1      18.342  27.933  13.436  0.00  0.00    +0.035 A 
ATOM     32  C   UNL     1      17.707  27.830  12.164  0.00  0.00    +0.024 A 
ATOM     33  C   UNL     1      17.226  28.999  11.471  0.00  0.00    +0.007 A 
ATOM     34  C   UNL     1      17.376  30.305  12.047  0.00  0.00    -0.029 A 
ATOM     35  C   UNL     1      16.835  31.523  11.262  0.00  0.00    +0.045 C 
ENDROOT
BRANCH  10   9
ATOM      4  C   UNL     1      16.627  33.908  16.331  0.00  0.00    +0.077 A 
ATOM      5  C   UNL     1      15.424  33.207  16.680  0.00  0.00    +0.048 A 
ATOM      6  C   UNL     1      15.201  31.955  16.066  0.00  0.00    +0.116 A 
ATOM      7  N   UNL     1      16.120  31.449  15.171  0.00  0.00    -0.223 NA
ATOM      8  C   UNL     1      17.269  32.151  14.856  0.00  0.00    +0.220 A 
ATOM      9  N   UNL     1      18.210  31.658  13.965  0.00  0.00    -0.283 N 
ATOM     36  H   UNL     1      19.041  32.210  13.753  0.00  0.00    +0.155 HD
ATOM     37  N   UNL     1      17.504  33.350  15.428  0.00  0.00    -0.214 NA
BRANCH   4   3
ATOM      1  C   UNL     1      16.548  37.672  17.390  0.00  0.00    +0.020 A 
ATOM      2  C   UNL     1      16.135  36.408  16.826  0.00  0.00    +0.013 A 
ATOM      3  C   UNL     1      17.005  35.240  16.899  0.00  0.00    +0.019 A 
ATOM     38  C   UNL     1      18.295  35.387  17.556  0.00  0.00    +0.120 A 
ATOM     39  N   UNL     1      18.666  36.617  18.089  0.00  0.00    -0.263 NA
ATOM     40  C   UNL     1      17.839  37.748  18.023  0.00  0.00    +0.111 A 
ENDBRANCH   4   3
ENDBRANCH  10   9
BRANCH  12  13
ATOM     13  N   UNL     1      18.789  26.718  14.071  0.00  0.00    -0.281 N 
ATOM     14  C   UNL     1      20.091  26.300  14.289  0.00  0.00    +0.248 C 
ATOM     30  O   UNL     1      21.076  26.810  13.775  0.00  0.00    -0.270 OA
ATOM     31  H   UNL     1      18.055  26.090  14.401  0.00  0.00    +0.155 HD
BRANCH  14  15
ATOM     15  C   UNL     1      20.335  25.137  15.196  0.00  0.00    +0.037 A 
ATOM     16  C   UNL     1      19.709  25.062  16.519  0.00  0.00    +0.013 A 
ATOM     17  C   UNL     1      19.974  23.938  17.381  0.00  0.00    +0.005 A 
ATOM     18  C   UNL     1      20.869  22.878  16.922  0.00  0.00    -0.033 A 
ATOM     28  C   UNL     1      21.471  22.975  15.603  0.00  0.00    +0.005 A 
ATOM     29  C   UNL     1      21.215  24.076  14.755  0.00  0.00    +0.013 A 
BRANCH  18  19
ATOM     19  C   UNL     1      21.225  21.652  17.783  0.00  0.00    +0.119 C 
BRANCH  19  20
ATOM     20  N   UNL     1      22.024  21.895  19.021  0.00  0.00    -0.302 NA
ATOM     21  C   UNL     1      21.138  22.259  20.215  0.00  0.00    +0.066 C 
ATOM     22  C   UNL     1      21.988  22.488  21.507  0.00  0.00    -0.064 C 
ATOM     23  N   UNL     1      23.022  23.584  21.246  0.00  0.00    +0.379 N 
ATOM     24  C   UNL     1      23.785  23.842  22.476  0.00  0.00    -0.096 C 
ATOM     25  H   UNL     1      22.468  24.517  20.989  0.00  0.00    -0.082 HD
ATOM     26  C   UNL     1      23.906  23.231  20.058  0.00  0.00    -0.064 C 
ATOM     27  C   UNL     1      23.049  22.977  18.787  0.00  0.00    +0.066 C 
ENDBRANCH  19  20
ENDBRANCH  18  19
ENDBRANCH  14  15
ENDBRANCH  12  13
TORSDOF 6
ENDMDL
MODEL 4
REMARK VINA RESULT:      -7.7      7.839     16.009
REMARK  Name = C:\Users\Docking\Desktop\test protocol\1iep_ligandH.pdb
REMARK  8 active torsions:
REMARK  status: ('A' for Active; 'I' for Inactive)
REMARK    1  A    between atoms: _5  and  _11
REMARK    2  A    between atoms: _19  and  _21
REMARK    3  A    between atoms: _22  and  _66
REMARK    4  A    between atoms: _27  and  _30
REMARK    5  A    between atoms: _32  and  _33
REMARK    6  A    between atoms: _38  and  _43
REMARK    7  A    between atoms: _43  and  _46
REMARK    8  A    between atoms: _53  and  _55
REMARK                            x       y       z     vdW  Elec       q    Type
REMARK                         _______ _______ _______ _____ _____    ______ ____
ROOT
ATOM     10  C   UNL     1      16.606  33.872  15.214  0.00  0.00    +0.038 A 
ATOM     11  C   UNL     1      16.479  35.245  15.546  0.00  0.00    +0.047 A 
ATOM     12  C   UNL     1      15.948  35.662  16.834  0.00  0.00    +0.035 A 
ATOM     32  C   UNL     1      15.558  34.654  17.763  0.00  0.00    +0.024 A 
ATOM     33  C   UNL     1      15.680  33.253  17.442  0.00  0.00    +0.007 A 
ATOM     34  C   UNL     1      16.200  32.836  16.172  0.00  0.00    -0.029 A 
ATOM     35  C   UNL     1      16.302  31.321  15.879  0.00  0.00    +0.045 C 
ENDROOT
BRANCH  10   9
ATOM      4  C   UNL     1      16.080  32.363  10.688  0.00  0.00    +0.077 A 
ATOM      5  C   UNL     1      14.660  32.223  10.838  0.00  0.00    +0.048 A 
ATOM      6  C   UNL     1      14.105  32.542  12.097  0.00  0.00    +0.116 A 
ATOM      7  N   UNL     1      14.919  32.970  13.124  0.00  0.00    -0.223 NA
ATOM      8  C   UNL     1      16.285  33.092  12.947  0.00  0.00    +0.220 A 
ATOM      9  N   UNL     1      17.122  33.528  13.963  0.00  0.00    -0.283 N 
ATOM     36  H   UNL     1      18.125  33.598  13.795  0.00  0.00    +0.155 HD
ATOM     37  N   UNL     1      16.839  32.792  11.754  0.00  0.00    -0.214 NA
BRANCH   4   3
ATOM      1  C   UNL     1      17.154  32.290   6.928  0.00  0.00    +0.020 A 
ATOM      2  C   UNL     1      16.410  32.607   8.125  0.00  0.00    +0.013 A 
ATOM      3  C   UNL     1      16.814  32.067   9.418  0.00  0.00    +0.019 A 
ATOM     38  C   UNL     1      17.984  31.204   9.464  0.00  0.00    +0.120 A 
ATOM     39  N   UNL     1      18.680  30.915   8.294  0.00  0.00    -0.263 NA
ATOM     40  C   UNL     1      18.300  31.428   7.045  0.00  0.00    +0.111 A 
ENDBRANCH   4   3
ENDBRANCH  10   9
BRANCH  12  13
ATOM     13  N   UNL     1      15.788  37.042  17.223  0.00  0.00    -0.281 N 
ATOM     14  C   UNL     1      16.775  38.002  17.381  0.00  0.00    +0.248 C 
ATOM     30  O   UNL     1      17.972  37.762  17.419  0.00  0.00    -0.270 OA
ATOM     31  H   UNL     1      14.832  37.348  17.404  0.00  0.00    +0.155 HD
BRANCH  14  15
ATOM     15  C   UNL     1      16.372  39.433  17.534  0.00  0.00    +0.037 A 
ATOM     16  C   UNL     1      15.629  39.892  18.710  0.00  0.00    +0.013 A 
ATOM     17  C   UNL     1      15.238  41.274  18.824  0.00  0.00    +0.005 A 
ATOM     18  C   UNL     1      15.590  42.209  17.758  0.00  0.00    -0.033 A 
ATOM     28  C   UNL     1      16.332  41.728  16.604  0.00  0.00    +0.005 A 
ATOM     29  C   UNL     1      16.716  40.373  16.489  0.00  0.00    +0.013 A 
BRANCH  18  19
ATOM     19  C   UNL     1      15.195  43.697  17.786  0.00  0.00    +0.119 C 
BRANCH  19  20
ATOM     20  N   UNL     1      13.836  44.054  17.281  0.00  0.00    -0.302 NA
ATOM     21  C   UNL     1      13.877  45.230  16.301  0.00  0.00    +0.066 C 
ATOM     22  C   UNL     1      12.449  45.575  15.765  0.00  0.00    -0.064 C 
ATOM     23  N   UNL     1      11.526  45.884  16.945  0.00  0.00    +0.379 N 
ATOM     24  C   UNL     1      10.198  46.266  16.442  0.00  0.00    -0.096 C 
ATOM     25  H   UNL     1      11.949  46.764  17.483  0.00  0.00    -0.082 HD
ATOM     26  C   UNL     1      11.481  44.721  17.926  0.00  0.00    -0.064 C 
ATOM     27  C   UNL     1      12.908  44.367  18.429  0.00  0.00    +0.066 C 
ENDBRANCH  19  20
ENDBRANCH  18  19
ENDBRANCH  14  15
ENDBRANCH  12  13
TORSDOF 6
ENDMDL
MODEL 5
REMARK VINA RESULT:      -7.6     12.201     15.339
REMARK  Name = C:\Users\Docking\Desktop\test protocol\1iep_ligandH.pdb
REMARK  8 active torsions:
REMARK  status: ('A' for Active; 'I' for Inactive)
REMARK    1  A    between atoms: _5  and  _11
REMARK    2  A    between atoms: _19  and  _21
REMARK    3  A    between atoms: _22  and  _66
REMARK    4  A    between atoms: _27  and  _30
REMARK    5  A    between atoms: _32  and  _33
REMARK    6  A    between atoms: _38  and  _43
REMARK    7  A    between atoms: _43  and  _46
REMARK    8  A    between atoms: _53  and  _55
REMARK                            x       y       z     vdW  Elec       q    Type
REMARK                         _______ _______ _______ _____ _____    ______ ____
ROOT
ATOM     10  C   UNL     1      21.330  23.018  17.762  0.00  0.00    +0.038 A 
ATOM     11  C   UNL     1      20.636  22.308  18.775  0.00  0.00    +0.047 A 
ATOM     12  C   UNL     1      20.434  22.886  20.095  0.00  0.00    +0.035 A 
ATOM     32  C   UNL     1      20.952  24.189  20.348  0.00  0.00    +0.024 A 
ATOM     33  C   UNL     1      21.661  24.924  19.330  0.00  0.00    +0.007 A 
ATOM     34  C   UNL     1      21.865  24.359  18.027  0.00  0.00    -0.029 A 
ATOM     35  C   UNL     1      22.639  25.189  16.977  0.00  0.00    +0.045 C 
ENDROOT
BRANCH  10   9
ATOM      4  C   UNL     1      23.391  19.808  14.848  0.00  0.00    +0.077 A 
ATOM      5  C   UNL     1      24.231  19.306  15.898  0.00  0.00    +0.048 A 
ATOM      6  C   UNL     1      24.106  19.906  17.171  0.00  0.00    +0.116 A 
ATOM      7  N   UNL     1      23.206  20.931  17.369  0.00  0.00    -0.223 NA
ATOM      8  C   UNL     1      22.412  21.392  16.334  0.00  0.00    +0.220 A 
ATOM      9  N   UNL     1      21.495  22.416  16.512  0.00  0.00    -0.283 N 
ATOM     36  H   UNL     1      20.933  22.733  15.722  0.00  0.00    +0.155 HD
ATOM     37  N   UNL     1      22.513  20.837  15.109  0.00  0.00    -0.214 NA
BRANCH   4   3
ATOM      1  C   UNL     1      22.439  19.066  11.128  0.00  0.00    +0.020 A 
ATOM      2  C   UNL     1      22.380  19.607  12.466  0.00  0.00    +0.013 A 
ATOM      3  C   UNL     1      23.404  19.275  13.449  0.00  0.00    +0.019 A 
ATOM     38  C   UNL     1      24.482  18.387  13.043  0.00  0.00    +0.120 A 
ATOM     39  N   UNL     1      24.512  17.880  11.748  0.00  0.00    -0.263 NA
ATOM     40  C   UNL     1      23.532  18.191  10.793  0.00  0.00    +0.111 A 
ENDBRANCH   4   3
ENDBRANCH  10   9
BRANCH  12  13
ATOM     13  N   UNL     1      19.744  22.210  21.165  0.00  0.00    -0.281 N 
ATOM     14  C   UNL     1      20.223  21.905  22.429  0.00  0.00    +0.248 C 
ATOM     30  O   UNL     1      21.398  21.979  22.759  0.00  0.00    -0.270 OA
ATOM     31  H   UNL     1      18.786  21.921  20.967  0.00  0.00    +0.155 HD
BRANCH  14  15
ATOM     15  C   UNL     1      19.261  21.436  23.472  0.00  0.00    +0.037 A 
ATOM     16  C   UNL     1      19.229  22.045  24.804  0.00  0.00    +0.013 A 
ATOM     17  C   UNL     1      18.303  21.563  25.798  0.00  0.00    +0.005 A 
ATOM     18  C   UNL     1      17.399  20.466  25.461  0.00  0.00    -0.033 A 
ATOM     28  C   UNL     1      17.448  19.884  24.131  0.00  0.00    +0.005 A 
ATOM     29  C   UNL     1      18.356  20.353  23.155  0.00  0.00    +0.013 A 
BRANCH  18  19
ATOM     19  C   UNL     1      16.392  19.874  26.466  0.00  0.00    +0.119 C 
BRANCH  19  20
ATOM     20  N   UNL     1      16.929  19.414  27.781  0.00  0.00    -0.302 NA
ATOM     21  C   UNL     1      17.557  18.020  27.691  0.00  0.00    +0.066 C 
ATOM     22  C   UNL     1      18.133  17.565  29.071  0.00  0.00    -0.064 C 
ATOM     23  N   UNL     1      17.019  17.590  30.119  0.00  0.00    +0.379 N 
ATOM     24  C   UNL     1      17.544  17.107  31.404  0.00  0.00    -0.096 C 
ATOM     25  H   UNL     1      16.227  16.879  29.788  0.00  0.00    -0.082 HD
ATOM     26  C   UNL     1      16.388  18.972  30.214  0.00  0.00    -0.064 C 
ATOM     27  C   UNL     1      15.845  19.427  28.831  0.00  0.00    +0.066 C 
ENDBRANCH  19  20
ENDBRANCH  18  19
ENDBRANCH  14  15
ENDBRANCH  12  13
TORSDOF 6
ENDMDL
