MODEL 1
REMARK VINA RESULT:      -8.5      0.000      0.000
REMARK  Name = C:\Users\Docking\Desktop\test protocol\1iep_ligandH.pdb
REMARK  8 active torsions:
REMARK  status: ('A' for Active; 'I' for Inactive)
REMARK    1  A    between atoms: _5  and  _11
REMARK    2  A    between atoms: _19  and  _21
REMARK    3  A    between atoms: _22  and  _66
REMARK    4  A    between atoms: _27  and  _30
REMARK    5  A    between atoms: _32  and  _33
REMARK    6  A    between atoms: _38  and  _43
REMARK    7  A    between atoms: _43  and  _46
REMARK    8  A    between atoms: _53  and  _55
REMARK                            x       y       z     vdW  Elec       q    Type
REMARK                         _______ _______ _______ _____ _____    ______ ____
ROOT
ATOM     10  C   UNL     1      18.638  21.146  24.637  0.00  0.00    +0.038 A 
ATOM     11  C   UNL     1      19.547  20.122  25.007  0.00  0.00    +0.047 A 
ATOM     12  C   UNL     1      20.975  20.261  24.767  0.00  0.00    +0.035 A 
ATOM     32  C   UNL     1      21.443  21.458  24.149  0.00  0.00    +0.024 A 
ATOM     33  C   UNL     1      20.532  22.508  23.765  0.00  0.00    +0.007 A 
ATOM     34  C   UNL     1      19.122  22.375  23.998  0.00  0.00    -0.029 A 
ATOM     35  C   UNL     1      18.192  23.530  23.560  0.00  0.00    +0.045 C 
ENDROOT
BRANCH  10   9
ATOM      4  C   UNL     1      14.955  20.382  27.619  0.00  0.00    +0.077 A 
ATOM      5  C   UNL     1      15.818  20.323  28.764  0.00  0.00    +0.048 A 
ATOM      6  C   UNL     1      17.204  20.486  28.542  0.00  0.00    +0.116 A 
ATOM      7  N   UNL     1      17.680  20.694  27.265  0.00  0.00    -0.223 NA
ATOM      8  C   UNL     1      16.821  20.744  26.183  0.00  0.00    +0.220 A 
ATOM      9  N   UNL     1      17.277  20.959  24.892  0.00  0.00    -0.283 N 
ATOM     36  H   UNL     1      16.612  20.982  24.119  0.00  0.00    +0.155 HD
ATOM     37  N   UNL     1      15.493  20.589  26.369  0.00  0.00    -0.214 NA
BRANCH   4   3
ATOM      1  C   UNL     1      11.285  20.178  28.957  0.00  0.00    +0.020 A 
ATOM      2  C   UNL     1      12.722  20.331  28.941  0.00  0.00    +0.013 A 
ATOM      3  C   UNL     1      13.468  20.231  27.693  0.00  0.00    +0.019 A 
ATOM     38  C   UNL     1      12.724  19.973  26.469  0.00  0.00    +0.120 A 
ATOM     39  N   UNL     1      11.341  19.829  26.515  0.00  0.00    -0.263 NA
ATOM     40  C   UNL     1      10.613  19.921  27.711  0.00  0.00    +0.111 A 
ENDBRANCH   4   3
ENDBRANCH  10   9
BRANCH  12  13
ATOM     13  N   UNL     1      21.945  19.252  25.114  0.00  0.00    -0.281 N 
ATOM     14  C   UNL     1      22.458  18.959  26.367  0.00  0.00    +0.248 C 
ATOM     30  O   UNL     1      22.318  19.666  27.354  0.00  0.00    -0.270 OA
ATOM     31  H   UNL     1      22.297  18.686  24.342  0.00  0.00    +0.155 HD
BRANCH  14  15
ATOM     15  C   UNL     1      23.253  17.707  26.547  0.00  0.00    +0.037 A 
ATOM     16  C   UNL     1      23.117  16.886  27.753  0.00  0.00    +0.013 A 
ATOM     17  C   UNL     1      23.909  15.692  27.908  0.00  0.00    +0.005 A 
ATOM     18  C   UNL     1      24.844  15.310  26.853  0.00  0.00    -0.033 A 
ATOM     28  C   UNL     1      24.956  16.139  25.665  0.00  0.00    +0.005 A 
ATOM     29  C   UNL     1      24.182  17.311  25.509  0.00  0.00    +0.013 A 
BRANCH  18  19
ATOM     19  C   UNL     1      25.744  14.063  26.944  0.00  0.00    +0.119 C 
BRANCH  19  20
ATOM     20  N   UNL     1      26.756  13.870  25.863  0.00  0.00    -0.302 NA
ATOM     21  C   UNL     1      26.355  12.755  24.893  0.00  0.00    +0.066 C 
ATOM     22  C   UNL     1      27.414  12.582  23.756  0.00  0.00    -0.064 C 
ATOM     23  N   UNL     1      28.783  12.295  24.376  0.00  0.00    +0.379 N 
ATOM     24  C   UNL     1      29.769  12.074  23.308  0.00  0.00    -0.096 C 
ATOM     25  H   UNL     1      28.698  11.349  24.959  0.00  0.00    -0.082 HD
ATOM     26  C   UNL     1      29.187  13.398  25.344  0.00  0.00    -0.064 C 
ATOM     27  C   UNL     1      28.114  13.582  26.453  0.00  0.00    +0.066 C 
ENDBRANCH  19  20
ENDBRANCH  18  19
ENDBRANCH  14  15
ENDBRANCH  12  13
TORSDOF 6
ENDMDL
MODEL 2
REMARK VINA RESULT:      -8.5      5.903      9.606
REMARK  Name = C:\Users\Docking\Desktop\test protocol\1iep_ligandH.pdb
REMARK  8 active torsions:
REMARK  status: ('A' for Active; 'I' for Inactive)
REMARK    1  A    between atoms: _5  and  _11
REMARK    2  A    between atoms: _19  and  _21
REMARK    3  A    between atoms: _22  and  _66
REMARK    4  A    between atoms: _27  and  _30
REMARK    5  A    between atoms: _32  and  _33
REMARK    6  A    between atoms: _38  and  _43
REMARK    7  A    between atoms: _43  and  _46
REMARK    8  A    between atoms: _53  and  _55
REMARK                            x       y       z     vdW  Elec       q    Type
REMARK                         _______ _______ _______ _____ _____    ______ ____
ROOT
ATOM     10  C   UNL     1      16.297  20.170  29.133  0.00  0.00    +0.038 A 
ATOM     11  C   UNL     1      17.170  20.575  28.091  0.00  0.00    +0.047 A 
ATOM     12  C   UNL     1      16.658  20.940  26.779  0.00  0.00    +0.035 A 
ATOM     32  C   UNL     1      15.250  20.883  26.564  0.00  0.00    +0.024 A 
ATOM     33  C   UNL     1      14.348  20.472  27.611  0.00  0.00    +0.007 A 
ATOM     34  C   UNL     1      14.848  20.109  28.907  0.00  0.00    -0.029 A 
ATOM     35  C   UNL     1      13.836  19.670  29.990  0.00  0.00    +0.045 C 
ENDROOT
BRANCH  10   9
ATOM      4  C   UNL     1      19.443  17.784  31.863  0.00  0.00    +0.077 A 
ATOM      5  C   UNL     1      20.030  17.138  30.725  0.00  0.00    +0.048 A 
ATOM      6  C   UNL     1      19.489  17.441  29.455  0.00  0.00    +0.116 A 
ATOM      7  N   UNL     1      18.439  18.326  29.344  0.00  0.00    -0.223 NA
ATOM      8  C   UNL     1      17.895  18.931  30.462  0.00  0.00    +0.220 A 
ATOM      9  N   UNL     1      16.844  19.831  30.373  0.00  0.00    -0.283 N 
ATOM     36  H   UNL     1      16.465  20.251  31.222  0.00  0.00    +0.155 HD
ATOM     37  N   UNL     1      18.393  18.658  31.686  0.00  0.00    -0.214 NA
BRANCH   4   3
ATOM      1  C   UNL     1      21.222  16.324  35.025  0.00  0.00    +0.020 A 
ATOM      2  C   UNL     1      20.805  16.487  33.652  0.00  0.00    +0.013 A 
ATOM      3  C   UNL     1      19.906  17.570  33.270  0.00  0.00    +0.019 A 
ATOM     38  C   UNL     1      19.446  18.477  34.310  0.00  0.00    +0.120 A 
ATOM     39  N   UNL     1      19.864  18.294  35.625  0.00  0.00    -0.263 NA
ATOM     40  C   UNL     1      20.727  17.255  36.004  0.00  0.00    +0.111 A 
ENDBRANCH   4   3
ENDBRANCH  10   9
BRANCH  12  13
ATOM     13  N   UNL     1      17.496  21.351  25.680  0.00  0.00    -0.281 N 
ATOM     14  C   UNL     1      18.325  22.459  25.610  0.00  0.00    +0.248 C 
ATOM     30  O   UNL     1      18.308  23.387  26.405  0.00  0.00    -0.270 OA
ATOM     31  H   UNL     1      17.476  20.753  24.854  0.00  0.00    +0.155 HD
BRANCH  14  15
ATOM     15  C   UNL     1      19.303  22.558  24.484  0.00  0.00    +0.037 A 
ATOM     16  C   UNL     1      20.746  22.471  24.723  0.00  0.00    +0.013 A 
ATOM     17  C   UNL     1      21.669  22.587  23.621  0.00  0.00    +0.005 A 
ATOM     18  C   UNL     1      21.151  22.790  22.271  0.00  0.00    -0.033 A 
ATOM     28  C   UNL     1      19.715  22.867  22.062  0.00  0.00    +0.005 A 
ATOM     29  C   UNL     1      18.807  22.755  23.139  0.00  0.00    +0.013 A 
BRANCH  18  19
ATOM     19  C   UNL     1      22.063  22.946  21.039  0.00  0.00    +0.119 C 
BRANCH  19  20
ATOM     20  N   UNL     1      21.413  23.327  19.750  0.00  0.00    -0.302 NA
ATOM     21  C   UNL     1      22.022  22.584  18.558  0.00  0.00    +0.066 C 
ATOM     22  C   UNL     1      21.314  22.977  17.220  0.00  0.00    -0.064 C 
ATOM     23  N   UNL     1      21.411  24.491  17.022  0.00  0.00    +0.379 N 
ATOM     24  C   UNL     1      20.797  24.857  15.737  0.00  0.00    -0.096 C 
ATOM     25  H   UNL     1      22.492  24.756  16.969  0.00  0.00    -0.082 HD
ATOM     26  C   UNL     1      20.810  25.238  18.205  0.00  0.00    -0.064 C 
ATOM     27  C   UNL     1      21.500  24.817  19.532  0.00  0.00    +0.066 C 
ENDBRANCH  19  20
ENDBRANCH  18  19
ENDBRANCH  14  15
ENDBRANCH  12  13
TORSDOF 6
ENDMDL
MODEL 3
REMARK VINA RESULT:      -8.4      1.643      2.458
REMARK  Name = C:\Users\Docking\Desktop\test protocol\1iep_ligandH.pdb
REMARK  8 active torsions:
REMARK  status: ('A' for Active; 'I' for Inactive)
REMARK    1  A    between atoms: _5  and  _11
REMARK    2  A    between atoms: _19  and  _21
REMARK    3  A    between atoms: _22  and  _66
REMARK    4  A    between atoms: _27  and  _30
REMARK    5  A    between atoms: _32  and  _33
REMARK    6  A    between atoms: _38  and  _43
REMARK    7  A    between atoms: _43  and  _46
REMARK    8  A    between atoms: _53  and  _55
REMARK                            x       y       z     vdW  Elec       q    Type
REMARK                         _______ _______ _______ _____ _____    ______ ____
ROOT
ATOM     10  C   UNL     1      18.646  21.134  24.631  0.00  0.00    +0.038 A 
ATOM     11  C   UNL     1      19.560  20.112  24.994  0.00  0.00    +0.047 A 
ATOM     12  C   UNL     1      20.986  20.255  24.746  0.00  0.00    +0.035 A 
ATOM     32  C   UNL     1      21.448  21.454  24.128  0.00  0.00    +0.024 A 
ATOM     33  C   UNL     1      20.533  22.502  23.751  0.00  0.00    +0.007 A 
ATOM     34  C   UNL     1      19.124  22.366  23.991  0.00  0.00    -0.029 A 
ATOM     35  C   UNL     1      18.189  23.519  23.560  0.00  0.00    +0.045 C 
ENDROOT
BRANCH  10   9
ATOM      4  C   UNL     1      14.978  20.383  27.634  0.00  0.00    +0.077 A 
ATOM      5  C   UNL     1      15.845  20.339  28.776  0.00  0.00    +0.048 A 
ATOM      6  C   UNL     1      17.230  20.506  28.547  0.00  0.00    +0.116 A 
ATOM      7  N   UNL     1      17.700  20.703  27.267  0.00  0.00    -0.223 NA
ATOM      8  C   UNL     1      16.837  20.739  26.187  0.00  0.00    +0.220 A 
ATOM      9  N   UNL     1      17.287  20.944  24.892  0.00  0.00    -0.283 N 
ATOM     36  H   UNL     1      16.619  20.957  24.122  0.00  0.00    +0.155 HD
ATOM     37  N   UNL     1      15.511  20.580  26.380  0.00  0.00    -0.214 NA
BRANCH   4   3
ATOM      1  C   UNL     1      11.311  20.199  28.983  0.00  0.00    +0.020 A 
ATOM      2  C   UNL     1      12.747  20.360  28.960  0.00  0.00    +0.013 A 
ATOM      3  C   UNL     1      13.492  20.226  27.714  0.00  0.00    +0.019 A 
ATOM     38  C   UNL     1      12.748  19.926  26.500  0.00  0.00    +0.120 A 
ATOM     39  N   UNL     1      11.366  19.774  26.553  0.00  0.00    -0.263 NA
ATOM     40  C   UNL     1      10.639  19.900  27.747  0.00  0.00    +0.111 A 
ENDBRANCH   4   3
ENDBRANCH  10   9
BRANCH  12  13
ATOM     13  N   UNL     1      21.961  19.248  25.086  0.00  0.00    -0.281 N 
ATOM     14  C   UNL     1      22.508  18.978  26.330  0.00  0.00    +0.248 C 
ATOM     30  O   UNL     1      22.400  19.706  27.305  0.00  0.00    -0.270 OA
ATOM     31  H   UNL     1      22.287  18.664  24.317  0.00  0.00    +0.155 HD
BRANCH  14  15
ATOM     15  C   UNL     1      23.301  17.725  26.513  0.00  0.00    +0.037 A 
ATOM     16  C   UNL     1      23.039  16.815  27.631  0.00  0.00    +0.013 A 
ATOM     17  C   UNL     1      23.831  15.622  27.794  0.00  0.00    +0.005 A 
ATOM     18  C   UNL     1      24.892  15.330  26.834  0.00  0.00    -0.033 A 
ATOM     28  C   UNL     1      25.128  16.247  25.731  0.00  0.00    +0.005 A 
ATOM     29  C   UNL     1      24.355  17.418  25.568  0.00  0.00    +0.013 A 
BRANCH  18  19
ATOM     19  C   UNL     1      25.800  14.091  26.942  0.00  0.00    +0.119 C 
BRANCH  19  20
ATOM     20  N   UNL     1      26.840  14.096  28.014  0.00  0.00    -0.302 NA
ATOM     21  C   UNL     1      26.258  13.716  29.379  0.00  0.00    +0.066 C 
ATOM     22  C   UNL     1      27.363  13.705  30.485  0.00  0.00    -0.064 C 
ATOM     23  N   UNL     1      28.035  15.078  30.545  0.00  0.00    +0.379 N 
ATOM     24  C   UNL     1      29.035  15.088  31.623  0.00  0.00    -0.096 C 
ATOM     25  H   UNL     1      27.251  15.826  30.804  0.00  0.00    -0.082 HD
ATOM     26  C   UNL     1      28.614  15.464  29.191  0.00  0.00    -0.064 C 
ATOM     27  C   UNL     1      27.513  15.444  28.094  0.00  0.00    +0.066 C 
ENDBRANCH  19  20
ENDBRANCH  18  19
ENDBRANCH  14  15
ENDBRANCH  12  13
TORSDOF 6
ENDMDL
MODEL 4
REMARK VINA RESULT:      -8.3      6.407     11.984
REMARK  Name = C:\Users\Docking\Desktop\test protocol\1iep_ligandH.pdb
REMARK  8 active torsions:
REMARK  status: ('A' for Active; 'I' for Inactive)
REMARK    1  A    between atoms: _5  and  _11
REMARK    2  A    between atoms: _19  and  _21
REMARK    3  A    between atoms: _22  and  _66
REMARK    4  A    between atoms: _27  and  _30
REMARK    5  A    between atoms: _32  and  _33
REMARK    6  A    between atoms: _38  and  _43
REMARK    7  A    between atoms: _43  and  _46
REMARK    8  A    between atoms: _53  and  _55
REMARK                            x       y       z     vdW  Elec       q    Type
REMARK                         _______ _______ _______ _____ _____    ______ ____
ROOT
ATOM     10  C   UNL     1      20.836  23.610  21.734  0.00  0.00    +0.038 A 
ATOM     11  C   UNL     1      19.688  23.135  22.418  0.00  0.00    +0.047 A 
ATOM     12  C   UNL     1      19.804  22.439  23.690  0.00  0.00    +0.035 A 
ATOM     32  C   UNL     1      21.105  22.248  24.239  0.00  0.00    +0.024 A 
ATOM     33  C   UNL     1      22.283  22.723  23.557  0.00  0.00    +0.007 A 
ATOM     34  C   UNL     1      22.175  23.407  22.300  0.00  0.00    -0.029 A 
ATOM     35  C   UNL     1      23.472  23.890  21.610  0.00  0.00    +0.045 C 
ENDROOT
BRANCH  10   9
ATOM      4  C   UNL     1      21.195  23.831  16.953  0.00  0.00    +0.077 A 
ATOM      5  C   UNL     1      21.796  22.531  16.879  0.00  0.00    +0.048 A 
ATOM      6  C   UNL     1      22.002  21.841  18.095  0.00  0.00    +0.116 A 
ATOM      7  N   UNL     1      21.630  22.418  19.289  0.00  0.00    -0.223 NA
ATOM      8  C   UNL     1      21.055  23.675  19.326  0.00  0.00    +0.220 A 
ATOM      9  N   UNL     1      20.666  24.271  20.516  0.00  0.00    -0.283 N 
ATOM     36  H   UNL     1      20.251  25.202  20.501  0.00  0.00    +0.155 HD
ATOM     37  N   UNL     1      20.848  24.355  18.179  0.00  0.00    -0.214 NA
BRANCH   4   3
ATOM      1  C   UNL     1      20.630  25.027  13.272  0.00  0.00    +0.020 A 
ATOM      2  C   UNL     1      20.912  24.162  14.394  0.00  0.00    +0.013 A 
ATOM      3  C   UNL     1      20.909  24.683  15.755  0.00  0.00    +0.019 A 
ATOM     38  C   UNL     1      20.613  26.095  15.948  0.00  0.00    +0.120 A 
ATOM     39  N   UNL     1      20.346  26.904  14.848  0.00  0.00    -0.263 NA
ATOM     40  C   UNL     1      20.348  26.414  13.534  0.00  0.00    +0.111 A 
ENDBRANCH   4   3
ENDBRANCH  10   9
BRANCH  12  13
ATOM     13  N   UNL     1      18.674  21.928  24.427  0.00  0.00    -0.281 N 
ATOM     14  C   UNL     1      18.517  20.665  24.975  0.00  0.00    +0.248 C 
ATOM     30  O   UNL     1      19.239  19.710  24.730  0.00  0.00    -0.270 OA
ATOM     31  H   UNL     1      17.897  22.574  24.560  0.00  0.00    +0.155 HD
BRANCH  14  15
ATOM     15  C   UNL     1      17.385  20.425  25.921  0.00  0.00    +0.037 A 
ATOM     16  C   UNL     1      17.402  19.297  26.856  0.00  0.00    +0.013 A 
ATOM     17  C   UNL     1      16.289  19.079  27.746  0.00  0.00    +0.005 A 
ATOM     18  C   UNL     1      15.150  19.992  27.706  0.00  0.00    -0.033 A 
ATOM     28  C   UNL     1      15.161  21.106  26.772  0.00  0.00    +0.005 A 
ATOM     29  C   UNL     1      16.250  21.323  25.898  0.00  0.00    +0.013 A 
BRANCH  18  19
ATOM     19  C   UNL     1      13.910  19.823  28.604  0.00  0.00    +0.119 C 
BRANCH  19  20
ATOM     20  N   UNL     1      14.127  19.260  29.970  0.00  0.00    -0.302 NA
ATOM     21  C   UNL     1      12.816  18.813  30.622  0.00  0.00    +0.066 C 
ATOM     22  C   UNL     1      13.064  18.205  32.041  0.00  0.00    -0.064 C 
ATOM     23  N   UNL     1      13.781  19.236  32.916  0.00  0.00    +0.379 N 
ATOM     24  C   UNL     1      13.964  18.688  34.268  0.00  0.00    -0.096 C 
ATOM     25  H   UNL     1      13.118  20.128  32.999  0.00  0.00    -0.082 HD
ATOM     26  C   UNL     1      15.084  19.687  32.273  0.00  0.00    -0.064 C 
ATOM     27  C   UNL     1      14.830  20.262  30.852  0.00  0.00    +0.066 C 
ENDBRANCH  19  20
ENDBRANCH  18  19
ENDBRANCH  14  15
ENDBRANCH  12  13
TORSDOF 6
ENDMDL
MODEL 5
REMARK VINA RESULT:      -8.2     11.274     17.193
REMARK  Name = C:\Users\Docking\Desktop\test protocol\1iep_ligandH.pdb
REMARK  8 active torsions:
REMARK  status: ('A' for Active; 'I' for Inactive)
REMARK    1  A    between atoms: _5  and  _11
REMARK    2  A    between atoms: _19  and  _21
REMARK    3  A    between atoms: _22  and  _66
REMARK    4  A    between atoms: _27  and  _30
REMARK    5  A    between atoms: _32  and  _33
REMARK    6  A    between atoms: _38  and  _43
REMARK    7  A    between atoms: _43  and  _46
REMARK    8  A    between atoms: _53  and  _55
REMARK                            x       y       z     vdW  Elec       q    Type
REMARK                         _______ _______ _______ _____ _____    ______ ____
ROOT
ATOM     10  C   UNL     1      20.631  24.213  17.043  0.00  0.00    +0.038 A 
ATOM     11  C   UNL     1      20.285  25.558  16.754  0.00  0.00    +0.047 A 
ATOM     12  C   UNL     1      20.687  26.187  15.505  0.00  0.00    +0.035 A 
ATOM     32  C   UNL     1      21.439  25.416  14.572  0.00  0.00    +0.024 A 
ATOM     33  C   UNL     1      21.801  24.048  14.850  0.00  0.00    +0.007 A 
ATOM     34  C   UNL     1      21.409  23.423  16.081  0.00  0.00    -0.029 A 
ATOM     35  C   UNL     1      21.831  21.956  16.328  0.00  0.00    +0.045 C 
ENDROOT
BRANCH  10   9
ATOM      4  C   UNL     1      21.403  23.010  21.625  0.00  0.00    +0.077 A 
ATOM      5  C   UNL     1      22.750  23.502  21.589  0.00  0.00    +0.048 A 
ATOM      6  C   UNL     1      23.208  24.050  20.370  0.00  0.00    +0.116 A 
ATOM      7  N   UNL     1      22.373  24.099  19.275  0.00  0.00    -0.223 NA
ATOM      8  C   UNL     1      21.080  23.614  19.343  0.00  0.00    +0.220 A 
ATOM      9  N   UNL     1      20.219  23.659  18.257  0.00  0.00    -0.283 N 
ATOM     36  H   UNL     1      19.275  23.285  18.345  0.00  0.00    +0.155 HD
ATOM     37  N   UNL     1      20.619  23.084  20.495  0.00  0.00    -0.214 NA
BRANCH   4   3
ATOM      1  C   UNL     1      20.877  21.458  25.176  0.00  0.00    +0.020 A 
ATOM      2  C   UNL     1      21.534  22.039  24.028  0.00  0.00    +0.013 A 
ATOM      3  C   UNL     1      20.773  22.404  22.840  0.00  0.00    +0.019 A 
ATOM     38  C   UNL     1      19.337  22.168  22.847  0.00  0.00    +0.120 A 
ATOM     39  N   UNL     1      18.732  21.605  23.966  0.00  0.00    -0.263 NA
ATOM     40  C   UNL     1      19.455  21.248  25.114  0.00  0.00    +0.111 A 
ENDBRANCH   4   3
ENDBRANCH  10   9
BRANCH  12  13
ATOM     13  N   UNL     1      20.371  27.551  15.161  0.00  0.00    -0.281 N 
ATOM     14  C   UNL     1      21.227  28.528  14.681  0.00  0.00    +0.248 C 
ATOM     30  O   UNL     1      22.446  28.438  14.677  0.00  0.00    -0.270 OA
ATOM     31  H   UNL     1      19.398  27.830  15.286  0.00  0.00    +0.155 HD
BRANCH  14  15
ATOM     15  C   UNL     1      20.647  29.795  14.140  0.00  0.00    +0.037 A 
ATOM     16  C   UNL     1      21.472  30.992  13.959  0.00  0.00    +0.013 A 
ATOM     17  C   UNL     1      20.883  32.206  13.451  0.00  0.00    +0.005 A 
ATOM     18  C   UNL     1      19.460  32.228  13.120  0.00  0.00    -0.033 A 
ATOM     28  C   UNL     1      18.666  31.024  13.304  0.00  0.00    +0.005 A 
ATOM     29  C   UNL     1      19.240  29.833  13.803  0.00  0.00    +0.013 A 
BRANCH  18  19
ATOM     19  C   UNL     1      18.743  33.485  12.593  0.00  0.00    +0.119 C 
BRANCH  19  20
ATOM     20  N   UNL     1      17.972  33.350  11.321  0.00  0.00    -0.302 NA
ATOM     21  C   UNL     1      18.886  33.092  10.120  0.00  0.00    +0.066 C 
ATOM     22  C   UNL     1      18.061  32.931   8.801  0.00  0.00    -0.064 C 
ATOM     23  N   UNL     1      17.212  34.183   8.578  0.00  0.00    +0.379 N 
ATOM     24  C   UNL     1      16.479  34.059   7.309  0.00  0.00    -0.096 C 
ATOM     25  H   UNL     1      17.907  35.050   8.484  0.00  0.00    -0.082 HD
ATOM     26  C   UNL     1      16.302  34.448   9.769  0.00  0.00    -0.064 C 
ATOM     27  C   UNL     1      17.130  34.578  11.078  0.00  0.00    +0.066 C 
ENDBRANCH  19  20
ENDBRANCH  18  19
ENDBRANCH  14  15
ENDBRANCH  12  13
TORSDOF 6
ENDMDL
