MODEL 1
REMARK VINA RESULT:      -8.6      0.000      0.000
REMARK  Name = C:\Users\Docking\Desktop\test protocol\1iep_ligandH.pdb
REMARK  8 active torsions:
REMARK  status: ('A' for Active; 'I' for Inactive)
REMARK    1  A    between atoms: _5  and  _11
REMARK    2  A    between atoms: _19  and  _21
REMARK    3  A    between atoms: _22  and  _66
REMARK    4  A    between atoms: _27  and  _30
REMARK    5  A    between atoms: _32  and  _33
REMARK    6  A    between atoms: _38  and  _43
REMARK    7  A    between atoms: _43  and  _46
REMARK    8  A    between atoms: _53  and  _55
REMARK                            x       y       z     vdW  Elec       q    Type
REMARK                         _______ _______ _______ _____ _____    ______ ____
ROOT
ATOM     10  C   UNL     1       5.017   5.613  17.540  0.00  0.00    +0.038 A 
ATOM     11  C   UNL     1       5.540   4.391  17.044  0.00  0.00    +0.047 A 
ATOM     12  C   UNL     1       4.989   3.765  15.853  0.00  0.00    +0.035 A 
ATOM     32  C   UNL     1       3.906   4.411  15.189  0.00  0.00    +0.024 A 
ATOM     33  C   UNL     1       3.361   5.653  15.680  0.00  0.00    +0.007 A 
ATOM     34  C   UNL     1       3.900   6.274  16.856  0.00  0.00    -0.029 A 
ATOM     35  C   UNL     1       3.272   7.602  17.341  0.00  0.00    +0.045 C 
ENDROOT
BRANCH  10   9
ATOM      4  C   UNL     1       4.874   6.784  22.192  0.00  0.00    +0.077 A 
ATOM      5  C   UNL     1       3.545   6.267  22.342  0.00  0.00    +0.048 A 
ATOM      6  C   UNL     1       2.930   5.714  21.196  0.00  0.00    +0.116 A 
ATOM      7  N   UNL     1       3.605   5.686  19.995  0.00  0.00    -0.223 NA
ATOM      8  C   UNL     1       4.886   6.195  19.884  0.00  0.00    +0.220 A 
ATOM      9  N   UNL     1       5.586   6.170  18.687  0.00  0.00    -0.283 N 
ATOM     36  H   UNL     1       6.526   6.563  18.645  0.00  0.00    +0.155 HD
ATOM     37  N   UNL     1       5.494   6.730  20.963  0.00  0.00    -0.214 NA
BRANCH   4   3
ATOM      1  C   UNL     1       5.943   9.044  25.201  0.00  0.00    +0.020 A 
ATOM      2  C   UNL     1       5.146   8.488  24.131  0.00  0.00    +0.013 A 
ATOM      3  C   UNL     1       5.657   7.397  23.311  0.00  0.00    +0.019 A 
ATOM     38  C   UNL     1       6.989   6.887  23.602  0.00  0.00    +0.120 A 
ATOM     39  N   UNL     1       7.734   7.444  24.637  0.00  0.00    -0.263 NA
ATOM     40  C   UNL     1       7.253   8.495  25.432  0.00  0.00    +0.111 A 
ENDBRANCH   4   3
ENDBRANCH  10   9
BRANCH  12  13
ATOM     13  N   UNL     1       5.473   2.521  15.307  0.00  0.00    -0.281 N 
ATOM     14  C   UNL     1       6.238   2.331  14.168  0.00  0.00    +0.248 C 
ATOM     30  O   UNL     1       6.443   3.189  13.322  0.00  0.00    -0.270 OA
ATOM     31  H   UNL     1       5.222   1.678  15.824  0.00  0.00    +0.155 HD
BRANCH  14  15
ATOM     15  C   UNL     1       6.852   0.990  13.926  0.00  0.00    +0.037 A 
ATOM     16  C   UNL     1       6.073  -0.241  14.079  0.00  0.00    +0.013 A 
ATOM     17  C   UNL     1       6.694  -1.523  13.856  0.00  0.00    +0.005 A 
ATOM     18  C   UNL     1       8.103  -1.579  13.475  0.00  0.00    -0.033 A 
ATOM     28  C   UNL     1       8.851  -0.342  13.324  0.00  0.00    +0.005 A 
ATOM     29  C   UNL     1       8.246   0.916  13.543  0.00  0.00    +0.013 A 
BRANCH  18  19
ATOM     19  C   UNL     1       8.853  -2.903  13.237  0.00  0.00    +0.119 C 
BRANCH  19  20
ATOM     20  N   UNL     1       8.962  -3.844  14.391  0.00  0.00    -0.302 NA
ATOM     21  C   UNL     1       9.853  -3.286  15.505  0.00  0.00    +0.066 C 
ATOM     22  C   UNL     1       9.938  -4.273  16.714  0.00  0.00    -0.064 C 
ATOM     23  N   UNL     1      10.461  -5.626  16.229  0.00  0.00    +0.379 N 
ATOM     24  C   UNL     1      10.597  -6.539  17.373  0.00  0.00    -0.096 C 
ATOM     25  H   UNL     1      11.479  -5.462  15.804  0.00  0.00    -0.082 HD
ATOM     26  C   UNL     1       9.583  -6.187  15.119  0.00  0.00    -0.064 C 
ATOM     27  C   UNL     1       9.481  -5.185  13.935  0.00  0.00    +0.066 C 
ENDBRANCH  19  20
ENDBRANCH  18  19
ENDBRANCH  14  15
ENDBRANCH  12  13
TORSDOF 6
ENDMDL
MODEL 2
REMARK VINA RESULT:      -8.4      4.202     13.936
REMARK  Name = C:\Users\Docking\Desktop\test protocol\1iep_ligandH.pdb
REMARK  8 active torsions:
REMARK  status: ('A' for Active; 'I' for Inactive)
REMARK    1  A    between atoms: _5  and  _11
REMARK    2  A    between atoms: _19  and  _21
REMARK    3  A    between atoms: _22  and  _66
REMARK    4  A    between atoms: _27  and  _30
REMARK    5  A    between atoms: _32  and  _33
REMARK    6  A    between atoms: _38  and  _43
REMARK    7  A    between atoms: _43  and  _46
REMARK    8  A    between atoms: _53  and  _55
REMARK                            x       y       z     vdW  Elec       q    Type
REMARK                         _______ _______ _______ _____ _____    ______ ____
ROOT
ATOM     10  C   UNL     1       9.834  -1.964  12.216  0.00  0.00    +0.038 A 
ATOM     11  C   UNL     1       8.962  -0.888  12.525  0.00  0.00    +0.047 A 
ATOM     12  C   UNL     1       8.596  -0.588  13.900  0.00  0.00    +0.035 A 
ATOM     32  C   UNL     1       9.138  -1.402  14.937  0.00  0.00    +0.024 A 
ATOM     33  C   UNL     1      10.025  -2.500  14.641  0.00  0.00    +0.007 A 
ATOM     34  C   UNL     1      10.387  -2.803  13.286  0.00  0.00    -0.029 A 
ATOM     35  C   UNL     1      11.337  -3.996  13.026  0.00  0.00    +0.045 C 
ENDROOT
BRANCH  10   9
ATOM      4  C   UNL     1       8.995  -4.059   7.979  0.00  0.00    +0.077 A 
ATOM      5  C   UNL     1       7.841  -4.747   8.482  0.00  0.00    +0.048 A 
ATOM      6  C   UNL     1       7.501  -4.541   9.837  0.00  0.00    +0.116 A 
ATOM      7  N   UNL     1       8.265  -3.706  10.623  0.00  0.00    -0.223 NA
ATOM      8  C   UNL     1       9.373  -3.058  10.108  0.00  0.00    +0.220 A 
ATOM      9  N   UNL     1      10.152  -2.208  10.878  0.00  0.00    -0.283 N 
ATOM     36  H   UNL     1      10.965  -1.755  10.462  0.00  0.00    +0.155 HD
ATOM     37  N   UNL     1       9.720  -3.240   8.817  0.00  0.00    -0.214 NA
BRANCH   4   3
ATOM      1  C   UNL     1      11.246  -3.926   4.783  0.00  0.00    +0.020 A 
ATOM      2  C   UNL     1      10.828  -3.796   6.160  0.00  0.00    +0.013 A 
ATOM      3  C   UNL     1       9.480  -4.172   6.567  0.00  0.00    +0.019 A 
ATOM     38  C   UNL     1       8.573  -4.681   5.549  0.00  0.00    +0.120 A 
ATOM     39  N   UNL     1       9.003  -4.793   4.231  0.00  0.00    -0.263 NA
ATOM     40  C   UNL     1      10.297  -4.433   3.827  0.00  0.00    +0.111 A 
ENDBRANCH   4   3
ENDBRANCH  10   9
BRANCH  12  13
ATOM     13  N   UNL     1       7.709   0.486  14.274  0.00  0.00    -0.281 N 
ATOM     14  C   UNL     1       6.328   0.522  14.179  0.00  0.00    +0.248 C 
ATOM     30  O   UNL     1       5.657  -0.288  13.557  0.00  0.00    -0.270 OA
ATOM     31  H   UNL     1       8.154   1.321  14.654  0.00  0.00    +0.155 HD
BRANCH  14  15
ATOM     15  C   UNL     1       5.585   1.624  14.864  0.00  0.00    +0.037 A 
ATOM     16  C   UNL     1       4.465   1.340  15.764  0.00  0.00    +0.013 A 
ATOM     17  C   UNL     1       3.755   2.423  16.398  0.00  0.00    +0.005 A 
ATOM     18  C   UNL     1       4.165   3.800  16.134  0.00  0.00    -0.033 A 
ATOM     28  C   UNL     1       5.284   4.052  15.241  0.00  0.00    +0.005 A 
ATOM     29  C   UNL     1       5.981   2.994  14.617  0.00  0.00    +0.013 A 
BRANCH  18  19
ATOM     19  C   UNL     1       3.452   5.018  16.750  0.00  0.00    +0.119 C 
BRANCH  19  20
ATOM     20  N   UNL     1       3.448   5.127  18.240  0.00  0.00    -0.302 NA
ATOM     21  C   UNL     1       2.845   6.451  18.717  0.00  0.00    +0.066 C 
ATOM     22  C   UNL     1       2.828   6.539  20.278  0.00  0.00    -0.064 C 
ATOM     23  N   UNL     1       4.252   6.368  20.811  0.00  0.00    +0.379 N 
ATOM     24  C   UNL     1       4.248   6.507  22.275  0.00  0.00    -0.096 C 
ATOM     25  H   UNL     1       4.871   7.196  20.394  0.00  0.00    -0.082 HD
ATOM     26  C   UNL     1       4.860   5.055  20.339  0.00  0.00    -0.064 C 
ATOM     27  C   UNL     1       4.845   4.965  18.787  0.00  0.00    +0.066 C 
ENDBRANCH  19  20
ENDBRANCH  18  19
ENDBRANCH  14  15
ENDBRANCH  12  13
TORSDOF 6
ENDMDL
MODEL 3
REMARK VINA RESULT:      -8.4      9.130     13.292
REMARK  Name = C:\Users\Docking\Desktop\test protocol\1iep_ligandH.pdb
REMARK  8 active torsions:
REMARK  status: ('A' for Active; 'I' for Inactive)
REMARK    1  A    between atoms: _5  and  _11
REMARK    2  A    between atoms: _19  and  _21
REMARK    3  A    between atoms: _22  and  _66
REMARK    4  A    between atoms: _27  and  _30
REMARK    5  A    between atoms: _32  and  _33
REMARK    6  A    between atoms: _38  and  _43
REMARK    7  A    between atoms: _43  and  _46
REMARK    8  A    between atoms: _53  and  _55
REMARK                            x       y       z     vdW  Elec       q    Type
REMARK                         _______ _______ _______ _____ _____    ______ ____
ROOT
ATOM     10  C   UNL     1       9.589  -5.007  15.143  0.00  0.00    +0.038 A 
ATOM     11  C   UNL     1       9.371  -6.357  15.519  0.00  0.00    +0.047 A 
ATOM     12  C   UNL     1       9.699  -6.828  16.855  0.00  0.00    +0.035 A 
ATOM     32  C   UNL     1      10.246  -5.895  17.785  0.00  0.00    +0.024 A 
ATOM     33  C   UNL     1      10.475  -4.520  17.419  0.00  0.00    +0.007 A 
ATOM     34  C   UNL     1      10.155  -4.050  16.101  0.00  0.00    -0.029 A 
ATOM     35  C   UNL     1      10.428  -2.566  15.762  0.00  0.00    +0.045 C 
ENDROOT
BRANCH  10   9
ATOM      4  C   UNL     1       6.636  -2.926  11.982  0.00  0.00    +0.077 A 
ATOM      5  C   UNL     1       5.664  -2.631  12.995  0.00  0.00    +0.048 A 
ATOM      6  C   UNL     1       5.959  -3.038  14.315  0.00  0.00    +0.116 A 
ATOM      7  N   UNL     1       7.141  -3.690  14.591  0.00  0.00    -0.223 NA
ATOM      8  C   UNL     1       8.056  -3.961  13.590  0.00  0.00    +0.220 A 
ATOM      9  N   UNL     1       9.255  -4.609  13.846  0.00  0.00    -0.283 N 
ATOM     36  H   UNL     1       9.900  -4.796  13.079  0.00  0.00    +0.155 HD
ATOM     37  N   UNL     1       7.797  -3.584  12.321  0.00  0.00    -0.214 NA
BRANCH   4   3
ATOM      1  C   UNL     1       5.158  -1.585   8.618  0.00  0.00    +0.020 A 
ATOM      2  C   UNL     1       5.267  -1.922  10.018  0.00  0.00    +0.013 A 
ATOM      3  C   UNL     1       6.470  -2.557  10.540  0.00  0.00    +0.019 A 
ATOM     38  C   UNL     1       7.554  -2.841   9.611  0.00  0.00    +0.120 A 
ATOM     39  N   UNL     1       7.419  -2.507   8.267  0.00  0.00    -0.263 NA
ATOM     40  C   UNL     1       6.265  -1.896   7.753  0.00  0.00    +0.111 A 
ENDBRANCH   4   3
ENDBRANCH  10   9
BRANCH  12  13
ATOM     13  N   UNL     1       9.508  -8.188  17.292  0.00  0.00    -0.281 N 
ATOM     14  C   UNL     1       8.333  -8.791  17.711  0.00  0.00    +0.248 C 
ATOM     30  O   UNL     1       7.304  -8.188  17.977  0.00  0.00    -0.270 OA
ATOM     31  H   UNL     1      10.340  -8.779  17.292  0.00  0.00    +0.155 HD
BRANCH  14  15
ATOM     15  C   UNL     1       8.301 -10.277  17.870  0.00  0.00    +0.037 A 
ATOM     16  C   UNL     1       8.765 -10.920  19.101  0.00  0.00    +0.013 A 
ATOM     17  C   UNL     1       8.739 -12.356  19.222  0.00  0.00    +0.005 A 
ATOM     18  C   UNL     1       8.244 -13.159  18.107  0.00  0.00    -0.033 A 
ATOM     28  C   UNL     1       7.784 -12.496  16.898  0.00  0.00    +0.005 A 
ATOM     29  C   UNL     1       7.810 -11.088  16.776  0.00  0.00    +0.013 A 
BRANCH  18  19
ATOM     19  C   UNL     1       8.200 -14.699  18.140  0.00  0.00    +0.119 C 
BRANCH  19  20
ATOM     20  N   UNL     1       9.426 -15.428  17.698  0.00  0.00    -0.302 NA
ATOM     21  C   UNL     1      10.707 -14.673  18.064  0.00  0.00    +0.066 C 
ATOM     22  C   UNL     1      11.980 -15.460  17.614  0.00  0.00    -0.064 C 
ATOM     23  N   UNL     1      11.914 -15.714  16.107  0.00  0.00    +0.379 N 
ATOM     24  C   UNL     1      13.137 -16.403  15.671  0.00  0.00    -0.096 C 
ATOM     25  H   UNL     1      11.885 -14.722  15.599  0.00  0.00    -0.082 HD
ATOM     26  C   UNL     1      10.642 -16.461  15.733  0.00  0.00    -0.064 C 
ATOM     27  C   UNL     1       9.383 -15.684  16.211  0.00  0.00    +0.066 C 
ENDBRANCH  19  20
ENDBRANCH  18  19
ENDBRANCH  14  15
ENDBRANCH  12  13
TORSDOF 6
ENDMDL
MODEL 4
REMARK VINA RESULT:      -8.4      4.007      8.051
REMARK  Name = C:\Users\Docking\Desktop\test protocol\1iep_ligandH.pdb
REMARK  8 active torsions:
REMARK  status: ('A' for Active; 'I' for Inactive)
REMARK    1  A    between atoms: _5  and  _11
REMARK    2  A    between atoms: _19  and  _21
REMARK    3  A    between atoms: _22  and  _66
REMARK    4  A    between atoms: _27  and  _30
REMARK    5  A    between atoms: _32  and  _33
REMARK    6  A    between atoms: _38  and  _43
REMARK    7  A    between atoms: _43  and  _46
REMARK    8  A    between atoms: _53  and  _55
REMARK                            x       y       z     vdW  Elec       q    Type
REMARK                         _______ _______ _______ _____ _____    ______ ____
ROOT
ATOM     10  C   UNL     1       8.392   0.107  13.598  0.00  0.00    +0.038 A 
ATOM     11  C   UNL     1       8.500  -1.039  14.427  0.00  0.00    +0.047 A 
ATOM     12  C   UNL     1       8.909  -2.325  13.884  0.00  0.00    +0.035 A 
ATOM     32  C   UNL     1       9.203  -2.408  12.492  0.00  0.00    +0.024 A 
ATOM     33  C   UNL     1       9.097  -1.253  11.634  0.00  0.00    +0.007 A 
ATOM     34  C   UNL     1       8.692   0.017  12.163  0.00  0.00    -0.029 A 
ATOM     35  C   UNL     1       8.590   1.219  11.196  0.00  0.00    +0.045 C 
ENDROOT
BRANCH  10   9
ATOM      4  C   UNL     1       5.019   3.185  15.076  0.00  0.00    +0.077 A 
ATOM      5  C   UNL     1       3.958   2.322  14.644  0.00  0.00    +0.048 A 
ATOM      6  C   UNL     1       4.323   1.098  14.039  0.00  0.00    +0.116 A 
ATOM      7  N   UNL     1       5.652   0.772  13.884  0.00  0.00    -0.223 NA
ATOM      8  C   UNL     1       6.651   1.628  14.311  0.00  0.00    +0.220 A 
ATOM      9  N   UNL     1       7.995   1.317  14.172  0.00  0.00    -0.283 N 
ATOM     36  H   UNL     1       8.701   1.978  14.492  0.00  0.00    +0.155 HD
ATOM     37  N   UNL     1       6.329   2.803  14.890  0.00  0.00    -0.214 NA
BRANCH   4   3
ATOM      1  C   UNL     1       5.205   6.195  17.568  0.00  0.00    +0.020 A 
ATOM      2  C   UNL     1       5.457   4.902  16.973  0.00  0.00    +0.013 A 
ATOM      3  C   UNL     1       4.794   4.510  15.735  0.00  0.00    +0.019 A 
ATOM     38  C   UNL     1       3.876   5.457  15.120  0.00  0.00    +0.120 A 
ATOM     39  N   UNL     1       3.651   6.693  15.717  0.00  0.00    -0.263 NA
ATOM     40  C   UNL     1       4.282   7.081  16.909  0.00  0.00    +0.111 A 
ENDBRANCH   4   3
ENDBRANCH  10   9
BRANCH  12  13
ATOM     13  N   UNL     1       9.028  -3.524  14.675  0.00  0.00    -0.281 N 
ATOM     14  C   UNL     1       9.740  -3.701  15.851  0.00  0.00    +0.248 C 
ATOM     30  O   UNL     1      10.560  -2.908  16.289  0.00  0.00    -0.270 OA
ATOM     31  H   UNL     1       8.527  -4.342  14.327  0.00  0.00    +0.155 HD
BRANCH  14  15
ATOM     15  C   UNL     1       9.519  -4.946  16.648  0.00  0.00    +0.037 A 
ATOM     16  C   UNL     1      10.533  -6.002  16.705  0.00  0.00    +0.013 A 
ATOM     17  C   UNL     1      10.288  -7.200  17.468  0.00  0.00    +0.005 A 
ATOM     18  C   UNL     1       9.021  -7.349  18.180  0.00  0.00    -0.033 A 
ATOM     28  C   UNL     1       8.034  -6.284  18.111  0.00  0.00    +0.005 A 
ATOM     29  C   UNL     1       8.271  -5.108  17.363  0.00  0.00    +0.013 A 
BRANCH  18  19
ATOM     19  C   UNL     1       8.665  -8.602  19.001  0.00  0.00    +0.119 C 
BRANCH  19  20
ATOM     20  N   UNL     1       9.333  -9.882  18.619  0.00  0.00    -0.302 NA
ATOM     21  C   UNL     1       8.586 -10.608  17.497  0.00  0.00    +0.066 C 
ATOM     22  C   UNL     1       9.311 -11.933  17.094  0.00  0.00    -0.064 C 
ATOM     23  N   UNL     1       9.445 -12.832  18.325  0.00  0.00    +0.379 N 
ATOM     24  C   UNL     1      10.075 -14.103  17.938  0.00  0.00    -0.096 C 
ATOM     25  H   UNL     1       8.417 -13.061  18.690  0.00  0.00    -0.082 HD
ATOM     26  C   UNL     1      10.185 -12.117  19.447  0.00  0.00    -0.064 C 
ATOM     27  C   UNL     1       9.473 -10.787  19.819  0.00  0.00    +0.066 C 
ENDBRANCH  19  20
ENDBRANCH  18  19
ENDBRANCH  14  15
ENDBRANCH  12  13
TORSDOF 6
ENDMDL
MODEL 5
REMARK VINA RESULT:      -8.3      1.715      2.618
REMARK  Name = C:\Users\Docking\Desktop\test protocol\1iep_ligandH.pdb
REMARK  8 active torsions:
REMARK  status: ('A' for Active; 'I' for Inactive)
REMARK    1  A    between atoms: _5  and  _11
REMARK    2  A    between atoms: _19  and  _21
REMARK    3  A    between atoms: _22  and  _66
REMARK    4  A    between atoms: _27  and  _30
REMARK    5  A    between atoms: _32  and  _33
REMARK    6  A    between atoms: _38  and  _43
REMARK    7  A    between atoms: _43  and  _46
REMARK    8  A    between atoms: _53  and  _55
REMARK                            x       y       z     vdW  Elec       q    Type
REMARK                         _______ _______ _______ _____ _____    ______ ____
ROOT
ATOM     10  C   UNL     1       4.959   5.715  17.732  0.00  0.00    +0.038 A 
ATOM     11  C   UNL     1       5.542   4.517  17.246  0.00  0.00    +0.047 A 
ATOM     12  C   UNL     1       5.007   3.842  16.074  0.00  0.00    +0.035 A 
ATOM     32  C   UNL     1       3.879   4.416  15.419  0.00  0.00    +0.024 A 
ATOM     33  C   UNL     1       3.273   5.632  15.901  0.00  0.00    +0.007 A 
ATOM     34  C   UNL     1       3.794   6.302  17.058  0.00  0.00    -0.029 A 
ATOM     35  C   UNL     1       3.101   7.600  17.533  0.00  0.00    +0.045 C 
ENDROOT
BRANCH  10   9
ATOM      4  C   UNL     1       4.848   6.908  22.380  0.00  0.00    +0.077 A 
ATOM      5  C   UNL     1       3.565   6.295  22.568  0.00  0.00    +0.048 A 
ATOM      6  C   UNL     1       2.965   5.689  21.441  0.00  0.00    +0.116 A 
ATOM      7  N   UNL     1       3.608   5.702  20.223  0.00  0.00    -0.223 NA
ATOM      8  C   UNL     1       4.844   6.304  20.076  0.00  0.00    +0.220 A 
ATOM      9  N   UNL     1       5.513   6.322  18.861  0.00  0.00    -0.283 N 
ATOM     36  H   UNL     1       6.420   6.782  18.792  0.00  0.00    +0.155 HD
ATOM     37  N   UNL     1       5.438   6.890  21.136  0.00  0.00    -0.214 NA
BRANCH   4   3
ATOM      1  C   UNL     1       7.690   7.947  24.859  0.00  0.00    +0.020 A 
ATOM      2  C   UNL     1       6.997   7.262  23.792  0.00  0.00    +0.013 A 
ATOM      3  C   UNL     1       5.612   7.586  23.475  0.00  0.00    +0.019 A 
ATOM     38  C   UNL     1       4.952   8.616  24.262  0.00  0.00    +0.120 A 
ATOM     39  N   UNL     1       5.643   9.258  25.285  0.00  0.00    -0.263 NA
ATOM     40  C   UNL     1       6.976   8.953  25.600  0.00  0.00    +0.111 A 
ENDBRANCH   4   3
ENDBRANCH  10   9
BRANCH  12  13
ATOM     13  N   UNL     1       5.552   2.619  15.539  0.00  0.00    -0.281 N 
ATOM     14  C   UNL     1       6.176   2.427  14.317  0.00  0.00    +0.248 C 
ATOM     30  O   UNL     1       6.170   3.238  13.403  0.00  0.00    -0.270 OA
ATOM     31  H   UNL     1       5.468   1.794  16.133  0.00  0.00    +0.155 HD
BRANCH  14  15
ATOM     15  C   UNL     1       6.899   1.143  14.069  0.00  0.00    +0.037 A 
ATOM     16  C   UNL     1       6.278  -0.150  14.369  0.00  0.00    +0.013 A 
ATOM     17  C   UNL     1       7.004  -1.373  14.137  0.00  0.00    +0.005 A 
ATOM     18  C   UNL     1       8.361  -1.309  13.599  0.00  0.00    -0.033 A 
ATOM     28  C   UNL     1       8.952  -0.014  13.305  0.00  0.00    +0.005 A 
ATOM     29  C   UNL     1       8.243   1.188  13.532  0.00  0.00    +0.013 A 
BRANCH  18  19
ATOM     19  C   UNL     1       9.218  -2.562  13.339  0.00  0.00    +0.119 C 
BRANCH  19  20
ATOM     20  N   UNL     1       8.659  -3.593  12.414  0.00  0.00    -0.302 NA
ATOM     21  C   UNL     1       9.722  -4.600  11.966  0.00  0.00    +0.066 C 
ATOM     22  C   UNL     1       9.115  -5.684  11.017  0.00  0.00    -0.064 C 
ATOM     23  N   UNL     1       8.476  -4.999   9.808  0.00  0.00    +0.379 N 
ATOM     24  C   UNL     1       7.956  -6.018   8.885  0.00  0.00    -0.096 C 
ATOM     25  H   UNL     1       9.278  -4.437   9.275  0.00  0.00    -0.082 HD
ATOM     26  C   UNL     1       7.420  -3.993  10.244  0.00  0.00    -0.064 C 
ATOM     27  C   UNL     1       8.026  -2.938  11.210  0.00  0.00    +0.066 C 
ENDBRANCH  19  20
ENDBRANCH  18  19
ENDBRANCH  14  15
ENDBRANCH  12  13
TORSDOF 6
ENDMDL
