MODEL 1
REMARK VINA RESULT:      -9.5      0.000      0.000
REMARK  Name = C:\Users\Docking\Desktop\test protocol\1iep_ligandH.pdb
REMARK  8 active torsions:
REMARK  status: ('A' for Active; 'I' for Inactive)
REMARK    1  A    between atoms: _5  and  _11
REMARK    2  A    between atoms: _19  and  _21
REMARK    3  A    between atoms: _22  and  _66
REMARK    4  A    between atoms: _27  and  _30
REMARK    5  A    between atoms: _32  and  _33
REMARK    6  A    between atoms: _38  and  _43
REMARK    7  A    between atoms: _43  and  _46
REMARK    8  A    between atoms: _53  and  _55
REMARK                            x       y       z     vdW  Elec       q    Type
REMARK                         _______ _______ _______ _____ _____    ______ ____
ROOT
ATOM     10  C   UNL     1       6.410  12.190  29.205  0.00  0.00    +0.038 A 
ATOM     11  C   UNL     1       5.623  12.251  28.027  0.00  0.00    +0.047 A 
ATOM     12  C   UNL     1       4.184  12.455  28.094  0.00  0.00    +0.035 A 
ATOM     32  C   UNL     1       3.580  12.595  29.377  0.00  0.00    +0.024 A 
ATOM     33  C   UNL     1       4.366  12.535  30.585  0.00  0.00    +0.007 A 
ATOM     34  C   UNL     1       5.785  12.332  30.525  0.00  0.00    -0.029 A 
ATOM     35  C   UNL     1       6.576  12.269  31.852  0.00  0.00    +0.045 C 
ENDROOT
BRANCH  10   9
ATOM      4  C   UNL     1      10.242  10.363  26.964  0.00  0.00    +0.077 A 
ATOM      5  C   UNL     1       9.429   9.725  25.969  0.00  0.00    +0.048 A 
ATOM      6  C   UNL     1       8.029   9.886  26.073  0.00  0.00    +0.116 A 
ATOM      7  N   UNL     1       7.493  10.632  27.101  0.00  0.00    -0.223 NA
ATOM      8  C   UNL     1       8.305  11.232  28.045  0.00  0.00    +0.220 A 
ATOM      9  N   UNL     1       7.788  11.993  29.082  0.00  0.00    -0.283 N 
ATOM     36  H   UNL     1       8.420  12.414  29.763  0.00  0.00    +0.155 HD
ATOM     37  N   UNL     1       9.645  11.093  27.968  0.00  0.00    -0.214 NA
BRANCH   4   3
ATOM      1  C   UNL     1      14.018  10.860  26.075  0.00  0.00    +0.020 A 
ATOM      2  C   UNL     1      12.579  10.964  26.007  0.00  0.00    +0.013 A 
ATOM      3  C   UNL     1      11.737  10.289  26.987  0.00  0.00    +0.019 A 
ATOM     38  C   UNL     1      12.388   9.512  28.031  0.00  0.00    +0.120 A 
ATOM     39  N   UNL     1      13.776   9.429  28.070  0.00  0.00    -0.263 NA
ATOM     40  C   UNL     1      14.597  10.072  27.131  0.00  0.00    +0.111 A 
ENDBRANCH   4   3
ENDBRANCH  10   9
BRANCH  12  13
ATOM     13  N   UNL     1       3.332  12.517  26.932  0.00  0.00    -0.281 N 
ATOM     14  C   UNL     1       2.475  11.541  26.451  0.00  0.00    +0.248 C 
ATOM     30  O   UNL     1       2.471  10.378  26.828  0.00  0.00    -0.270 OA
ATOM     31  H   UNL     1       3.364  13.387  26.400  0.00  0.00    +0.155 HD
BRANCH  14  15
ATOM     15  C   UNL     1       1.490  11.904  25.387  0.00  0.00    +0.037 A 
ATOM     16  C   UNL     1       1.679  13.093  24.551  0.00  0.00    +0.013 A 
ATOM     17  C   UNL     1       0.705  13.430  23.544  0.00  0.00    +0.005 A 
ATOM     18  C   UNL     1      -0.467  12.576  23.366  0.00  0.00    -0.033 A 
ATOM     28  C   UNL     1      -0.627  11.401  24.206  0.00  0.00    +0.005 A 
ATOM     29  C   UNL     1       0.325  11.067  25.195  0.00  0.00    +0.013 A 
BRANCH  18  19
ATOM     19  C   UNL     1      -1.568  12.872  22.330  0.00  0.00    +0.119 C 
BRANCH  19  20
ATOM     20  N   UNL     1      -1.216  12.696  20.889  0.00  0.00    -0.302 NA
ATOM     21  C   UNL     1      -1.825  13.792  20.011  0.00  0.00    +0.066 C 
ATOM     22  C   UNL     1      -1.428  13.606  18.511  0.00  0.00    -0.064 C 
ATOM     23  N   UNL     1      -1.875  12.222  18.036  0.00  0.00    +0.379 N 
ATOM     24  C   UNL     1      -1.555  12.065  16.610  0.00  0.00    -0.096 C 
ATOM     25  H   UNL     1      -2.983  12.170  18.142  0.00  0.00    -0.082 HD
ATOM     26  C   UNL     1      -1.276  11.125  18.906  0.00  0.00    -0.064 C 
ATOM     27  C   UNL     1      -1.652  11.337  20.399  0.00  0.00    +0.066 C 
ENDBRANCH  19  20
ENDBRANCH  18  19
ENDBRANCH  14  15
ENDBRANCH  12  13
TORSDOF 6
ENDMDL
MODEL 2
REMARK VINA RESULT:      -9.2      4.660     12.558
REMARK  Name = C:\Users\Docking\Desktop\test protocol\1iep_ligandH.pdb
REMARK  8 active torsions:
REMARK  status: ('A' for Active; 'I' for Inactive)
REMARK    1  A    between atoms: _5  and  _11
REMARK    2  A    between atoms: _19  and  _21
REMARK    3  A    between atoms: _22  and  _66
REMARK    4  A    between atoms: _27  and  _30
REMARK    5  A    between atoms: _32  and  _33
REMARK    6  A    between atoms: _38  and  _43
REMARK    7  A    between atoms: _43  and  _46
REMARK    8  A    between atoms: _53  and  _55
REMARK                            x       y       z     vdW  Elec       q    Type
REMARK                         _______ _______ _______ _____ _____    ______ ____
ROOT
ATOM     10  C   UNL     1       0.532   9.880  26.126  0.00  0.00    +0.038 A 
ATOM     11  C   UNL     1       1.939   9.877  26.301  0.00  0.00    +0.047 A 
ATOM     12  C   UNL     1       2.754  11.002  25.870  0.00  0.00    +0.035 A 
ATOM     32  C   UNL     1       2.102  12.116  25.266  0.00  0.00    +0.024 A 
ATOM     33  C   UNL     1       0.673  12.136  25.079  0.00  0.00    +0.007 A 
ATOM     34  C   UNL     1      -0.136  11.028  25.500  0.00  0.00    -0.029 A 
ATOM     35  C   UNL     1      -1.663  11.101  25.268  0.00  0.00    +0.045 C 
ENDROOT
BRANCH  10   9
ATOM      4  C   UNL     1      -1.133   5.416  25.546  0.00  0.00    +0.077 A 
ATOM      5  C   UNL     1      -0.511   5.288  24.259  0.00  0.00    +0.048 A 
ATOM      6  C   UNL     1       0.223   6.396  23.780  0.00  0.00    +0.116 A 
ATOM      7  N   UNL     1       0.320   7.542  24.539  0.00  0.00    -0.223 NA
ATOM      8  C   UNL     1      -0.293   7.634  25.775  0.00  0.00    +0.220 A 
ATOM      9  N   UNL     1      -0.202   8.774  26.559  0.00  0.00    -0.283 N 
ATOM     36  H   UNL     1      -0.675   8.804  27.461  0.00  0.00    +0.155 HD
ATOM     37  N   UNL     1      -1.001   6.590  26.254  0.00  0.00    -0.214 NA
BRANCH   4   3
ATOM      1  C   UNL     1      -2.170   2.266  27.619  0.00  0.00    +0.020 A 
ATOM      2  C   UNL     1      -1.347   3.291  27.020  0.00  0.00    +0.013 A 
ATOM      3  C   UNL     1      -1.939   4.331  26.189  0.00  0.00    +0.019 A 
ATOM     38  C   UNL     1      -3.380   4.306  25.983  0.00  0.00    +0.120 A 
ATOM     39  N   UNL     1      -4.147   3.306  26.572  0.00  0.00    -0.263 NA
ATOM     40  C   UNL     1      -3.587   2.298  27.372  0.00  0.00    +0.111 A 
ENDBRANCH   4   3
ENDBRANCH  10   9
BRANCH  12  13
ATOM     13  N   UNL     1       4.188  11.051  26.015  0.00  0.00    -0.281 N 
ATOM     14  C   UNL     1       4.922  11.217  27.178  0.00  0.00    +0.248 C 
ATOM     30  O   UNL     1       4.448  11.563  28.250  0.00  0.00    -0.270 OA
ATOM     31  H   UNL     1       4.728  10.952  25.155  0.00  0.00    +0.155 HD
BRANCH  14  15
ATOM     15  C   UNL     1       6.396  10.976  27.143  0.00  0.00    +0.037 A 
ATOM     16  C   UNL     1       7.020  10.241  26.040  0.00  0.00    +0.013 A 
ATOM     17  C   UNL     1       8.443  10.009  26.038  0.00  0.00    +0.005 A 
ATOM     18  C   UNL     1       9.252  10.514  27.145  0.00  0.00    -0.033 A 
ATOM     28  C   UNL     1       8.608  11.245  28.224  0.00  0.00    +0.005 A 
ATOM     29  C   UNL     1       7.214  11.474  28.229  0.00  0.00    +0.013 A 
BRANCH  18  19
ATOM     19  C   UNL     1      10.774  10.294  27.236  0.00  0.00    +0.119 C 
BRANCH  19  20
ATOM     20  N   UNL     1      11.417  10.511  28.567  0.00  0.00    -0.302 NA
ATOM     21  C   UNL     1      12.942  10.399  28.492  0.00  0.00    +0.066 C 
ATOM     22  C   UNL     1      13.600  10.651  29.888  0.00  0.00    -0.064 C 
ATOM     23  N   UNL     1      13.033   9.656  30.903  0.00  0.00    +0.379 N 
ATOM     24  C   UNL     1      13.692   9.852  32.203  0.00  0.00    -0.096 C 
ATOM     25  H   UNL     1      13.284   8.630  30.547  0.00  0.00    -0.082 HD
ATOM     26  C   UNL     1      11.516   9.759  30.981  0.00  0.00    -0.064 C 
ATOM     27  C   UNL     1      10.874   9.537  29.583  0.00  0.00    +0.066 C 
ENDBRANCH  19  20
ENDBRANCH  18  19
ENDBRANCH  14  15
ENDBRANCH  12  13
TORSDOF 6
ENDMDL
MODEL 3
REMARK VINA RESULT:      -9.1      6.941     12.528
REMARK  Name = C:\Users\Docking\Desktop\test protocol\1iep_ligandH.pdb
REMARK  8 active torsions:
REMARK  status: ('A' for Active; 'I' for Inactive)
REMARK    1  A    between atoms: _5  and  _11
REMARK    2  A    between atoms: _19  and  _21
REMARK    3  A    between atoms: _22  and  _66
REMARK    4  A    between atoms: _27  and  _30
REMARK    5  A    between atoms: _32  and  _33
REMARK    6  A    between atoms: _38  and  _43
REMARK    7  A    between atoms: _43  and  _46
REMARK    8  A    between atoms: _53  and  _55
REMARK                            x       y       z     vdW  Elec       q    Type
REMARK                         _______ _______ _______ _____ _____    ______ ____
ROOT
ATOM     10  C   UNL     1       3.697   5.212  20.252  0.00  0.00    +0.038 A 
ATOM     11  C   UNL     1       4.584   5.873  21.139  0.00  0.00    +0.047 A 
ATOM     12  C   UNL     1       4.117   6.418  22.404  0.00  0.00    +0.035 A 
ATOM     32  C   UNL     1       2.738   6.270  22.735  0.00  0.00    +0.024 A 
ATOM     33  C   UNL     1       1.822   5.603  21.844  0.00  0.00    +0.007 A 
ATOM     34  C   UNL     1       2.277   5.065  20.594  0.00  0.00    -0.029 A 
ATOM     35  C   UNL     1       1.249   4.365  19.675  0.00  0.00    +0.045 C 
ENDROOT
BRANCH  10   9
ATOM      4  C   UNL     1       4.865   5.687  15.620  0.00  0.00    +0.077 A 
ATOM      5  C   UNL     1       4.410   7.047  15.584  0.00  0.00    +0.048 A 
ATOM      6  C   UNL     1       3.875   7.584  16.776  0.00  0.00    +0.116 A 
ATOM      7  N   UNL     1       3.806   6.811  17.914  0.00  0.00    -0.223 NA
ATOM      8  C   UNL     1       4.252   5.502  17.915  0.00  0.00    +0.220 A 
ATOM      9  N   UNL     1       4.200   4.708  19.050  0.00  0.00    -0.283 N 
ATOM     36  H   UNL     1       4.532   3.745  19.008  0.00  0.00    +0.155 HD
ATOM     37  N   UNL     1       4.766   4.965  16.789  0.00  0.00    -0.214 NA
BRANCH   4   3
ATOM      1  C   UNL     1       6.506   4.946  12.148  0.00  0.00    +0.020 A 
ATOM      2  C   UNL     1       5.942   5.678  13.259  0.00  0.00    +0.013 A 
ATOM      3  C   UNL     1       5.458   4.978  14.442  0.00  0.00    +0.019 A 
ATOM     38  C   UNL     1       5.560   3.527  14.471  0.00  0.00    +0.120 A 
ATOM     39  N   UNL     1       6.107   2.849  13.386  0.00  0.00    -0.263 NA
ATOM     40  C   UNL     1       6.575   3.511  12.241  0.00  0.00    +0.111 A 
ENDBRANCH   4   3
ENDBRANCH  10   9
BRANCH  12  13
ATOM     13  N   UNL     1       4.970   7.106  23.341  0.00  0.00    -0.281 N 
ATOM     14  C   UNL     1       6.149   7.784  23.080  0.00  0.00    +0.248 C 
ATOM     30  O   UNL     1       6.765   7.719  22.027  0.00  0.00    -0.270 OA
ATOM     31  H   UNL     1       4.667   7.092  24.315  0.00  0.00    +0.155 HD
BRANCH  14  15
ATOM     15  C   UNL     1       6.738   8.646  24.149  0.00  0.00    +0.037 A 
ATOM     16  C   UNL     1       8.189   8.763  24.319  0.00  0.00    +0.013 A 
ATOM     17  C   UNL     1       8.730   9.589  25.369  0.00  0.00    +0.005 A 
ATOM     18  C   UNL     1       7.819  10.306  26.258  0.00  0.00    -0.033 A 
ATOM     28  C   UNL     1       6.384  10.177  26.064  0.00  0.00    +0.005 A 
ATOM     29  C   UNL     1       5.850   9.367  25.036  0.00  0.00    +0.013 A 
BRANCH  18  19
ATOM     19  C   UNL     1       8.307  11.193  27.418  0.00  0.00    +0.119 C 
BRANCH  19  20
ATOM     20  N   UNL     1       7.722  10.937  28.768  0.00  0.00    -0.302 NA
ATOM     21  C   UNL     1       7.003  12.169  29.325  0.00  0.00    +0.066 C 
ATOM     22  C   UNL     1       6.377  11.877  30.727  0.00  0.00    -0.064 C 
ATOM     23  N   UNL     1       7.474  11.411  31.686  0.00  0.00    +0.379 N 
ATOM     24  C   UNL     1       6.899  11.191  33.021  0.00  0.00    -0.096 C 
ATOM     25  H   UNL     1       8.221  12.235  31.770  0.00  0.00    -0.082 HD
ATOM     26  C   UNL     1       8.196  10.188  31.138  0.00  0.00    -0.064 C 
ATOM     27  C   UNL     1       8.789  10.480  29.731  0.00  0.00    +0.066 C 
ENDBRANCH  19  20
ENDBRANCH  18  19
ENDBRANCH  14  15
ENDBRANCH  12  13
TORSDOF 6
ENDMDL
MODEL 4
REMARK VINA RESULT:      -9.0     20.098     25.412
REMARK  Name = C:\Users\Docking\Desktop\test protocol\1iep_ligandH.pdb
REMARK  8 active torsions:
REMARK  status: ('A' for Active; 'I' for Inactive)
REMARK    1  A    between atoms: _5  and  _11
REMARK    2  A    between atoms: _19  and  _21
REMARK    3  A    between atoms: _22  and  _66
REMARK    4  A    between atoms: _27  and  _30
REMARK    5  A    between atoms: _32  and  _33
REMARK    6  A    between atoms: _38  and  _43
REMARK    7  A    between atoms: _43  and  _46
REMARK    8  A    between atoms: _53  and  _55
REMARK                            x       y       z     vdW  Elec       q    Type
REMARK                         _______ _______ _______ _____ _____    ______ ____
ROOT
ATOM     10  C   UNL     1       7.998  -4.385   6.128  0.00  0.00    +0.038 A 
ATOM     11  C   UNL     1       8.214  -4.548   7.520  0.00  0.00    +0.047 A 
ATOM     12  C   UNL     1       9.522  -4.313   8.111  0.00  0.00    +0.035 A 
ATOM     32  C   UNL     1      10.588  -3.910   7.255  0.00  0.00    +0.024 A 
ATOM     33  C   UNL     1      10.386  -3.740   5.837  0.00  0.00    +0.007 A 
ATOM     34  C   UNL     1       9.098  -3.973   5.248  0.00  0.00    -0.029 A 
ATOM     35  C   UNL     1       8.941  -3.783   3.722  0.00  0.00    +0.045 C 
ENDROOT
BRANCH  10   9
ATOM      4  C   UNL     1       3.368  -3.238   5.590  0.00  0.00    +0.077 A 
ATOM      5  C   UNL     1       3.497  -2.079   6.425  0.00  0.00    +0.048 A 
ATOM      6  C   UNL     1       4.770  -1.817   6.979  0.00  0.00    +0.116 A 
ATOM      7  N   UNL     1       5.828  -2.659   6.712  0.00  0.00    -0.223 NA
ATOM      8  C   UNL     1       5.669  -3.769   5.903  0.00  0.00    +0.220 A 
ATOM      9  N   UNL     1       6.721  -4.624   5.614  0.00  0.00    -0.283 N 
ATOM     36  H   UNL     1       6.562  -5.437   5.019  0.00  0.00    +0.155 HD
ATOM     37  N   UNL     1       4.463  -4.042   5.363  0.00  0.00    -0.214 NA
BRANCH   4   3
ATOM      1  C   UNL     1      -0.283  -4.505   4.985  0.00  0.00    +0.020 A 
ATOM      2  C   UNL     1       0.929  -4.123   5.672  0.00  0.00    +0.013 A 
ATOM      3  C   UNL     1       2.089  -3.646   4.928  0.00  0.00    +0.019 A 
ATOM     38  C   UNL     1       1.987  -3.565   3.479  0.00  0.00    +0.120 A 
ATOM     39  N   UNL     1       0.807  -3.941   2.844  0.00  0.00    -0.263 NA
ATOM     40  C   UNL     1      -0.314  -4.403   3.550  0.00  0.00    +0.111 A 
ENDBRANCH   4   3
ENDBRANCH  10   9
BRANCH  12  13
ATOM     13  N   UNL     1       9.803  -4.470   9.517  0.00  0.00    -0.281 N 
ATOM     14  C   UNL     1      10.008  -3.477  10.461  0.00  0.00    +0.248 C 
ATOM     30  O   UNL     1      10.193  -2.298  10.195  0.00  0.00    -0.270 OA
ATOM     31  H   UNL     1       9.858  -5.430   9.857  0.00  0.00    +0.155 HD
BRANCH  14  15
ATOM     15  C   UNL     1      10.025  -3.848  11.908  0.00  0.00    +0.037 A 
ATOM     16  C   UNL     1      10.557  -2.934  12.922  0.00  0.00    +0.013 A 
ATOM     17  C   UNL     1      10.576  -3.324  14.309  0.00  0.00    +0.005 A 
ATOM     18  C   UNL     1      10.060  -4.636  14.691  0.00  0.00    -0.033 A 
ATOM     28  C   UNL     1       9.533  -5.522  13.666  0.00  0.00    +0.005 A 
ATOM     29  C   UNL     1       9.513  -5.143  12.305  0.00  0.00    +0.013 A 
BRANCH  18  19
ATOM     19  C   UNL     1      10.061  -5.145  16.145  0.00  0.00    +0.119 C 
BRANCH  19  20
ATOM     20  N   UNL     1       8.764  -5.633  16.700  0.00  0.00    -0.302 NA
ATOM     21  C   UNL     1       7.731  -4.509  16.819  0.00  0.00    +0.066 C 
ATOM     22  C   UNL     1       6.372  -5.042  17.380  0.00  0.00    -0.064 C 
ATOM     23  N   UNL     1       6.609  -5.707  18.737  0.00  0.00    +0.379 N 
ATOM     24  C   UNL     1       5.325  -6.158  19.294  0.00  0.00    -0.096 C 
ATOM     25  H   UNL     1       7.023  -4.933  19.425  0.00  0.00    -0.082 HD
ATOM     26  C   UNL     1       7.637  -6.824  18.628  0.00  0.00    -0.064 C 
ATOM     27  C   UNL     1       8.974  -6.289  18.042  0.00  0.00    +0.066 C 
ENDBRANCH  19  20
ENDBRANCH  18  19
ENDBRANCH  14  15
ENDBRANCH  12  13
TORSDOF 6
ENDMDL
MODEL 5
REMARK VINA RESULT:      -8.9      4.420      7.298
REMARK  Name = C:\Users\Docking\Desktop\test protocol\1iep_ligandH.pdb
REMARK  8 active torsions:
REMARK  status: ('A' for Active; 'I' for Inactive)
REMARK    1  A    between atoms: _5  and  _11
REMARK    2  A    between atoms: _19  and  _21
REMARK    3  A    between atoms: _22  and  _66
REMARK    4  A    between atoms: _27  and  _30
REMARK    5  A    between atoms: _32  and  _33
REMARK    6  A    between atoms: _38  and  _43
REMARK    7  A    between atoms: _43  and  _46
REMARK    8  A    between atoms: _53  and  _55
REMARK                            x       y       z     vdW  Elec       q    Type
REMARK                         _______ _______ _______ _____ _____    ______ ____
ROOT
ATOM     10  C   UNL     1      12.160   9.775  29.392  0.00  0.00    +0.038 A 
ATOM     11  C   UNL     1      10.781   9.976  29.128  0.00  0.00    +0.047 A 
ATOM     12  C   UNL     1      10.336  10.630  27.907  0.00  0.00    +0.035 A 
ATOM     32  C   UNL     1      11.323  11.066  26.976  0.00  0.00    +0.024 A 
ATOM     33  C   UNL     1      12.729  10.871  27.228  0.00  0.00    +0.007 A 
ATOM     34  C   UNL     1      13.174  10.228  28.432  0.00  0.00    -0.029 A 
ATOM     35  C   UNL     1      14.695  10.052  28.653  0.00  0.00    +0.045 C 
ENDROOT
BRANCH  10   9
ATOM      4  C   UNL     1      13.268   9.848  34.061  0.00  0.00    +0.077 A 
ATOM      5  C   UNL     1      13.120  11.273  34.135  0.00  0.00    +0.048 A 
ATOM      6  C   UNL     1      12.765  11.951  32.947  0.00  0.00    +0.116 A 
ATOM      7  N   UNL     1      12.574  11.245  31.778  0.00  0.00    -0.223 NA
ATOM      8  C   UNL     1      12.727   9.871  31.742  0.00  0.00    +0.220 A 
ATOM      9  N   UNL     1      12.532   9.141  30.579  0.00  0.00    -0.283 N 
ATOM     36  H   UNL     1      12.661   8.130  30.592  0.00  0.00    +0.155 HD
ATOM     37  N   UNL     1      13.067   9.201  32.862  0.00  0.00    -0.214 NA
BRANCH   4   3
ATOM      1  C   UNL     1      13.100   7.282  37.009  0.00  0.00    +0.020 A 
ATOM      2  C   UNL     1      12.693   8.089  35.882  0.00  0.00    +0.013 A 
ATOM      3  C   UNL     1      13.636   8.990  35.232  0.00  0.00    +0.019 A 
ATOM     38  C   UNL     1      14.994   9.052  35.751  0.00  0.00    +0.120 A 
ATOM     39  N   UNL     1      15.357   8.264  36.839  0.00  0.00    -0.263 NA
ATOM     40  C   UNL     1      14.458   7.394  37.473  0.00  0.00    +0.111 A 
ENDBRANCH   4   3
ENDBRANCH  10   9
BRANCH  12  13
ATOM     13  N   UNL     1       8.950  10.868  27.589  0.00  0.00    -0.281 N 
ATOM     14  C   UNL     1       8.202  10.307  26.567  0.00  0.00    +0.248 C 
ATOM     30  O   UNL     1       8.673   9.673  25.635  0.00  0.00    -0.270 OA
ATOM     31  H   UNL     1       8.461  11.531  28.191  0.00  0.00    +0.155 HD
BRANCH  14  15
ATOM     15  C   UNL     1       6.719  10.490  26.573  0.00  0.00    +0.037 A 
ATOM     16  C   UNL     1       6.058  11.308  27.594  0.00  0.00    +0.013 A 
ATOM     17  C   UNL     1       4.624  11.454  27.587  0.00  0.00    +0.005 A 
ATOM     18  C   UNL     1       3.841  10.780  26.554  0.00  0.00    -0.033 A 
ATOM     28  C   UNL     1       4.522   9.979  25.551  0.00  0.00    +0.005 A 
ATOM     29  C   UNL     1       5.928   9.833  25.555  0.00  0.00    +0.013 A 
BRANCH  18  19
ATOM     19  C   UNL     1       2.304  10.862  26.483  0.00  0.00    +0.119 C 
BRANCH  19  20
ATOM     20  N   UNL     1       1.715  11.741  25.428  0.00  0.00    -0.302 NA
ATOM     21  C   UNL     1       1.814  13.224  25.795  0.00  0.00    +0.066 C 
ATOM     22  C   UNL     1       1.213  14.130  24.671  0.00  0.00    -0.064 C 
ATOM     23  N   UNL     1      -0.242  13.729  24.421  0.00  0.00    +0.379 N 
ATOM     24  C   UNL     1      -0.827  14.617  23.406  0.00  0.00    -0.096 C 
ATOM     25  H   UNL     1      -0.803  13.886  25.371  0.00  0.00    -0.082 HD
ATOM     26  C   UNL     1      -0.350  12.255  24.058  0.00  0.00    -0.064 C 
ATOM     27  C   UNL     1       0.277  11.366  25.168  0.00  0.00    +0.066 C 
ENDBRANCH  19  20
ENDBRANCH  18  19
ENDBRANCH  14  15
ENDBRANCH  12  13
TORSDOF 6
ENDMDL
