MODEL 1
REMARK VINA RESULT:      -8.3      0.000      0.000
REMARK  Name = C:\Users\Docking\Desktop\test protocol\1iep_ligandH.pdb
REMARK  8 active torsions:
REMARK  status: ('A' for Active; 'I' for Inactive)
REMARK    1  A    between atoms: _5  and  _11
REMARK    2  A    between atoms: _19  and  _21
REMARK    3  A    between atoms: _22  and  _66
REMARK    4  A    between atoms: _27  and  _30
REMARK    5  A    between atoms: _32  and  _33
REMARK    6  A    between atoms: _38  and  _43
REMARK    7  A    between atoms: _43  and  _46
REMARK    8  A    between atoms: _53  and  _55
REMARK                            x       y       z     vdW  Elec       q    Type
REMARK                         _______ _______ _______ _____ _____    ______ ____
ROOT
ATOM     10  C   UNL     1      62.116  35.908  70.462  0.00  0.00    +0.038 A 
ATOM     11  C   UNL     1      61.489  35.209  71.524  0.00  0.00    +0.047 A 
ATOM     12  C   UNL     1      61.835  33.828  71.824  0.00  0.00    +0.035 A 
ATOM     32  C   UNL     1      62.826  33.191  71.021  0.00  0.00    +0.024 A 
ATOM     33  C   UNL     1      63.472  33.886  69.937  0.00  0.00    +0.007 A 
ATOM     34  C   UNL     1      63.133  35.248  69.635  0.00  0.00    -0.029 A 
ATOM     35  C   UNL     1      63.854  35.943  68.456  0.00  0.00    +0.045 C 
ENDROOT
BRANCH  10   9
ATOM      4  C   UNL     1      59.548  39.225  68.129  0.00  0.00    +0.077 A 
ATOM      5  C   UNL     1      58.911  38.238  67.306  0.00  0.00    +0.048 A 
ATOM      6  C   UNL     1      59.277  36.889  67.510  0.00  0.00    +0.116 A 
ATOM      7  N   UNL     1      60.211  36.562  68.468  0.00  0.00    -0.223 NA
ATOM      8  C   UNL     1      60.809  37.539  69.244  0.00  0.00    +0.220 A 
ATOM      9  N   UNL     1      61.745  37.233  70.219  0.00  0.00    -0.283 N 
ATOM     36  H   UNL     1      62.168  37.983  70.765  0.00  0.00    +0.155 HD
ATOM     37  N   UNL     1      60.477  38.835  69.067  0.00  0.00    -0.214 NA
BRANCH   4   3
ATOM      1  C   UNL     1      59.038  42.848  66.744  0.00  0.00    +0.020 A 
ATOM      2  C   UNL     1      59.322  41.432  66.780  0.00  0.00    +0.013 A 
ATOM      3  C   UNL     1      59.265  40.692  68.035  0.00  0.00    +0.019 A 
ATOM     38  C   UNL     1      58.915  41.422  69.245  0.00  0.00    +0.120 A 
ATOM     39  N   UNL     1      58.649  42.786  69.180  0.00  0.00    -0.263 NA
ATOM     40  C   UNL     1      58.702  43.508  67.978  0.00  0.00    +0.111 A 
ENDBRANCH   4   3
ENDBRANCH  10   9
BRANCH  12  13
ATOM     13  N   UNL     1      61.227  33.064  72.885  0.00  0.00    -0.281 N 
ATOM     14  C   UNL     1      61.781  32.708  74.103  0.00  0.00    +0.248 C 
ATOM     30  O   UNL     1      62.967  32.812  74.380  0.00  0.00    -0.270 OA
ATOM     31  H   UNL     1      60.272  32.748  72.717  0.00  0.00    +0.155 HD
BRANCH  14  15
ATOM     15  C   UNL     1      60.892  32.142  75.163  0.00  0.00    +0.037 A 
ATOM     16  C   UNL     1      59.585  31.567  74.832  0.00  0.00    +0.013 A 
ATOM     17  C   UNL     1      58.740  31.043  75.875  0.00  0.00    +0.005 A 
ATOM     18  C   UNL     1      59.200  31.091  77.261  0.00  0.00    -0.033 A 
ATOM     28  C   UNL     1      60.502  31.662  77.561  0.00  0.00    +0.005 A 
ATOM     29  C   UNL     1      61.333  32.178  76.541  0.00  0.00    +0.013 A 
BRANCH  18  19
ATOM     19  C   UNL     1      58.355  30.575  78.441  0.00  0.00    +0.119 C 
BRANCH  19  20
ATOM     20  N   UNL     1      57.356  31.516  79.030  0.00  0.00    -0.302 NA
ATOM     21  C   UNL     1      57.252  31.365  80.550  0.00  0.00    +0.066 C 
ATOM     22  C   UNL     1      56.219  32.372  81.152  0.00  0.00    -0.064 C 
ATOM     23  N   UNL     1      54.856  32.157  80.492  0.00  0.00    +0.379 N 
ATOM     24  C   UNL     1      53.869  33.063  81.097  0.00  0.00    -0.096 C 
ATOM     25  H   UNL     1      54.536  31.112  80.712  0.00  0.00    -0.082 HD
ATOM     26  C   UNL     1      54.951  32.302  78.980  0.00  0.00    -0.064 C 
ATOM     27  C   UNL     1      56.001  31.317  78.395  0.00  0.00    +0.066 C 
ENDBRANCH  19  20
ENDBRANCH  18  19
ENDBRANCH  14  15
ENDBRANCH  12  13
TORSDOF 6
ENDMDL
MODEL 2
REMARK VINA RESULT:      -8.1      1.874      2.790
REMARK  Name = C:\Users\Docking\Desktop\test protocol\1iep_ligandH.pdb
REMARK  8 active torsions:
REMARK  status: ('A' for Active; 'I' for Inactive)
REMARK    1  A    between atoms: _5  and  _11
REMARK    2  A    between atoms: _19  and  _21
REMARK    3  A    between atoms: _22  and  _66
REMARK    4  A    between atoms: _27  and  _30
REMARK    5  A    between atoms: _32  and  _33
REMARK    6  A    between atoms: _38  and  _43
REMARK    7  A    between atoms: _43  and  _46
REMARK    8  A    between atoms: _53  and  _55
REMARK                            x       y       z     vdW  Elec       q    Type
REMARK                         _______ _______ _______ _____ _____    ______ ____
ROOT
ATOM     10  C   UNL     1      62.158  35.892  70.537  0.00  0.00    +0.038 A 
ATOM     11  C   UNL     1      61.615  35.225  71.665  0.00  0.00    +0.047 A 
ATOM     12  C   UNL     1      61.957  33.842  71.958  0.00  0.00    +0.035 A 
ATOM     32  C   UNL     1      62.859  33.169  71.083  0.00  0.00    +0.024 A 
ATOM     33  C   UNL     1      63.420  33.832  69.932  0.00  0.00    +0.007 A 
ATOM     34  C   UNL     1      63.084  35.195  69.636  0.00  0.00    -0.029 A 
ATOM     35  C   UNL     1      63.710  35.853  68.385  0.00  0.00    +0.045 C 
ENDROOT
BRANCH  10   9
ATOM      4  C   UNL     1      59.581  39.236  68.254  0.00  0.00    +0.077 A 
ATOM      5  C   UNL     1      58.921  38.256  67.440  0.00  0.00    +0.048 A 
ATOM      6  C   UNL     1      59.279  36.903  67.635  0.00  0.00    +0.116 A 
ATOM      7  N   UNL     1      60.227  36.567  68.577  0.00  0.00    -0.223 NA
ATOM      8  C   UNL     1      60.845  37.537  69.344  0.00  0.00    +0.220 A 
ATOM      9  N   UNL     1      61.795  37.220  70.303  0.00  0.00    -0.283 N 
ATOM     36  H   UNL     1      62.234  37.966  70.843  0.00  0.00    +0.155 HD
ATOM     37  N   UNL     1      60.522  38.836  69.176  0.00  0.00    -0.214 NA
BRANCH   4   3
ATOM      1  C   UNL     1      58.754  42.941  69.196  0.00  0.00    +0.020 A 
ATOM      2  C   UNL     1      59.009  41.525  69.334  0.00  0.00    +0.013 A 
ATOM      3  C   UNL     1      59.309  40.705  68.167  0.00  0.00    +0.019 A 
ATOM     38  C   UNL     1      59.344  41.354  66.865  0.00  0.00    +0.120 A 
ATOM     39  N   UNL     1      59.093  42.718  66.763  0.00  0.00    -0.263 NA
ATOM     40  C   UNL     1      58.801  43.517  67.878  0.00  0.00    +0.111 A 
ENDBRANCH   4   3
ENDBRANCH  10   9
BRANCH  12  13
ATOM     13  N   UNL     1      61.431  33.111  73.084  0.00  0.00    -0.281 N 
ATOM     14  C   UNL     1      62.071  32.800  74.272  0.00  0.00    +0.248 C 
ATOM     30  O   UNL     1      63.272  32.921  74.463  0.00  0.00    -0.270 OA
ATOM     31  H   UNL     1      60.469  32.783  72.994  0.00  0.00    +0.155 HD
BRANCH  14  15
ATOM     15  C   UNL     1      61.262  32.264  75.409  0.00  0.00    +0.037 A 
ATOM     16  C   UNL     1      59.947  31.659  75.187  0.00  0.00    +0.013 A 
ATOM     17  C   UNL     1      59.180  31.165  76.304  0.00  0.00    +0.005 A 
ATOM     18  C   UNL     1      59.728  31.274  77.653  0.00  0.00    -0.033 A 
ATOM     28  C   UNL     1      61.038  31.875  77.845  0.00  0.00    +0.005 A 
ATOM     29  C   UNL     1      61.792  32.360  76.753  0.00  0.00    +0.013 A 
BRANCH  18  19
ATOM     19  C   UNL     1      58.971  30.793  78.905  0.00  0.00    +0.119 C 
BRANCH  19  20
ATOM     20  N   UNL     1      59.783  30.204  80.012  0.00  0.00    -0.302 NA
ATOM     21  C   UNL     1      60.139  28.739  79.746  0.00  0.00    +0.066 C 
ATOM     22  C   UNL     1      61.007  28.145  80.903  0.00  0.00    -0.064 C 
ATOM     23  N   UNL     1      60.255  28.289  82.227  0.00  0.00    +0.379 N 
ATOM     24  C   UNL     1      61.044  27.679  83.307  0.00  0.00    -0.096 C 
ATOM     25  H   UNL     1      59.303  27.716  82.138  0.00  0.00    -0.082 HD
ATOM     26  C   UNL     1      59.895  29.743  82.497  0.00  0.00    -0.064 C 
ATOM     27  C   UNL     1      59.057  30.331  81.328  0.00  0.00    +0.066 C 
ENDBRANCH  19  20
ENDBRANCH  18  19
ENDBRANCH  14  15
ENDBRANCH  12  13
TORSDOF 6
ENDMDL
MODEL 3
REMARK VINA RESULT:      -8.0      1.563      2.128
REMARK  Name = C:\Users\Docking\Desktop\test protocol\1iep_ligandH.pdb
REMARK  8 active torsions:
REMARK  status: ('A' for Active; 'I' for Inactive)
REMARK    1  A    between atoms: _5  and  _11
REMARK    2  A    between atoms: _19  and  _21
REMARK    3  A    between atoms: _22  and  _66
REMARK    4  A    between atoms: _27  and  _30
REMARK    5  A    between atoms: _32  and  _33
REMARK    6  A    between atoms: _38  and  _43
REMARK    7  A    between atoms: _43  and  _46
REMARK    8  A    between atoms: _53  and  _55
REMARK                            x       y       z     vdW  Elec       q    Type
REMARK                         _______ _______ _______ _____ _____    ______ ____
ROOT
ATOM     10  C   UNL     1      62.133  36.062  70.607  0.00  0.00    +0.038 A 
ATOM     11  C   UNL     1      61.586  35.437  71.757  0.00  0.00    +0.047 A 
ATOM     12  C   UNL     1      61.935  34.069  72.107  0.00  0.00    +0.035 A 
ATOM     32  C   UNL     1      62.846  33.367  71.265  0.00  0.00    +0.024 A 
ATOM     33  C   UNL     1      63.410  33.987  70.091  0.00  0.00    +0.007 A 
ATOM     34  C   UNL     1      63.068  35.335  69.740  0.00  0.00    -0.029 A 
ATOM     35  C   UNL     1      63.698  35.947  68.467  0.00  0.00    +0.045 C 
ENDROOT
BRANCH  10   9
ATOM      4  C   UNL     1      59.560  39.298  68.168  0.00  0.00    +0.077 A 
ATOM      5  C   UNL     1      58.917  38.283  67.384  0.00  0.00    +0.048 A 
ATOM      6  C   UNL     1      59.282  36.941  67.634  0.00  0.00    +0.116 A 
ATOM      7  N   UNL     1      60.220  36.648  68.600  0.00  0.00    -0.223 NA
ATOM      8  C   UNL     1      60.823  37.650  69.337  0.00  0.00    +0.220 A 
ATOM      9  N   UNL     1      61.763  37.378  70.318  0.00  0.00    -0.283 N 
ATOM     36  H   UNL     1      62.190  38.146  70.835  0.00  0.00    +0.155 HD
ATOM     37  N   UNL     1      60.493  38.940  69.116  0.00  0.00    -0.214 NA
BRANCH   4   3
ATOM      1  C   UNL     1      59.072  42.874  66.660  0.00  0.00    +0.020 A 
ATOM      2  C   UNL     1      59.354  41.459  66.746  0.00  0.00    +0.013 A 
ATOM      3  C   UNL     1      59.279  40.761  68.023  0.00  0.00    +0.019 A 
ATOM     38  C   UNL     1      58.912  41.529  69.203  0.00  0.00    +0.120 A 
ATOM     39  N   UNL     1      58.648  42.890  69.090  0.00  0.00    -0.263 NA
ATOM     40  C   UNL     1      58.718  43.573  67.867  0.00  0.00    +0.111 A 
ENDBRANCH   4   3
ENDBRANCH  10   9
BRANCH  12  13
ATOM     13  N   UNL     1      61.406  33.379  73.258  0.00  0.00    -0.281 N 
ATOM     14  C   UNL     1      60.414  32.412  73.289  0.00  0.00    +0.248 C 
ATOM     30  O   UNL     1      59.679  32.146  72.351  0.00  0.00    -0.270 OA
ATOM     31  H   UNL     1      61.812  33.635  74.158  0.00  0.00    +0.155 HD
BRANCH  14  15
ATOM     15  C   UNL     1      60.199  31.640  74.551  0.00  0.00    +0.037 A 
ATOM     16  C   UNL     1      61.223  31.595  75.598  0.00  0.00    +0.013 A 
ATOM     17  C   UNL     1      60.997  30.828  76.798  0.00  0.00    +0.005 A 
ATOM     18  C   UNL     1      59.740  30.101  76.956  0.00  0.00    -0.033 A 
ATOM     28  C   UNL     1      58.740  30.166  75.904  0.00  0.00    +0.005 A 
ATOM     29  C   UNL     1      58.958  30.916  74.726  0.00  0.00    +0.013 A 
BRANCH  18  19
ATOM     19  C   UNL     1      59.422  29.240  78.194  0.00  0.00    +0.119 C 
BRANCH  19  20
ATOM     20  N   UNL     1      59.071  29.959  79.454  0.00  0.00    -0.302 NA
ATOM     21  C   UNL     1      58.303  31.255  79.182  0.00  0.00    +0.066 C 
ATOM     22  C   UNL     1      57.923  31.982  80.513  0.00  0.00    -0.064 C 
ATOM     23  N   UNL     1      59.194  32.264  81.317  0.00  0.00    +0.379 N 
ATOM     24  C   UNL     1      58.846  33.000  82.541  0.00  0.00    -0.096 C 
ATOM     25  H   UNL     1      59.845  32.925  80.698  0.00  0.00    -0.082 HD
ATOM     26  C   UNL     1      59.965  30.981  81.590  0.00  0.00    -0.064 C 
ATOM     27  C   UNL     1      60.311  30.251  80.262  0.00  0.00    +0.066 C 
ENDBRANCH  19  20
ENDBRANCH  18  19
ENDBRANCH  14  15
ENDBRANCH  12  13
TORSDOF 6
ENDMDL
MODEL 4
REMARK VINA RESULT:      -7.8     11.696     14.376
REMARK  Name = C:\Users\Docking\Desktop\test protocol\1iep_ligandH.pdb
REMARK  8 active torsions:
REMARK  status: ('A' for Active; 'I' for Inactive)
REMARK    1  A    between atoms: _5  and  _11
REMARK    2  A    between atoms: _19  and  _21
REMARK    3  A    between atoms: _22  and  _66
REMARK    4  A    between atoms: _27  and  _30
REMARK    5  A    between atoms: _32  and  _33
REMARK    6  A    between atoms: _38  and  _43
REMARK    7  A    between atoms: _43  and  _46
REMARK    8  A    between atoms: _53  and  _55
REMARK                            x       y       z     vdW  Elec       q    Type
REMARK                         _______ _______ _______ _____ _____    ______ ____
ROOT
ATOM     10  C   UNL     1      60.269  39.141  60.886  0.00  0.00    +0.038 A 
ATOM     11  C   UNL     1      59.631  40.142  61.662  0.00  0.00    +0.047 A 
ATOM     12  C   UNL     1      60.389  41.233  62.254  0.00  0.00    +0.035 A 
ATOM     32  C   UNL     1      61.796  41.276  62.032  0.00  0.00    +0.024 A 
ATOM     33  C   UNL     1      62.462  40.266  61.247  0.00  0.00    +0.007 A 
ATOM     34  C   UNL     1      61.720  39.186  60.663  0.00  0.00    -0.029 A 
ATOM     35  C   UNL     1      62.486  38.128  59.835  0.00  0.00    +0.045 C 
ENDROOT
BRANCH  10   9
ATOM      4  C   UNL     1      57.042  35.610  61.280  0.00  0.00    +0.077 A 
ATOM      5  C   UNL     1      56.913  35.806  62.695  0.00  0.00    +0.048 A 
ATOM      6  C   UNL     1      57.699  36.822  63.284  0.00  0.00    +0.116 A 
ATOM      7  N   UNL     1      58.548  37.578  62.506  0.00  0.00    -0.223 NA
ATOM      8  C   UNL     1      58.651  37.362  61.144  0.00  0.00    +0.220 A 
ATOM      9  N   UNL     1      59.493  38.116  60.341  0.00  0.00    -0.283 N 
ATOM     36  H   UNL     1      59.545  37.920  59.342  0.00  0.00    +0.155 HD
ATOM     37  N   UNL     1      57.912  36.397  60.558  0.00  0.00    -0.214 NA
BRANCH   4   3
ATOM      1  C   UNL     1      54.277  33.080  60.161  0.00  0.00    +0.020 A 
ATOM      2  C   UNL     1      54.976  34.076  60.939  0.00  0.00    +0.013 A 
ATOM      3  C   UNL     1      56.276  34.579  60.511  0.00  0.00    +0.019 A 
ATOM     38  C   UNL     1      56.844  34.050  59.281  0.00  0.00    +0.120 A 
ATOM     39  N   UNL     1      56.148  33.090  58.552  0.00  0.00    -0.263 NA
ATOM     40  C   UNL     1      54.898  32.597  58.955  0.00  0.00    +0.111 A 
ENDBRANCH   4   3
ENDBRANCH  10   9
BRANCH  12  13
ATOM     13  N   UNL     1      59.796  42.273  63.058  0.00  0.00    -0.281 N 
ATOM     14  C   UNL     1      59.547  42.258  64.420  0.00  0.00    +0.248 C 
ATOM     30  O   UNL     1      59.601  41.259  65.122  0.00  0.00    -0.270 OA
ATOM     31  H   UNL     1      59.528  43.123  62.562  0.00  0.00    +0.155 HD
BRANCH  14  15
ATOM     15  C   UNL     1      59.169  43.535  65.099  0.00  0.00    +0.037 A 
ATOM     16  C   UNL     1      58.854  43.571  66.529  0.00  0.00    +0.013 A 
ATOM     17  C   UNL     1      58.476  44.813  67.156  0.00  0.00    +0.005 A 
ATOM     18  C   UNL     1      58.413  46.031  66.351  0.00  0.00    -0.033 A 
ATOM     28  C   UNL     1      58.735  45.968  64.935  0.00  0.00    +0.005 A 
ATOM     29  C   UNL     1      59.105  44.752  64.318  0.00  0.00    +0.013 A 
BRANCH  18  19
ATOM     19  C   UNL     1      57.998  47.396  66.931  0.00  0.00    +0.119 C 
BRANCH  19  20
ATOM     20  N   UNL     1      58.318  47.654  68.367  0.00  0.00    -0.302 NA
ATOM     21  C   UNL     1      57.378  48.692  68.987  0.00  0.00    +0.066 C 
ATOM     22  C   UNL     1      57.712  48.933  70.495  0.00  0.00    -0.064 C 
ATOM     23  N   UNL     1      59.170  49.376  70.627  0.00  0.00    +0.379 N 
ATOM     24  C   UNL     1      59.471  49.660  72.038  0.00  0.00    -0.096 C 
ATOM     25  H   UNL     1      59.287  50.328  70.058  0.00  0.00    -0.082 HD
ATOM     26  C   UNL     1      60.112  48.352  70.010  0.00  0.00    -0.064 C 
ATOM     27  C   UNL     1      59.752  48.097  68.520  0.00  0.00    +0.066 C 
ENDBRANCH  19  20
ENDBRANCH  18  19
ENDBRANCH  14  15
ENDBRANCH  12  13
TORSDOF 6
ENDMDL
MODEL 5
REMARK VINA RESULT:      -7.7     10.019     14.647
REMARK  Name = C:\Users\Docking\Desktop\test protocol\1iep_ligandH.pdb
REMARK  8 active torsions:
REMARK  status: ('A' for Active; 'I' for Inactive)
REMARK    1  A    between atoms: _5  and  _11
REMARK    2  A    between atoms: _19  and  _21
REMARK    3  A    between atoms: _22  and  _66
REMARK    4  A    between atoms: _27  and  _30
REMARK    5  A    between atoms: _32  and  _33
REMARK    6  A    between atoms: _38  and  _43
REMARK    7  A    between atoms: _43  and  _46
REMARK    8  A    between atoms: _53  and  _55
REMARK                            x       y       z     vdW  Elec       q    Type
REMARK                         _______ _______ _______ _____ _____    ______ ____
ROOT
ATOM     10  C   UNL     1      58.831  31.671  81.515  0.00  0.00    +0.038 A 
ATOM     11  C   UNL     1      57.453  31.615  81.849  0.00  0.00    +0.047 A 
ATOM     12  C   UNL     1      56.428  31.947  80.873  0.00  0.00    +0.035 A 
ATOM     32  C   UNL     1      56.840  32.331  79.564  0.00  0.00    +0.024 A 
ATOM     33  C   UNL     1      58.236  32.395  79.207  0.00  0.00    +0.007 A 
ATOM     34  C   UNL     1      59.252  32.070  80.167  0.00  0.00    -0.029 A 
ATOM     35  C   UNL     1      60.733  32.162  79.731  0.00  0.00    +0.045 C 
ENDROOT
BRANCH  10   9
ATOM      4  C   UNL     1      61.328  28.472  84.077  0.00  0.00    +0.077 A 
ATOM      5  C   UNL     1      60.681  27.364  83.435  0.00  0.00    +0.048 A 
ATOM      6  C   UNL     1      59.707  27.661  82.456  0.00  0.00    +0.116 A 
ATOM      7  N   UNL     1      59.409  28.971  82.150  0.00  0.00    -0.223 NA
ATOM      8  C   UNL     1      60.051  30.016  82.789  0.00  0.00    +0.220 A 
ATOM      9  N   UNL     1      59.773  31.341  82.491  0.00  0.00    -0.283 N 
ATOM     36  H   UNL     1      60.263  32.083  82.991  0.00  0.00    +0.155 HD
ATOM     37  N   UNL     1      60.984  29.759  83.729  0.00  0.00    -0.214 NA
BRANCH   4   3
ATOM      1  C   UNL     1      64.681  28.760  86.072  0.00  0.00    +0.020 A 
ATOM      2  C   UNL     1      63.699  28.936  85.027  0.00  0.00    +0.013 A 
ATOM      3  C   UNL     1      62.382  28.321  85.130  0.00  0.00    +0.019 A 
ATOM     38  C   UNL     1      62.087  27.528  86.314  0.00  0.00    +0.120 A 
ATOM     39  N   UNL     1      63.053  27.374  87.304  0.00  0.00    -0.263 NA
ATOM     40  C   UNL     1      64.325  27.960  87.214  0.00  0.00    +0.111 A 
ENDBRANCH   4   3
ENDBRANCH  10   9
BRANCH  12  13
ATOM     13  N   UNL     1      55.014  31.916  81.158  0.00  0.00    -0.281 N 
ATOM     14  C   UNL     1      54.101  32.951  81.050  0.00  0.00    +0.248 C 
ATOM     30  O   UNL     1      54.402  34.126  80.896  0.00  0.00    -0.270 OA
ATOM     31  H   UNL     1      54.642  31.021  81.477  0.00  0.00    +0.155 HD
BRANCH  14  15
ATOM     15  C   UNL     1      52.642  32.640  81.141  0.00  0.00    +0.037 A 
ATOM     16  C   UNL     1      51.784  33.302  82.127  0.00  0.00    +0.013 A 
ATOM     17  C   UNL     1      50.383  32.970  82.205  0.00  0.00    +0.005 A 
ATOM     18  C   UNL     1      49.832  31.971  81.292  0.00  0.00    -0.033 A 
ATOM     28  C   UNL     1      50.705  31.334  80.321  0.00  0.00    +0.005 A 
ATOM     29  C   UNL     1      52.078  31.656  80.242  0.00  0.00    +0.013 A 
BRANCH  18  19
ATOM     19  C   UNL     1      48.353  31.540  81.319  0.00  0.00    +0.119 C 
BRANCH  19  20
ATOM     20  N   UNL     1      47.934  30.602  82.403  0.00  0.00    -0.302 NA
ATOM     21  C   UNL     1      47.512  31.345  83.674  0.00  0.00    +0.066 C 
ATOM     22  C   UNL     1      47.055  30.350  84.790  0.00  0.00    -0.064 C 
ATOM     23  N   UNL     1      48.188  29.367  85.088  0.00  0.00    +0.379 N 
ATOM     24  C   UNL     1      47.782  28.467  86.177  0.00  0.00    -0.096 C 
ATOM     25  H   UNL     1      49.063  29.958  85.445  0.00  0.00    -0.082 HD
ATOM     26  C   UNL     1      48.615  28.626  83.829  0.00  0.00    -0.064 C 
ATOM     27  C   UNL     1      49.040  29.625  82.716  0.00  0.00    +0.066 C 
ENDBRANCH  19  20
ENDBRANCH  18  19
ENDBRANCH  14  15
ENDBRANCH  12  13
TORSDOF 6
ENDMDL
