MODEL 1
REMARK VINA RESULT:      -7.7      0.000      0.000
REMARK  Name = C:\Users\Docking\Desktop\test protocol\1iep_ligandH.pdb
REMARK  8 active torsions:
REMARK  status: ('A' for Active; 'I' for Inactive)
REMARK    1  A    between atoms: _5  and  _11
REMARK    2  A    between atoms: _19  and  _21
REMARK    3  A    between atoms: _22  and  _66
REMARK    4  A    between atoms: _27  and  _30
REMARK    5  A    between atoms: _32  and  _33
REMARK    6  A    between atoms: _38  and  _43
REMARK    7  A    between atoms: _43  and  _46
REMARK    8  A    between atoms: _53  and  _55
REMARK                            x       y       z     vdW  Elec       q    Type
REMARK                         _______ _______ _______ _____ _____    ______ ____
ROOT
ATOM     10  C   UNL     1      33.955  48.966  10.368  0.00  0.00    +0.038 A 
ATOM     11  C   UNL     1      34.446  48.774  11.685  0.00  0.00    +0.047 A 
ATOM     12  C   UNL     1      34.661  47.439  12.221  0.00  0.00    +0.035 A 
ATOM     32  C   UNL     1      34.368  46.321  11.387  0.00  0.00    +0.024 A 
ATOM     33  C   UNL     1      33.868  46.497  10.046  0.00  0.00    +0.007 A 
ATOM     34  C   UNL     1      33.652  47.812   9.512  0.00  0.00    -0.029 A 
ATOM     35  C   UNL     1      33.108  47.941   8.071  0.00  0.00    +0.045 C 
ENDROOT
BRANCH  10   9
ATOM      4  C   UNL     1      35.558  53.005   8.330  0.00  0.00    +0.077 A 
ATOM      5  C   UNL     1      36.888  52.483   8.202  0.00  0.00    +0.048 A 
ATOM      6  C   UNL     1      37.120  51.174   8.680  0.00  0.00    +0.116 A 
ATOM      7  N   UNL     1      36.091  50.449   9.241  0.00  0.00    -0.223 NA
ATOM      8  C   UNL     1      34.820  50.983   9.350  0.00  0.00    +0.220 A 
ATOM      9  N   UNL     1      33.768  50.270   9.904  0.00  0.00    -0.283 N 
ATOM     36  H   UNL     1      32.847  50.702   9.973  0.00  0.00    +0.155 HD
ATOM     37  N   UNL     1      34.573  52.232   8.903  0.00  0.00    -0.214 NA
BRANCH   4   3
ATOM      1  C   UNL     1      35.620  56.575   6.731  0.00  0.00    +0.020 A 
ATOM      2  C   UNL     1      36.059  55.265   7.155  0.00  0.00    +0.013 A 
ATOM      3  C   UNL     1      35.155  54.371   7.869  0.00  0.00    +0.019 A 
ATOM     38  C   UNL     1      33.803  54.836   8.139  0.00  0.00    +0.120 A 
ATOM     39  N   UNL     1      33.409  56.103   7.720  0.00  0.00    -0.263 NA
ATOM     40  C   UNL     1      34.270  56.973   7.034  0.00  0.00    +0.111 A 
ENDBRANCH   4   3
ENDBRANCH  10   9
BRANCH  12  13
ATOM     13  N   UNL     1      35.149  47.183  13.553  0.00  0.00    -0.281 N 
ATOM     14  C   UNL     1      34.447  47.255  14.746  0.00  0.00    +0.248 C 
ATOM     30  O   UNL     1      33.342  47.762  14.868  0.00  0.00    -0.270 OA
ATOM     31  H   UNL     1      36.130  46.915  13.626  0.00  0.00    +0.155 HD
BRANCH  14  15
ATOM     15  C   UNL     1      35.070  46.697  15.984  0.00  0.00    +0.037 A 
ATOM     16  C   UNL     1      36.512  46.800  16.223  0.00  0.00    +0.013 A 
ATOM     17  C   UNL     1      37.089  46.238  17.419  0.00  0.00    +0.005 A 
ATOM     18  C   UNL     1      36.223  45.568  18.386  0.00  0.00    -0.033 A 
ATOM     28  C   UNL     1      34.795  45.485  18.126  0.00  0.00    +0.005 A 
ATOM     29  C   UNL     1      34.226  46.034  16.955  0.00  0.00    +0.013 A 
BRANCH  18  19
ATOM     19  C   UNL     1      36.755  44.921  19.678  0.00  0.00    +0.119 C 
BRANCH  19  20
ATOM     20  N   UNL     1      37.573  43.680  19.534  0.00  0.00    -0.302 NA
ATOM     21  C   UNL     1      39.052  43.992  19.294  0.00  0.00    +0.066 C 
ATOM     22  C   UNL     1      39.897  42.682  19.168  0.00  0.00    -0.064 C 
ATOM     23  N   UNL     1      39.333  41.821  18.036  0.00  0.00    +0.379 N 
ATOM     24  C   UNL     1      40.160  40.616  17.877  0.00  0.00    -0.096 C 
ATOM     25  H   UNL     1      39.410  42.411  17.093  0.00  0.00    -0.082 HD
ATOM     26  C   UNL     1      37.862  41.509  18.266  0.00  0.00    -0.064 C 
ATOM     27  C   UNL     1      37.036  42.817  18.419  0.00  0.00    +0.066 C 
ENDBRANCH  19  20
ENDBRANCH  18  19
ENDBRANCH  14  15
ENDBRANCH  12  13
TORSDOF 6
ENDMDL
MODEL 2
REMARK VINA RESULT:      -7.2      1.481      2.216
REMARK  Name = C:\Users\Docking\Desktop\test protocol\1iep_ligandH.pdb
REMARK  8 active torsions:
REMARK  status: ('A' for Active; 'I' for Inactive)
REMARK    1  A    between atoms: _5  and  _11
REMARK    2  A    between atoms: _19  and  _21
REMARK    3  A    between atoms: _22  and  _66
REMARK    4  A    between atoms: _27  and  _30
REMARK    5  A    between atoms: _32  and  _33
REMARK    6  A    between atoms: _38  and  _43
REMARK    7  A    between atoms: _43  and  _46
REMARK    8  A    between atoms: _53  and  _55
REMARK                            x       y       z     vdW  Elec       q    Type
REMARK                         _______ _______ _______ _____ _____    ______ ____
ROOT
ATOM     10  C   UNL     1      33.947  48.965  10.354  0.00  0.00    +0.038 A 
ATOM     11  C   UNL     1      34.408  48.773  11.681  0.00  0.00    +0.047 A 
ATOM     12  C   UNL     1      34.631  47.438  12.214  0.00  0.00    +0.035 A 
ATOM     32  C   UNL     1      34.376  46.321  11.366  0.00  0.00    +0.024 A 
ATOM     33  C   UNL     1      33.905  46.498  10.015  0.00  0.00    +0.007 A 
ATOM     34  C   UNL     1      33.681  47.812   9.485  0.00  0.00    -0.029 A 
ATOM     35  C   UNL     1      33.170  47.943   8.031  0.00  0.00    +0.045 C 
ENDROOT
BRANCH  10   9
ATOM      4  C   UNL     1      35.523  53.023   8.333  0.00  0.00    +0.077 A 
ATOM      5  C   UNL     1      36.857  52.513   8.208  0.00  0.00    +0.048 A 
ATOM      6  C   UNL     1      37.098  51.204   8.683  0.00  0.00    +0.116 A 
ATOM      7  N   UNL     1      36.073  50.469   9.238  0.00  0.00    -0.223 NA
ATOM      8  C   UNL     1      34.798  50.993   9.345  0.00  0.00    +0.220 A 
ATOM      9  N   UNL     1      33.750  50.269   9.894  0.00  0.00    -0.283 N 
ATOM     36  H   UNL     1      32.825  50.693   9.962  0.00  0.00    +0.155 HD
ATOM     37  N   UNL     1      34.542  52.241   8.901  0.00  0.00    -0.214 NA
BRANCH   4   3
ATOM      1  C   UNL     1      35.555  56.592   6.731  0.00  0.00    +0.020 A 
ATOM      2  C   UNL     1      36.003  55.284   7.152  0.00  0.00    +0.013 A 
ATOM      3  C   UNL     1      35.110  54.388   7.875  0.00  0.00    +0.019 A 
ATOM     38  C   UNL     1      33.760  54.849   8.160  0.00  0.00    +0.120 A 
ATOM     39  N   UNL     1      33.357  56.114   7.744  0.00  0.00    -0.263 NA
ATOM     40  C   UNL     1      34.208  56.986   7.048  0.00  0.00    +0.111 A 
ENDBRANCH   4   3
ENDBRANCH  10   9
BRANCH  12  13
ATOM     13  N   UNL     1      35.091  47.180  13.556  0.00  0.00    -0.281 N 
ATOM     14  C   UNL     1      34.342  47.145  14.721  0.00  0.00    +0.248 C 
ATOM     30  O   UNL     1      33.190  47.542  14.815  0.00  0.00    -0.270 OA
ATOM     31  H   UNL     1      36.090  47.003  13.660  0.00  0.00    +0.155 HD
BRANCH  14  15
ATOM     15  C   UNL     1      34.968  46.603  15.966  0.00  0.00    +0.037 A 
ATOM     16  C   UNL     1      36.423  46.579  16.136  0.00  0.00    +0.013 A 
ATOM     17  C   UNL     1      37.001  46.035  17.339  0.00  0.00    +0.005 A 
ATOM     18  C   UNL     1      36.123  45.511  18.383  0.00  0.00    -0.033 A 
ATOM     28  C   UNL     1      34.683  45.552  18.190  0.00  0.00    +0.005 A 
ATOM     29  C   UNL     1      34.112  46.084  17.011  0.00  0.00    +0.013 A 
BRANCH  18  19
ATOM     19  C   UNL     1      36.653  44.893  19.690  0.00  0.00    +0.119 C 
BRANCH  19  20
ATOM     20  N   UNL     1      37.766  45.609  20.382  0.00  0.00    -0.302 NA
ATOM     21  C   UNL     1      39.108  44.892  20.205  0.00  0.00    +0.066 C 
ATOM     22  C   UNL     1      40.265  45.666  20.917  0.00  0.00    -0.064 C 
ATOM     23  N   UNL     1      39.929  45.828  22.400  0.00  0.00    +0.379 N 
ATOM     24  C   UNL     1      41.042  46.504  23.084  0.00  0.00    -0.096 C 
ATOM     25  H   UNL     1      39.833  44.807  22.838  0.00  0.00    -0.082 HD
ATOM     26  C   UNL     1      38.596  46.537  22.586  0.00  0.00    -0.064 C 
ATOM     27  C   UNL     1      37.458  45.776  21.850  0.00  0.00    +0.066 C 
ENDBRANCH  19  20
ENDBRANCH  18  19
ENDBRANCH  14  15
ENDBRANCH  12  13
TORSDOF 6
ENDMDL
MODEL 3
REMARK VINA RESULT:      -7.2      9.153     19.490
REMARK  Name = C:\Users\Docking\Desktop\test protocol\1iep_ligandH.pdb
REMARK  8 active torsions:
REMARK  status: ('A' for Active; 'I' for Inactive)
REMARK    1  A    between atoms: _5  and  _11
REMARK    2  A    between atoms: _19  and  _21
REMARK    3  A    between atoms: _22  and  _66
REMARK    4  A    between atoms: _27  and  _30
REMARK    5  A    between atoms: _32  and  _33
REMARK    6  A    between atoms: _38  and  _43
REMARK    7  A    between atoms: _43  and  _46
REMARK    8  A    between atoms: _53  and  _55
REMARK                            x       y       z     vdW  Elec       q    Type
REMARK                         _______ _______ _______ _____ _____    ______ ____
ROOT
ATOM     10  C   UNL     1      37.601  58.244   4.953  0.00  0.00    +0.038 A 
ATOM     11  C   UNL     1      37.601  58.122   3.540  0.00  0.00    +0.047 A 
ATOM     12  C   UNL     1      37.576  59.298   2.683  0.00  0.00    +0.035 A 
ATOM     32  C   UNL     1      37.554  60.583   3.299  0.00  0.00    +0.024 A 
ATOM     33  C   UNL     1      37.552  60.725   4.734  0.00  0.00    +0.007 A 
ATOM     34  C   UNL     1      37.574  59.569   5.584  0.00  0.00    -0.029 A 
ATOM     35  C   UNL     1      37.564  59.781   7.116  0.00  0.00    +0.045 C 
ENDROOT
BRANCH  10   9
ATOM      4  C   UNL     1      35.448  54.912   7.654  0.00  0.00    +0.077 A 
ATOM      5  C   UNL     1      34.171  55.555   7.535  0.00  0.00    +0.048 A 
ATOM      6  C   UNL     1      34.113  56.745   6.775  0.00  0.00    +0.116 A 
ATOM      7  N   UNL     1      35.252  57.245   6.184  0.00  0.00    -0.223 NA
ATOM      8  C   UNL     1      36.468  56.601   6.320  0.00  0.00    +0.220 A 
ATOM      9  N   UNL     1      37.625  57.082   5.727  0.00  0.00    -0.283 N 
ATOM     36  H   UNL     1      38.504  56.582   5.858  0.00  0.00    +0.155 HD
ATOM     37  N   UNL     1      36.551  55.464   7.042  0.00  0.00    -0.214 NA
BRANCH   4   3
ATOM      1  C   UNL     1      36.654  51.338   8.690  0.00  0.00    +0.020 A 
ATOM      2  C   UNL     1      36.470  52.540   7.909  0.00  0.00    +0.013 A 
ATOM      3  C   UNL     1      35.670  53.646   8.421  0.00  0.00    +0.019 A 
ATOM     38  C   UNL     1      35.067  53.503   9.737  0.00  0.00    +0.120 A 
ATOM     39  N   UNL     1      35.260  52.334  10.466  0.00  0.00    -0.263 NA
ATOM     40  C   UNL     1      36.026  51.262   9.983  0.00  0.00    +0.111 A 
ENDBRANCH   4   3
ENDBRANCH  10   9
BRANCH  12  13
ATOM     13  N   UNL     1      37.568  59.236   1.243  0.00  0.00    -0.281 N 
ATOM     14  C   UNL     1      38.490  59.775   0.361  0.00  0.00    +0.248 C 
ATOM     30  O   UNL     1      39.355  60.580   0.673  0.00  0.00    -0.270 OA
ATOM     31  H   UNL     1      36.786  58.733   0.821  0.00  0.00    +0.155 HD
BRANCH  14  15
ATOM     15  C   UNL     1      38.436  59.372  -1.077  0.00  0.00    +0.037 A 
ATOM     16  C   UNL     1      39.371  59.929  -2.058  0.00  0.00    +0.013 A 
ATOM     17  C   UNL     1      39.286  59.536  -3.442  0.00  0.00    +0.005 A 
ATOM     18  C   UNL     1      38.260  58.581  -3.854  0.00  0.00    -0.033 A 
ATOM     28  C   UNL     1      37.348  58.041  -2.859  0.00  0.00    +0.005 A 
ATOM     29  C   UNL     1      37.428  58.423  -1.502  0.00  0.00    +0.013 A 
BRANCH  18  19
ATOM     19  C   UNL     1      38.082  58.121  -5.313  0.00  0.00    +0.119 C 
BRANCH  19  20
ATOM     20  N   UNL     1      37.532  59.117  -6.281  0.00  0.00    -0.302 NA
ATOM     21  C   UNL     1      36.054  59.417  -6.018  0.00  0.00    +0.066 C 
ATOM     22  C   UNL     1      35.500  60.477  -7.025  0.00  0.00    -0.064 C 
ATOM     23  N   UNL     1      35.705  59.974  -8.455  0.00  0.00    +0.379 N 
ATOM     24  C   UNL     1      35.133  60.942  -9.402  0.00  0.00    -0.096 C 
ATOM     25  H   UNL     1      35.137  59.020  -8.562  0.00  0.00    -0.082 HD
ATOM     26  C   UNL     1      37.172  59.670  -8.724  0.00  0.00    -0.064 C 
ATOM     27  C   UNL     1      37.719  58.638  -7.699  0.00  0.00    +0.066 C 
ENDBRANCH  19  20
ENDBRANCH  18  19
ENDBRANCH  14  15
ENDBRANCH  12  13
TORSDOF 6
ENDMDL
MODEL 4
REMARK VINA RESULT:      -7.1     20.586     25.512
REMARK  Name = C:\Users\Docking\Desktop\test protocol\1iep_ligandH.pdb
REMARK  8 active torsions:
REMARK  status: ('A' for Active; 'I' for Inactive)
REMARK    1  A    between atoms: _5  and  _11
REMARK    2  A    between atoms: _19  and  _21
REMARK    3  A    between atoms: _22  and  _66
REMARK    4  A    between atoms: _27  and  _30
REMARK    5  A    between atoms: _32  and  _33
REMARK    6  A    between atoms: _38  and  _43
REMARK    7  A    between atoms: _43  and  _46
REMARK    8  A    between atoms: _53  and  _55
REMARK                            x       y       z     vdW  Elec       q    Type
REMARK                         _______ _______ _______ _____ _____    ______ ____
ROOT
ATOM     10  C   UNL     1      23.433  42.956  -3.996  0.00  0.00    +0.038 A 
ATOM     11  C   UNL     1      23.787  42.043  -5.022  0.00  0.00    +0.047 A 
ATOM     12  C   UNL     1      23.036  40.815  -5.230  0.00  0.00    +0.035 A 
ATOM     32  C   UNL     1      21.927  40.549  -4.376  0.00  0.00    +0.024 A 
ATOM     33  C   UNL     1      21.553  41.465  -3.327  0.00  0.00    +0.007 A 
ATOM     34  C   UNL     1      22.292  42.677  -3.115  0.00  0.00    -0.029 A 
ATOM     35  C   UNL     1      21.850  43.619  -1.972  0.00  0.00    +0.045 C 
ENDROOT
BRANCH  10   9
ATOM      4  C   UNL     1      24.401  47.543  -5.026  0.00  0.00    +0.077 A 
ATOM      5  C   UNL     1      23.326  47.618  -5.973  0.00  0.00    +0.048 A 
ATOM      6  C   UNL     1      22.552  46.453  -6.171  0.00  0.00    +0.116 A 
ATOM      7  N   UNL     1      22.841  45.303  -5.469  0.00  0.00    -0.223 NA
ATOM      8  C   UNL     1      23.886  45.263  -4.564  0.00  0.00    +0.220 A 
ATOM      9  N   UNL     1      24.189  44.120  -3.841  0.00  0.00    -0.283 N 
ATOM     36  H   UNL     1      24.973  44.129  -3.189  0.00  0.00    +0.155 HD
ATOM     37  N   UNL     1      24.641  46.362  -4.358  0.00  0.00    -0.214 NA
BRANCH   4   3
ATOM      1  C   UNL     1      27.244  50.223  -5.219  0.00  0.00    +0.020 A 
ATOM      2  C   UNL     1      26.399  49.106  -5.576  0.00  0.00    +0.013 A 
ATOM      3  C   UNL     1      25.306  48.691  -4.705  0.00  0.00    +0.019 A 
ATOM     38  C   UNL     1      25.094  49.432  -3.471  0.00  0.00    +0.120 A 
ATOM     39  N   UNL     1      25.924  50.502  -3.153  0.00  0.00    -0.263 NA
ATOM     40  C   UNL     1      26.980  50.910  -3.983  0.00  0.00    +0.111 A 
ENDBRANCH   4   3
ENDBRANCH  10   9
BRANCH  12  13
ATOM     13  N   UNL     1      23.354  39.847  -6.250  0.00  0.00    -0.281 N 
ATOM     14  C   UNL     1      24.515  39.104  -6.386  0.00  0.00    +0.248 C 
ATOM     30  O   UNL     1      25.548  39.316  -5.769  0.00  0.00    -0.270 OA
ATOM     31  H   UNL     1      22.637  39.691  -6.958  0.00  0.00    +0.155 HD
BRANCH  14  15
ATOM     15  C   UNL     1      24.537  37.970  -7.360  0.00  0.00    +0.037 A 
ATOM     16  C   UNL     1      23.664  36.805  -7.189  0.00  0.00    +0.013 A 
ATOM     17  C   UNL     1      23.717  35.718  -8.134  0.00  0.00    +0.005 A 
ATOM     18  C   UNL     1      24.646  35.791  -9.259  0.00  0.00    -0.033 A 
ATOM     28  C   UNL     1      25.496  36.960  -9.407  0.00  0.00    +0.005 A 
ATOM     29  C   UNL     1      25.448  38.028  -8.483  0.00  0.00    +0.013 A 
BRANCH  18  19
ATOM     19  C   UNL     1      24.784  34.667 -10.303  0.00  0.00    +0.119 C 
BRANCH  19  20
ATOM     20  N   UNL     1      24.137  34.884 -11.631  0.00  0.00    -0.302 NA
ATOM     21  C   UNL     1      22.809  34.133 -11.753  0.00  0.00    +0.066 C 
ATOM     22  C   UNL     1      22.134  34.389 -13.140  0.00  0.00    -0.064 C 
ATOM     23  N   UNL     1      23.095  33.975 -14.256  0.00  0.00    +0.379 N 
ATOM     24  C   UNL     1      22.443  34.160 -15.560  0.00  0.00    -0.096 C 
ATOM     25  H   UNL     1      23.305  32.886 -14.134  0.00  0.00    -0.082 HD
ATOM     26  C   UNL     1      24.420  34.715 -14.141  0.00  0.00    -0.064 C 
ATOM     27  C   UNL     1      25.067  34.477 -12.748  0.00  0.00    +0.066 C 
ENDBRANCH  19  20
ENDBRANCH  18  19
ENDBRANCH  14  15
ENDBRANCH  12  13
TORSDOF 6
ENDMDL
MODEL 5
REMARK VINA RESULT:      -7.0     18.264     23.075
REMARK  Name = C:\Users\Docking\Desktop\test protocol\1iep_ligandH.pdb
REMARK  8 active torsions:
REMARK  status: ('A' for Active; 'I' for Inactive)
REMARK    1  A    between atoms: _5  and  _11
REMARK    2  A    between atoms: _19  and  _21
REMARK    3  A    between atoms: _22  and  _66
REMARK    4  A    between atoms: _27  and  _30
REMARK    5  A    between atoms: _32  and  _33
REMARK    6  A    between atoms: _38  and  _43
REMARK    7  A    between atoms: _43  and  _46
REMARK    8  A    between atoms: _53  and  _55
REMARK                            x       y       z     vdW  Elec       q    Type
REMARK                         _______ _______ _______ _____ _____    ______ ____
ROOT
ATOM     10  C   UNL     1      23.843  46.770  -4.338  0.00  0.00    +0.038 A 
ATOM     11  C   UNL     1      24.237  45.414  -4.476  0.00  0.00    +0.047 A 
ATOM     12  C   UNL     1      23.492  44.496  -5.323  0.00  0.00    +0.035 A 
ATOM     32  C   UNL     1      22.351  44.994  -6.018  0.00  0.00    +0.024 A 
ATOM     33  C   UNL     1      21.935  46.368  -5.888  0.00  0.00    +0.007 A 
ATOM     34  C   UNL     1      22.665  47.278  -5.052  0.00  0.00    -0.029 A 
ATOM     35  C   UNL     1      22.171  48.739  -4.945  0.00  0.00    +0.045 C 
ENDROOT
BRANCH  10   9
ATOM      4  C   UNL     1      27.146  50.184  -3.652  0.00  0.00    +0.077 A 
ATOM      5  C   UNL     1      27.414  50.290  -5.058  0.00  0.00    +0.048 A 
ATOM      6  C   UNL     1      26.685  49.443  -5.923  0.00  0.00    +0.116 A 
ATOM      7  N   UNL     1      25.760  48.560  -5.410  0.00  0.00    -0.223 NA
ATOM      8  C   UNL     1      25.527  48.482  -4.049  0.00  0.00    +0.220 A 
ATOM      9  N   UNL     1      24.596  47.607  -3.512  0.00  0.00    -0.283 N 
ATOM     36  H   UNL     1      24.458  47.574  -2.502  0.00  0.00    +0.155 HD
ATOM     37  N   UNL     1      26.211  49.279  -3.202  0.00  0.00    -0.214 NA
BRANCH   4   3
ATOM      1  C   UNL     1      29.723  52.478  -1.809  0.00  0.00    +0.020 A 
ATOM      2  C   UNL     1      29.103  51.688  -2.847  0.00  0.00    +0.013 A 
ATOM      3  C   UNL     1      27.832  51.014  -2.612  0.00  0.00    +0.019 A 
ATOM     38  C   UNL     1      27.209  51.162  -1.305  0.00  0.00    +0.120 A 
ATOM     39  N   UNL     1      27.831  51.928  -0.324  0.00  0.00    -0.263 NA
ATOM     40  C   UNL     1      29.055  52.579  -0.538  0.00  0.00    +0.111 A 
ENDBRANCH   4   3
ENDBRANCH  10   9
BRANCH  12  13
ATOM     13  N   UNL     1      23.839  43.108  -5.496  0.00  0.00    -0.281 N 
ATOM     14  C   UNL     1      23.309  42.009  -4.840  0.00  0.00    +0.248 C 
ATOM     30  O   UNL     1      22.601  42.073  -3.846  0.00  0.00    -0.270 OA
ATOM     31  H   UNL     1      24.565  42.911  -6.186  0.00  0.00    +0.155 HD
BRANCH  14  15
ATOM     15  C   UNL     1      23.622  40.641  -5.354  0.00  0.00    +0.037 A 
ATOM     16  C   UNL     1      22.792  39.487  -4.998  0.00  0.00    +0.013 A 
ATOM     17  C   UNL     1      23.126  38.175  -5.493  0.00  0.00    +0.005 A 
ATOM     18  C   UNL     1      24.296  38.011  -6.352  0.00  0.00    -0.033 A 
ATOM     28  C   UNL     1      25.099  39.173  -6.694  0.00  0.00    +0.005 A 
ATOM     29  C   UNL     1      24.776  40.460  -6.209  0.00  0.00    +0.013 A 
BRANCH  18  19
ATOM     19  C   UNL     1      24.740  36.645  -6.909  0.00  0.00    +0.119 C 
BRANCH  19  20
ATOM     20  N   UNL     1      24.378  36.334  -8.324  0.00  0.00    -0.302 NA
ATOM     21  C   UNL     1      23.134  35.446  -8.417  0.00  0.00    +0.066 C 
ATOM     22  C   UNL     1      22.756  35.148  -9.905  0.00  0.00    -0.064 C 
ATOM     23  N   UNL     1      23.945  34.490 -10.608  0.00  0.00    +0.379 N 
ATOM     24  C   UNL     1      23.574  34.157 -11.991  0.00  0.00    -0.096 C 
ATOM     25  H   UNL     1      24.165  33.535 -10.077  0.00  0.00    -0.082 HD
ATOM     26  C   UNL     1      25.187  35.366 -10.518  0.00  0.00    -0.064 C 
ATOM     27  C   UNL     1      25.536  35.679  -9.036  0.00  0.00    +0.066 C 
ENDBRANCH  19  20
ENDBRANCH  18  19
ENDBRANCH  14  15
ENDBRANCH  12  13
TORSDOF 6
ENDMDL
