MODEL 1
REMARK VINA RESULT:      -9.4      0.000      0.000
REMARK  Name = C:\Users\Docking\Desktop\test protocol\1iep_ligandH.pdb
REMARK  8 active torsions:
REMARK  status: ('A' for Active; 'I' for Inactive)
REMARK    1  A    between atoms: _5  and  _11
REMARK    2  A    between atoms: _19  and  _21
REMARK    3  A    between atoms: _22  and  _66
REMARK    4  A    between atoms: _27  and  _30
REMARK    5  A    between atoms: _32  and  _33
REMARK    6  A    between atoms: _38  and  _43
REMARK    7  A    between atoms: _43  and  _46
REMARK    8  A    between atoms: _53  and  _55
REMARK                            x       y       z     vdW  Elec       q    Type
REMARK                         _______ _______ _______ _____ _____    ______ ____
ROOT
ATOM     10  C   UNL     1      -9.591  15.334  31.482  0.00  0.00    +0.038 A 
ATOM     11  C   UNL     1      -9.154  15.473  30.140  0.00  0.00    +0.047 A 
ATOM     12  C   UNL     1      -8.243  16.539  29.752  0.00  0.00    +0.035 A 
ATOM     32  C   UNL     1      -7.796  17.445  30.758  0.00  0.00    +0.024 A 
ATOM     33  C   UNL     1      -8.231  17.319  32.126  0.00  0.00    +0.007 A 
ATOM     34  C   UNL     1      -9.132  16.271  32.514  0.00  0.00    -0.029 A 
ATOM     35  C   UNL     1      -9.571  16.188  33.995  0.00  0.00    +0.045 C 
ENDROOT
BRANCH  10   9
ATOM      4  C   UNL     1     -13.641  12.851  30.797  0.00  0.00    +0.077 A 
ATOM      5  C   UNL     1     -14.063  13.719  29.735  0.00  0.00    +0.048 A 
ATOM      6  C   UNL     1     -13.213  14.796  29.401  0.00  0.00    +0.116 A 
ATOM      7  N   UNL     1     -12.031  14.983  30.084  0.00  0.00    -0.223 NA
ATOM      8  C   UNL     1     -11.654  14.128  31.104  0.00  0.00    +0.220 A 
ATOM      9  N   UNL     1     -10.466  14.292  31.799  0.00  0.00    -0.283 N 
ATOM     36  H   UNL     1     -10.228  13.645  32.550  0.00  0.00    +0.155 HD
ATOM     37  N   UNL     1     -12.450  13.093  31.443  0.00  0.00    -0.214 NA
BRANCH   4   3
ATOM      1  C   UNL     1     -14.723   9.194  31.665  0.00  0.00    +0.020 A 
ATOM      2  C   UNL     1     -13.921  10.302  31.201  0.00  0.00    +0.013 A 
ATOM      3  C   UNL     1     -14.430  11.667  31.263  0.00  0.00    +0.019 A 
ATOM     38  C   UNL     1     -15.763  11.877  31.806  0.00  0.00    +0.120 A 
ATOM     39  N   UNL     1     -16.513  10.790  32.245  0.00  0.00    -0.263 NA
ATOM     40  C   UNL     1     -16.035   9.472  32.188  0.00  0.00    +0.111 A 
ENDBRANCH   4   3
ENDBRANCH  10   9
BRANCH  12  13
ATOM     13  N   UNL     1      -7.771  16.734  28.404  0.00  0.00    -0.281 N 
ATOM     14  C   UNL     1      -8.435  17.337  27.348  0.00  0.00    +0.248 C 
ATOM     30  O   UNL     1      -9.625  17.612  27.347  0.00  0.00    -0.270 OA
ATOM     31  H   UNL     1      -6.833  16.385  28.203  0.00  0.00    +0.155 HD
BRANCH  14  15
ATOM     15  C   UNL     1      -7.668  17.671  26.109  0.00  0.00    +0.037 A 
ATOM     16  C   UNL     1      -6.357  18.322  26.179  0.00  0.00    +0.013 A 
ATOM     17  C   UNL     1      -5.646  18.648  24.968  0.00  0.00    +0.005 A 
ATOM     18  C   UNL     1      -6.245  18.322  23.676  0.00  0.00    -0.033 A 
ATOM     28  C   UNL     1      -7.544  17.672  23.636  0.00  0.00    +0.005 A 
ATOM     29  C   UNL     1      -8.244  17.352  24.821  0.00  0.00    +0.013 A 
BRANCH  18  19
ATOM     19  C   UNL     1      -5.568  18.653  22.333  0.00  0.00    +0.119 C 
BRANCH  19  20
ATOM     20  N   UNL     1      -4.928  17.524  21.594  0.00  0.00    -0.302 NA
ATOM     21  C   UNL     1      -3.416  17.714  21.451  0.00  0.00    +0.066 C 
ATOM     22  C   UNL     1      -2.760  16.513  20.695  0.00  0.00    -0.064 C 
ATOM     23  N   UNL     1      -3.418  16.358  19.323  0.00  0.00    +0.379 N 
ATOM     24  C   UNL     1      -2.764  15.266  18.586  0.00  0.00    -0.096 C 
ATOM     25  H   UNL     1      -3.243  17.301  18.755  0.00  0.00    -0.082 HD
ATOM     26  C   UNL     1      -4.923  16.171  19.455  0.00  0.00    -0.064 C 
ATOM     27  C   UNL     1      -5.560  17.356  20.234  0.00  0.00    +0.066 C 
ENDBRANCH  19  20
ENDBRANCH  18  19
ENDBRANCH  14  15
ENDBRANCH  12  13
TORSDOF 6
ENDMDL
MODEL 2
REMARK VINA RESULT:      -9.3      1.371      2.261
REMARK  Name = C:\Users\Docking\Desktop\test protocol\1iep_ligandH.pdb
REMARK  8 active torsions:
REMARK  status: ('A' for Active; 'I' for Inactive)
REMARK    1  A    between atoms: _5  and  _11
REMARK    2  A    between atoms: _19  and  _21
REMARK    3  A    between atoms: _22  and  _66
REMARK    4  A    between atoms: _27  and  _30
REMARK    5  A    between atoms: _32  and  _33
REMARK    6  A    between atoms: _38  and  _43
REMARK    7  A    between atoms: _43  and  _46
REMARK    8  A    between atoms: _53  and  _55
REMARK                            x       y       z     vdW  Elec       q    Type
REMARK                         _______ _______ _______ _____ _____    ______ ____
ROOT
ATOM     10  C   UNL     1      -8.790  15.665  29.511  0.00  0.00    +0.038 A 
ATOM     11  C   UNL     1      -8.515  15.588  28.122  0.00  0.00    +0.047 A 
ATOM     12  C   UNL     1      -7.689  16.588  27.462  0.00  0.00    +0.035 A 
ATOM     32  C   UNL     1      -7.157  17.651  28.248  0.00  0.00    +0.024 A 
ATOM     33  C   UNL     1      -7.428  17.745  29.662  0.00  0.00    +0.007 A 
ATOM     34  C   UNL     1      -8.243  16.764  30.318  0.00  0.00    -0.029 A 
ATOM     35  C   UNL     1      -8.506  16.918  31.834  0.00  0.00    +0.045 C 
ENDROOT
BRANCH  10   9
ATOM      4  C   UNL     1     -12.990  13.416  30.091  0.00  0.00    +0.077 A 
ATOM      5  C   UNL     1     -13.656  14.299  29.176  0.00  0.00    +0.048 A 
ATOM      6  C   UNL     1     -12.883  15.323  28.584  0.00  0.00    +0.116 A 
ATOM      7  N   UNL     1     -11.545  15.445  28.890  0.00  0.00    -0.223 NA
ATOM      8  C   UNL     1     -10.935  14.578  29.777  0.00  0.00    +0.220 A 
ATOM      9  N   UNL     1      -9.588  14.678  30.094  0.00  0.00    -0.283 N 
ATOM     36  H   UNL     1      -9.177  14.024  30.759  0.00  0.00    +0.155 HD
ATOM     37  N   UNL     1     -11.651  13.593  30.358  0.00  0.00    -0.214 NA
BRANCH   4   3
ATOM      1  C   UNL     1     -13.813   9.878  31.542  0.00  0.00    +0.020 A 
ATOM      2  C   UNL     1     -13.116  10.937  30.848  0.00  0.00    +0.013 A 
ATOM      3  C   UNL     1     -13.670  12.284  30.795  0.00  0.00    +0.019 A 
ATOM     38  C   UNL     1     -14.942  12.528  31.459  0.00  0.00    +0.120 A 
ATOM     39  N   UNL     1     -15.591  11.489  32.118  0.00  0.00    -0.263 NA
ATOM     40  C   UNL     1     -15.068  10.189  32.175  0.00  0.00    +0.111 A 
ENDBRANCH   4   3
ENDBRANCH  10   9
BRANCH  12  13
ATOM     13  N   UNL     1      -7.382  16.566  26.053  0.00  0.00    -0.281 N 
ATOM     14  C   UNL     1      -8.142  17.067  25.009  0.00  0.00    +0.248 C 
ATOM     30  O   UNL     1      -9.307  17.422  25.109  0.00  0.00    -0.270 OA
ATOM     31  H   UNL     1      -6.498  16.128  25.795  0.00  0.00    +0.155 HD
BRANCH  14  15
ATOM     15  C   UNL     1      -7.522  17.176  23.653  0.00  0.00    +0.037 A 
ATOM     16  C   UNL     1      -8.172  16.603  22.472  0.00  0.00    +0.013 A 
ATOM     17  C   UNL     1      -7.544  16.707  21.179  0.00  0.00    +0.005 A 
ATOM     18  C   UNL     1      -6.258  17.390  21.060  0.00  0.00    -0.033 A 
ATOM     28  C   UNL     1      -5.638  17.955  22.247  0.00  0.00    +0.005 A 
ATOM     29  C   UNL     1      -6.250  17.853  23.517  0.00  0.00    +0.013 A 
BRANCH  18  19
ATOM     19  C   UNL     1      -5.506  17.531  19.723  0.00  0.00    +0.119 C 
BRANCH  19  20
ATOM     20  N   UNL     1      -4.219  16.786  19.581  0.00  0.00    -0.302 NA
ATOM     21  C   UNL     1      -3.004  17.705  19.731  0.00  0.00    +0.066 C 
ATOM     22  C   UNL     1      -1.666  16.905  19.602  0.00  0.00    -0.064 C 
ATOM     23  N   UNL     1      -1.636  16.182  18.255  0.00  0.00    +0.379 N 
ATOM     24  C   UNL     1      -0.354  15.476  18.106  0.00  0.00    -0.096 C 
ATOM     25  H   UNL     1      -1.691  16.956  17.454  0.00  0.00    -0.082 HD
ATOM     26  C   UNL     1      -2.842  15.268  18.096  0.00  0.00    -0.064 C 
ATOM     27  C   UNL     1      -4.166  16.067  18.255  0.00  0.00    +0.066 C 
ENDBRANCH  19  20
ENDBRANCH  18  19
ENDBRANCH  14  15
ENDBRANCH  12  13
TORSDOF 6
ENDMDL
MODEL 3
REMARK VINA RESULT:      -9.3      3.366      4.861
REMARK  Name = C:\Users\Docking\Desktop\test protocol\1iep_ligandH.pdb
REMARK  8 active torsions:
REMARK  status: ('A' for Active; 'I' for Inactive)
REMARK    1  A    between atoms: _5  and  _11
REMARK    2  A    between atoms: _19  and  _21
REMARK    3  A    between atoms: _22  and  _66
REMARK    4  A    between atoms: _27  and  _30
REMARK    5  A    between atoms: _32  and  _33
REMARK    6  A    between atoms: _38  and  _43
REMARK    7  A    between atoms: _43  and  _46
REMARK    8  A    between atoms: _53  and  _55
REMARK                            x       y       z     vdW  Elec       q    Type
REMARK                         _______ _______ _______ _____ _____    ______ ____
ROOT
ATOM     10  C   UNL     1     -12.756  13.251  31.051  0.00  0.00    +0.038 A 
ATOM     11  C   UNL     1     -11.610  13.836  30.455  0.00  0.00    +0.047 A 
ATOM     12  C   UNL     1     -11.724  14.688  29.281  0.00  0.00    +0.035 A 
ATOM     32  C   UNL     1     -13.022  14.925  28.743  0.00  0.00    +0.024 A 
ATOM     33  C   UNL     1     -14.198  14.338  29.335  0.00  0.00    +0.007 A 
ATOM     34  C   UNL     1     -14.091  13.494  30.491  0.00  0.00    -0.029 A 
ATOM     35  C   UNL     1     -15.384  12.886  31.081  0.00  0.00    +0.045 C 
ENDROOT
BRANCH  10   9
ATOM      4  C   UNL     1     -12.161  12.637  35.774  0.00  0.00    +0.077 A 
ATOM      5  C   UNL     1     -12.158  14.051  36.017  0.00  0.00    +0.048 A 
ATOM      6  C   UNL     1     -12.304  14.902  34.898  0.00  0.00    +0.116 A 
ATOM      7  N   UNL     1     -12.444  14.368  33.636  0.00  0.00    -0.223 NA
ATOM      8  C   UNL     1     -12.441  13.000  33.436  0.00  0.00    +0.220 A 
ATOM      9  N   UNL     1     -12.588  12.441  32.176  0.00  0.00    -0.283 N 
ATOM     36  H   UNL     1     -12.574  11.426  32.070  0.00  0.00    +0.155 HD
ATOM     37  N   UNL     1     -12.301  12.166  34.488  0.00  0.00    -0.214 NA
BRANCH   4   3
ATOM      1  C   UNL     1     -11.996   9.228  37.684  0.00  0.00    +0.020 A 
ATOM      2  C   UNL     1     -12.142  10.179  36.606  0.00  0.00    +0.013 A 
ATOM      3  C   UNL     1     -12.019  11.610  36.853  0.00  0.00    +0.019 A 
ATOM     38  C   UNL     1     -11.746  12.049  38.213  0.00  0.00    +0.120 A 
ATOM     39  N   UNL     1     -11.611  11.110  39.232  0.00  0.00    -0.263 NA
ATOM     40  C   UNL     1     -11.729   9.731  39.006  0.00  0.00    +0.111 A 
ENDBRANCH   4   3
ENDBRANCH  10   9
BRANCH  12  13
ATOM     13  N   UNL     1     -10.595  15.303  28.628  0.00  0.00    -0.281 N 
ATOM     14  C   UNL     1      -9.771  16.304  29.115  0.00  0.00    +0.248 C 
ATOM     30  O   UNL     1     -10.011  16.975  30.108  0.00  0.00    -0.270 OA
ATOM     31  H   UNL     1     -10.377  14.958  27.693  0.00  0.00    +0.155 HD
BRANCH  14  15
ATOM     15  C   UNL     1      -8.503  16.614  28.386  0.00  0.00    +0.037 A 
ATOM     16  C   UNL     1      -8.284  16.153  27.013  0.00  0.00    +0.013 A 
ATOM     17  C   UNL     1      -7.045  16.451  26.339  0.00  0.00    +0.005 A 
ATOM     18  C   UNL     1      -6.016  17.216  27.038  0.00  0.00    -0.033 A 
ATOM     28  C   UNL     1      -6.261  17.665  28.398  0.00  0.00    +0.005 A 
ATOM     29  C   UNL     1      -7.474  17.374  29.062  0.00  0.00    +0.013 A 
BRANCH  18  19
ATOM     19  C   UNL     1      -4.655  17.562  26.404  0.00  0.00    +0.119 C 
BRANCH  19  20
ATOM     20  N   UNL     1      -4.530  17.400  24.924  0.00  0.00    -0.302 NA
ATOM     21  C   UNL     1      -3.085  17.128  24.497  0.00  0.00    +0.066 C 
ATOM     22  C   UNL     1      -2.975  16.939  22.949  0.00  0.00    -0.064 C 
ATOM     23  N   UNL     1      -3.523  18.182  22.246  0.00  0.00    +0.379 N 
ATOM     24  C   UNL     1      -3.368  18.032  20.792  0.00  0.00    -0.096 C 
ATOM     25  H   UNL     1      -2.901  19.052  22.565  0.00  0.00    -0.082 HD
ATOM     26  C   UNL     1      -4.958  18.462  22.667  0.00  0.00    -0.064 C 
ATOM     27  C   UNL     1      -5.061  18.619  24.210  0.00  0.00    +0.066 C 
ENDBRANCH  19  20
ENDBRANCH  18  19
ENDBRANCH  14  15
ENDBRANCH  12  13
TORSDOF 6
ENDMDL
MODEL 4
REMARK VINA RESULT:      -9.1      2.643      4.590
REMARK  Name = C:\Users\Docking\Desktop\test protocol\1iep_ligandH.pdb
REMARK  8 active torsions:
REMARK  status: ('A' for Active; 'I' for Inactive)
REMARK    1  A    between atoms: _5  and  _11
REMARK    2  A    between atoms: _19  and  _21
REMARK    3  A    between atoms: _22  and  _66
REMARK    4  A    between atoms: _27  and  _30
REMARK    5  A    between atoms: _32  and  _33
REMARK    6  A    between atoms: _38  and  _43
REMARK    7  A    between atoms: _43  and  _46
REMARK    8  A    between atoms: _53  and  _55
REMARK                            x       y       z     vdW  Elec       q    Type
REMARK                         _______ _______ _______ _____ _____    ______ ____
ROOT
ATOM     10  C   UNL     1     -12.779  13.948  34.032  0.00  0.00    +0.038 A 
ATOM     11  C   UNL     1     -12.044  14.505  32.955  0.00  0.00    +0.047 A 
ATOM     12  C   UNL     1     -10.764  15.159  33.175  0.00  0.00    +0.035 A 
ATOM     32  C   UNL     1     -10.259  15.225  34.507  0.00  0.00    +0.024 A 
ATOM     33  C   UNL     1     -10.994  14.665  35.614  0.00  0.00    +0.007 A 
ATOM     34  C   UNL     1     -12.258  14.021  35.403  0.00  0.00    -0.029 A 
ATOM     35  C   UNL     1     -13.005  13.443  36.628  0.00  0.00    +0.045 C 
ENDROOT
BRANCH  10   9
ATOM      4  C   UNL     1     -15.399  10.270  32.405  0.00  0.00    +0.077 A 
ATOM      5  C   UNL     1     -14.230   9.524  32.035  0.00  0.00    +0.048 A 
ATOM      6  C   UNL     1     -12.974  10.126  32.274  0.00  0.00    +0.116 A 
ATOM      7  N   UNL     1     -12.904  11.380  32.841  0.00  0.00    -0.223 NA
ATOM      8  C   UNL     1     -14.050  12.072  33.184  0.00  0.00    +0.220 A 
ATOM      9  N   UNL     1     -14.003  13.331  33.763  0.00  0.00    -0.283 N 
ATOM     36  H   UNL     1     -14.871  13.813  33.995  0.00  0.00    +0.155 HD
ATOM     37  N   UNL     1     -15.262  11.520  32.965  0.00  0.00    -0.214 NA
BRANCH   4   3
ATOM      1  C   UNL     1     -18.546   8.427  30.991  0.00  0.00    +0.020 A 
ATOM      2  C   UNL     1     -17.182   8.883  31.126  0.00  0.00    +0.013 A 
ATOM      3  C   UNL     1     -16.797   9.768  32.219  0.00  0.00    +0.019 A 
ATOM     38  C   UNL     1     -17.824  10.173  33.166  0.00  0.00    +0.120 A 
ATOM     39  N   UNL     1     -19.129   9.719  33.011  0.00  0.00    -0.263 NA
ATOM     40  C   UNL     1     -19.512   8.869  31.962  0.00  0.00    +0.111 A 
ENDBRANCH   4   3
ENDBRANCH  10   9
BRANCH  12  13
ATOM     13  N   UNL     1      -9.977  15.749  32.121  0.00  0.00    -0.281 N 
ATOM     14  C   UNL     1      -8.900  15.194  31.449  0.00  0.00    +0.248 C 
ATOM     30  O   UNL     1      -8.314  14.182  31.800  0.00  0.00    -0.270 OA
ATOM     31  H   UNL     1     -10.245  16.691  31.837  0.00  0.00    +0.155 HD
BRANCH  14  15
ATOM     15  C   UNL     1      -8.394  15.870  30.215  0.00  0.00    +0.037 A 
ATOM     16  C   UNL     1      -8.300  15.153  28.941  0.00  0.00    +0.013 A 
ATOM     17  C   UNL     1      -7.792  15.824  27.770  0.00  0.00    +0.005 A 
ATOM     18  C   UNL     1      -7.374  17.220  27.869  0.00  0.00    -0.033 A 
ATOM     28  C   UNL     1      -7.483  17.908  29.145  0.00  0.00    +0.005 A 
ATOM     29  C   UNL     1      -7.979  17.254  30.294  0.00  0.00    +0.013 A 
BRANCH  18  19
ATOM     19  C   UNL     1      -6.800  18.008  26.677  0.00  0.00    +0.119 C 
BRANCH  19  20
ATOM     20  N   UNL     1      -6.998  17.428  25.315  0.00  0.00    -0.302 NA
ATOM     21  C   UNL     1      -6.211  18.190  24.245  0.00  0.00    +0.066 C 
ATOM     22  C   UNL     1      -6.412  17.557  22.830  0.00  0.00    -0.064 C 
ATOM     23  N   UNL     1      -7.904  17.534  22.492  0.00  0.00    +0.379 N 
ATOM     24  C   UNL     1      -8.092  16.992  21.138  0.00  0.00    -0.096 C 
ATOM     25  H   UNL     1      -8.265  18.589  22.487  0.00  0.00    -0.082 HD
ATOM     26  C   UNL     1      -8.695  16.780  23.552  0.00  0.00    -0.064 C 
ATOM     27  C   UNL     1      -8.464  17.400  24.958  0.00  0.00    +0.066 C 
ENDBRANCH  19  20
ENDBRANCH  18  19
ENDBRANCH  14  15
ENDBRANCH  12  13
TORSDOF 6
ENDMDL
MODEL 5
REMARK VINA RESULT:      -9.0      2.491      2.844
REMARK  Name = C:\Users\Docking\Desktop\test protocol\1iep_ligandH.pdb
REMARK  8 active torsions:
REMARK  status: ('A' for Active; 'I' for Inactive)
REMARK    1  A    between atoms: _5  and  _11
REMARK    2  A    between atoms: _19  and  _21
REMARK    3  A    between atoms: _22  and  _66
REMARK    4  A    between atoms: _27  and  _30
REMARK    5  A    between atoms: _32  and  _33
REMARK    6  A    between atoms: _38  and  _43
REMARK    7  A    between atoms: _43  and  _46
REMARK    8  A    between atoms: _53  and  _55
REMARK                            x       y       z     vdW  Elec       q    Type
REMARK                         _______ _______ _______ _____ _____    ______ ____
ROOT
ATOM     10  C   UNL     1      -9.198  15.403  32.751  0.00  0.00    +0.038 A 
ATOM     11  C   UNL     1      -9.207  15.271  31.339  0.00  0.00    +0.047 A 
ATOM     12  C   UNL     1      -8.649  16.306  30.483  0.00  0.00    +0.035 A 
ATOM     32  C   UNL     1      -8.088  17.463  31.099  0.00  0.00    +0.024 A 
ATOM     33  C   UNL     1      -8.072  17.614  32.533  0.00  0.00    +0.007 A 
ATOM     34  C   UNL     1      -8.623  16.597  33.382  0.00  0.00    -0.029 A 
ATOM     35  C   UNL     1      -8.585  16.815  34.913  0.00  0.00    +0.045 C 
ENDROOT
BRANCH  10   9
ATOM      4  C   UNL     1     -12.939  12.911  34.435  0.00  0.00    +0.077 A 
ATOM      5  C   UNL     1     -13.880  13.737  33.735  0.00  0.00    +0.048 A 
ATOM      6  C   UNL     1     -13.361  14.798  32.959  0.00  0.00    +0.116 A 
ATOM      7  N   UNL     1     -12.000  15.006  32.893  0.00  0.00    -0.223 NA
ATOM      8  C   UNL     1     -11.120  14.192  33.582  0.00  0.00    +0.220 A 
ATOM      9  N   UNL     1      -9.748  14.378  33.525  0.00  0.00    -0.283 N 
ATOM     36  H   UNL     1      -9.132  13.761  34.053  0.00  0.00    +0.155 HD
ATOM     37  N   UNL     1     -11.591  13.174  34.332  0.00  0.00    -0.214 NA
BRANCH   4   3
ATOM      1  C   UNL     1     -12.795   9.805  36.808  0.00  0.00    +0.020 A 
ATOM      2  C   UNL     1     -12.362  10.915  35.990  0.00  0.00    +0.013 A 
ATOM      3  C   UNL     1     -13.332  11.750  35.294  0.00  0.00    +0.019 A 
ATOM     38  C   UNL     1     -14.744  11.433  35.448  0.00  0.00    +0.120 A 
ATOM     39  N   UNL     1     -15.131  10.357  36.241  0.00  0.00    -0.263 NA
ATOM     40  C   UNL     1     -14.206   9.546  36.914  0.00  0.00    +0.111 A 
ENDBRANCH   4   3
ENDBRANCH  10   9
BRANCH  12  13
ATOM     13  N   UNL     1      -8.636  16.231  29.043  0.00  0.00    -0.281 N 
ATOM     14  C   UNL     1      -9.576  16.730  28.156  0.00  0.00    +0.248 C 
ATOM     30  O   UNL     1     -10.684  17.132  28.477  0.00  0.00    -0.270 OA
ATOM     31  H   UNL     1      -7.837  15.751  28.627  0.00  0.00    +0.155 HD
BRANCH  14  15
ATOM     15  C   UNL     1      -9.242  16.774  26.700  0.00  0.00    +0.037 A 
ATOM     16  C   UNL     1      -8.157  17.620  26.194  0.00  0.00    +0.013 A 
ATOM     17  C   UNL     1      -7.867  17.657  24.783  0.00  0.00    +0.005 A 
ATOM     18  C   UNL     1      -8.663  16.844  23.866  0.00  0.00    -0.033 A 
ATOM     28  C   UNL     1      -9.730  16.011  24.395  0.00  0.00    +0.005 A 
ATOM     29  C   UNL     1     -10.018  15.972  25.778  0.00  0.00    +0.013 A 
BRANCH  18  19
ATOM     19  C   UNL     1      -8.438  16.838  22.343  0.00  0.00    +0.119 C 
BRANCH  19  20
ATOM     20  N   UNL     1      -7.024  16.815  21.861  0.00  0.00    -0.302 NA
ATOM     21  C   UNL     1      -6.346  18.180  22.002  0.00  0.00    +0.066 C 
ATOM     22  C   UNL     1      -4.862  18.132  21.514  0.00  0.00    -0.064 C 
ATOM     23  N   UNL     1      -4.820  17.654  20.061  0.00  0.00    +0.379 N 
ATOM     24  C   UNL     1      -3.431  17.663  19.581  0.00  0.00    -0.096 C 
ATOM     25  H   UNL     1      -5.395  18.387  19.448  0.00  0.00    -0.082 HD
ATOM     26  C   UNL     1      -5.495  16.298  19.912  0.00  0.00    -0.064 C 
ATOM     27  C   UNL     1      -6.960  16.350  20.427  0.00  0.00    +0.066 C 
ENDBRANCH  19  20
ENDBRANCH  18  19
ENDBRANCH  14  15
ENDBRANCH  12  13
TORSDOF 6
ENDMDL
