MODEL 1
REMARK VINA RESULT:      -8.2      0.000      0.000
REMARK  Name = C:\Users\Docking\Desktop\test protocol\1iep_ligandH.pdb
REMARK  8 active torsions:
REMARK  status: ('A' for Active; 'I' for Inactive)
REMARK    1  A    between atoms: _5  and  _11
REMARK    2  A    between atoms: _19  and  _21
REMARK    3  A    between atoms: _22  and  _66
REMARK    4  A    between atoms: _27  and  _30
REMARK    5  A    between atoms: _32  and  _33
REMARK    6  A    between atoms: _38  and  _43
REMARK    7  A    between atoms: _43  and  _46
REMARK    8  A    between atoms: _53  and  _55
REMARK                            x       y       z     vdW  Elec       q    Type
REMARK                         _______ _______ _______ _____ _____    ______ ____
ROOT
ATOM     10  C   UNL     1     -11.380  22.154  -2.466  0.00  0.00    +0.038 A 
ATOM     11  C   UNL     1     -11.436  23.455  -1.904  0.00  0.00    +0.047 A 
ATOM     12  C   UNL     1     -12.254  24.498  -2.503  0.00  0.00    +0.035 A 
ATOM     32  C   UNL     1     -13.004  24.181  -3.672  0.00  0.00    +0.024 A 
ATOM     33  C   UNL     1     -12.958  22.864  -4.257  0.00  0.00    +0.007 A 
ATOM     34  C   UNL     1     -12.151  21.831  -3.673  0.00  0.00    -0.029 A 
ATOM     35  C   UNL     1     -12.135  20.439  -4.346  0.00  0.00    +0.045 C 
ENDROOT
BRANCH  10   9
ATOM      4  C   UNL     1      -7.335  19.591  -2.143  0.00  0.00    +0.077 A 
ATOM      5  C   UNL     1      -6.782  20.205  -3.316  0.00  0.00    +0.048 A 
ATOM      6  C   UNL     1      -7.574  21.170  -3.978  0.00  0.00    +0.116 A 
ATOM      7  N   UNL     1      -8.824  21.490  -3.493  0.00  0.00    -0.223 NA
ATOM      8  C   UNL     1      -9.328  20.878  -2.360  0.00  0.00    +0.220 A 
ATOM      9  N   UNL     1     -10.578  21.190  -1.850  0.00  0.00    -0.283 N 
ATOM     36  H   UNL     1     -10.917  20.711  -1.016  0.00  0.00    +0.155 HD
ATOM     37  N   UNL     1      -8.591  19.952  -1.711  0.00  0.00    -0.214 NA
BRANCH   4   3
ATOM      1  C   UNL     1      -4.571  17.210  -0.730  0.00  0.00    +0.020 A 
ATOM      2  C   UNL     1      -5.216  18.218  -1.541  0.00  0.00    +0.013 A 
ATOM      3  C   UNL     1      -6.618  18.556  -1.333  0.00  0.00    +0.019 A 
ATOM     38  C   UNL     1      -7.345  17.851  -0.287  0.00  0.00    +0.120 A 
ATOM     39  N   UNL     1      -6.698  16.885   0.477  0.00  0.00    -0.263 NA
ATOM     40  C   UNL     1      -5.350  16.550   0.284  0.00  0.00    +0.111 A 
ENDBRANCH   4   3
ENDBRANCH  10   9
BRANCH  12  13
ATOM     13  N   UNL     1     -12.344  25.840  -1.982  0.00  0.00    -0.281 N 
ATOM     14  C   UNL     1     -13.486  26.548  -1.645  0.00  0.00    +0.248 C 
ATOM     30  O   UNL     1     -14.622  26.209  -1.943  0.00  0.00    -0.270 OA
ATOM     31  H   UNL     1     -11.458  26.327  -1.844  0.00  0.00    +0.155 HD
BRANCH  14  15
ATOM     15  C   UNL     1     -13.345  27.823  -0.878  0.00  0.00    +0.037 A 
ATOM     16  C   UNL     1     -13.058  27.818   0.559  0.00  0.00    +0.013 A 
ATOM     17  C   UNL     1     -12.944  29.062   1.278  0.00  0.00    +0.005 A 
ATOM     18  C   UNL     1     -13.116  30.323   0.559  0.00  0.00    -0.033 A 
ATOM     28  C   UNL     1     -13.395  30.299  -0.867  0.00  0.00    +0.005 A 
ATOM     29  C   UNL     1     -13.509  29.081  -1.575  0.00  0.00    +0.013 A 
BRANCH  18  19
ATOM     19  C   UNL     1     -13.033  31.697   1.250  0.00  0.00    +0.119 C 
BRANCH  19  20
ATOM     20  N   UNL     1     -14.321  32.370   1.591  0.00  0.00    -0.302 NA
ATOM     21  C   UNL     1     -14.858  33.208   0.427  0.00  0.00    +0.066 C 
ATOM     22  C   UNL     1     -16.218  33.887   0.794  0.00  0.00    -0.064 C 
ATOM     23  N   UNL     1     -16.033  34.751   2.042  0.00  0.00    +0.379 N 
ATOM     24  C   UNL     1     -17.295  35.436   2.356  0.00  0.00    -0.096 C 
ATOM     25  H   UNL     1     -15.274  35.531   1.804  0.00  0.00    -0.082 HD
ATOM     26  C   UNL     1     -15.497  33.926   3.204  0.00  0.00    -0.064 C 
ATOM     27  C   UNL     1     -14.160  33.232   2.819  0.00  0.00    +0.066 C 
ENDBRANCH  19  20
ENDBRANCH  18  19
ENDBRANCH  14  15
ENDBRANCH  12  13
TORSDOF 6
ENDMDL
MODEL 2
REMARK VINA RESULT:      -8.0     12.827     22.818
REMARK  Name = C:\Users\Docking\Desktop\test protocol\1iep_ligandH.pdb
REMARK  8 active torsions:
REMARK  status: ('A' for Active; 'I' for Inactive)
REMARK    1  A    between atoms: _5  and  _11
REMARK    2  A    between atoms: _19  and  _21
REMARK    3  A    between atoms: _22  and  _66
REMARK    4  A    between atoms: _27  and  _30
REMARK    5  A    between atoms: _32  and  _33
REMARK    6  A    between atoms: _38  and  _43
REMARK    7  A    between atoms: _43  and  _46
REMARK    8  A    between atoms: _53  and  _55
REMARK                            x       y       z     vdW  Elec       q    Type
REMARK                         _______ _______ _______ _____ _____    ______ ____
ROOT
ATOM     10  C   UNL     1      -3.535   9.769   0.822  0.00  0.00    +0.038 A 
ATOM     11  C   UNL     1      -3.015   8.917   1.829  0.00  0.00    +0.047 A 
ATOM     12  C   UNL     1      -1.985   7.936   1.526  0.00  0.00    +0.035 A 
ATOM     32  C   UNL     1      -1.505   7.852   0.187  0.00  0.00    +0.024 A 
ATOM     33  C   UNL     1      -2.023   8.711  -0.850  0.00  0.00    +0.007 A 
ATOM     34  C   UNL     1      -3.041   9.678  -0.557  0.00  0.00    -0.029 A 
ATOM     35  C   UNL     1      -3.564  10.568  -1.709  0.00  0.00    +0.045 C 
ENDROOT
BRANCH  10   9
ATOM      4  C   UNL     1      -4.985  13.817   2.956  0.00  0.00    +0.077 A 
ATOM      5  C   UNL     1      -3.666  14.102   3.443  0.00  0.00    +0.048 A 
ATOM      6  C   UNL     1      -2.644  13.178   3.129  0.00  0.00    +0.116 A 
ATOM      7  N   UNL     1      -2.931  12.056   2.382  0.00  0.00    -0.223 NA
ATOM      8  C   UNL     1      -4.214  11.811   1.929  0.00  0.00    +0.220 A 
ATOM      9  N   UNL     1      -4.524  10.693   1.169  0.00  0.00    -0.283 N 
ATOM     36  H   UNL     1      -5.484  10.544   0.860  0.00  0.00    +0.155 HD
ATOM     37  N   UNL     1      -5.208  12.677   2.216  0.00  0.00    -0.214 NA
BRANCH   4   3
ATOM      1  C   UNL     1      -7.685  16.038   4.709  0.00  0.00    +0.020 A 
ATOM      2  C   UNL     1      -6.532  15.187   4.526  0.00  0.00    +0.013 A 
ATOM      3  C   UNL     1      -6.169  14.700   3.202  0.00  0.00    +0.019 A 
ATOM     38  C   UNL     1      -7.000  15.095   2.074  0.00  0.00    +0.120 A 
ATOM     39  N   UNL     1      -8.106  15.913   2.281  0.00  0.00    -0.263 NA
ATOM     40  C   UNL     1      -8.466  16.387   3.552  0.00  0.00    +0.111 A 
ENDBRANCH   4   3
ENDBRANCH  10   9
BRANCH  12  13
ATOM     13  N   UNL     1      -1.425   7.037   2.505  0.00  0.00    -0.281 N 
ATOM     14  C   UNL     1      -0.178   7.102   3.106  0.00  0.00    +0.248 C 
ATOM     30  O   UNL     1       0.732   7.827   2.732  0.00  0.00    -0.270 OA
ATOM     31  H   UNL     1      -2.020   6.259   2.790  0.00  0.00    +0.155 HD
BRANCH  14  15
ATOM     15  C   UNL     1       0.102   6.226   4.284  0.00  0.00    +0.037 A 
ATOM     16  C   UNL     1       0.257   6.786   5.628  0.00  0.00    +0.013 A 
ATOM     17  C   UNL     1       0.544   5.920   6.744  0.00  0.00    +0.005 A 
ATOM     18  C   UNL     1       0.677   4.483   6.519  0.00  0.00    -0.033 A 
ATOM     28  C   UNL     1       0.514   3.953   5.176  0.00  0.00    +0.005 A 
ATOM     29  C   UNL     1       0.233   4.799   4.080  0.00  0.00    +0.013 A 
BRANCH  18  19
ATOM     19  C   UNL     1       1.004   3.486   7.648  0.00  0.00    +0.119 C 
BRANCH  19  20
ATOM     20  N   UNL     1       0.942   3.997   9.050  0.00  0.00    -0.302 NA
ATOM     21  C   UNL     1       2.337   4.219   9.642  0.00  0.00    +0.066 C 
ATOM     22  C   UNL     1       2.253   4.774  11.101  0.00  0.00    -0.064 C 
ATOM     23  N   UNL     1       1.445   3.806  11.967  0.00  0.00    +0.379 N 
ATOM     24  C   UNL     1       1.414   4.297  13.353  0.00  0.00    -0.096 C 
ATOM     25  H   UNL     1       1.977   2.827  11.966  0.00  0.00    -0.082 HD
ATOM     26  C   UNL     1       0.057   3.578  11.383  0.00  0.00    -0.064 C 
ATOM     27  C   UNL     1       0.151   3.054   9.923  0.00  0.00    +0.066 C 
ENDBRANCH  19  20
ENDBRANCH  18  19
ENDBRANCH  14  15
ENDBRANCH  12  13
TORSDOF 6
ENDMDL
MODEL 3
REMARK VINA RESULT:      -7.9      3.425     12.930
REMARK  Name = C:\Users\Docking\Desktop\test protocol\1iep_ligandH.pdb
REMARK  8 active torsions:
REMARK  status: ('A' for Active; 'I' for Inactive)
REMARK    1  A    between atoms: _5  and  _11
REMARK    2  A    between atoms: _19  and  _21
REMARK    3  A    between atoms: _22  and  _66
REMARK    4  A    between atoms: _27  and  _30
REMARK    5  A    between atoms: _32  and  _33
REMARK    6  A    between atoms: _38  and  _43
REMARK    7  A    between atoms: _43  and  _46
REMARK    8  A    between atoms: _53  and  _55
REMARK                            x       y       z     vdW  Elec       q    Type
REMARK                         _______ _______ _______ _____ _____    ______ ____
ROOT
ATOM     10  C   UNL     1     -10.602  23.449  -3.367  0.00  0.00    +0.038 A 
ATOM     11  C   UNL     1     -10.242  22.317  -2.592  0.00  0.00    +0.047 A 
ATOM     12  C   UNL     1      -9.942  21.040  -3.220  0.00  0.00    +0.035 A 
ATOM     32  C   UNL     1     -10.017  20.952  -4.641  0.00  0.00    +0.024 A 
ATOM     33  C   UNL     1     -10.382  22.092  -5.444  0.00  0.00    +0.007 A 
ATOM     34  C   UNL     1     -10.681  23.354  -4.830  0.00  0.00    -0.029 A 
ATOM     35  C   UNL     1     -11.074  24.541  -5.739  0.00  0.00    +0.045 C 
ENDROOT
BRANCH  10   9
ATOM      4  C   UNL     1     -13.660  26.717  -1.632  0.00  0.00    +0.077 A 
ATOM      5  C   UNL     1     -14.801  25.980  -2.093  0.00  0.00    +0.048 A 
ATOM      6  C   UNL     1     -14.558  24.769  -2.779  0.00  0.00    +0.116 A 
ATOM      7  N   UNL     1     -13.265  24.336  -2.982  0.00  0.00    -0.223 NA
ATOM      8  C   UNL     1     -12.187  25.071  -2.525  0.00  0.00    +0.220 A 
ATOM      9  N   UNL     1     -10.879  24.651  -2.712  0.00  0.00    -0.283 N 
ATOM     36  H   UNL     1     -10.111  25.226  -2.366  0.00  0.00    +0.155 HD
ATOM     37  N   UNL     1     -12.393  26.232  -1.869  0.00  0.00    -0.214 NA
BRANCH   4   3
ATOM      1  C   UNL     1     -14.539  30.398  -0.643  0.00  0.00    +0.020 A 
ATOM      2  C   UNL     1     -14.478  29.169  -1.401  0.00  0.00    +0.013 A 
ATOM      3  C   UNL     1     -13.754  28.013  -0.888  0.00  0.00    +0.019 A 
ATOM     38  C   UNL     1     -13.098  28.133   0.405  0.00  0.00    +0.120 A 
ATOM     39  N   UNL     1     -13.173  29.329   1.112  0.00  0.00    -0.263 NA
ATOM     40  C   UNL     1     -13.865  30.449   0.628  0.00  0.00    +0.111 A 
ENDBRANCH   4   3
ENDBRANCH  10   9
BRANCH  12  13
ATOM     13  N   UNL     1      -9.579  19.854  -2.485  0.00  0.00    -0.281 N 
ATOM     14  C   UNL     1      -8.310  19.346  -2.262  0.00  0.00    +0.248 C 
ATOM     30  O   UNL     1      -7.303  19.719  -2.846  0.00  0.00    -0.270 OA
ATOM     31  H   UNL     1     -10.351  19.325  -2.079  0.00  0.00    +0.155 HD
BRANCH  14  15
ATOM     15  C   UNL     1      -8.135  18.254  -1.256  0.00  0.00    +0.037 A 
ATOM     16  C   UNL     1      -6.832  17.988  -0.641  0.00  0.00    +0.013 A 
ATOM     17  C   UNL     1      -6.688  16.918   0.314  0.00  0.00    +0.005 A 
ATOM     18  C   UNL     1      -7.852  16.107   0.662  0.00  0.00    -0.033 A 
ATOM     28  C   UNL     1      -9.134  16.396   0.041  0.00  0.00    +0.005 A 
ATOM     29  C   UNL     1      -9.279  17.443  -0.897  0.00  0.00    +0.013 A 
BRANCH  18  19
ATOM     19  C   UNL     1      -7.785  14.932   1.655  0.00  0.00    +0.119 C 
BRANCH  19  20
ATOM     20  N   UNL     1      -8.213  15.199   3.060  0.00  0.00    -0.302 NA
ATOM     21  C   UNL     1      -7.361  14.433   4.076  0.00  0.00    +0.066 C 
ATOM     22  C   UNL     1      -7.808  14.742   5.542  0.00  0.00    -0.064 C 
ATOM     23  N   UNL     1      -9.288  14.394   5.705  0.00  0.00    +0.379 N 
ATOM     24  C   UNL     1      -9.697  14.629   7.098  0.00  0.00    -0.096 C 
ATOM     25  H   UNL     1      -9.404  13.305   5.498  0.00  0.00    -0.082 HD
ATOM     26  C   UNL     1     -10.143  15.150   4.697  0.00  0.00    -0.064 C 
ATOM     27  C   UNL     1      -9.671  14.859   3.245  0.00  0.00    +0.066 C 
ENDBRANCH  19  20
ENDBRANCH  18  19
ENDBRANCH  14  15
ENDBRANCH  12  13
TORSDOF 6
ENDMDL
MODEL 4
REMARK VINA RESULT:      -7.8     13.311     21.210
REMARK  Name = C:\Users\Docking\Desktop\test protocol\1iep_ligandH.pdb
REMARK  8 active torsions:
REMARK  status: ('A' for Active; 'I' for Inactive)
REMARK    1  A    between atoms: _5  and  _11
REMARK    2  A    between atoms: _19  and  _21
REMARK    3  A    between atoms: _22  and  _66
REMARK    4  A    between atoms: _27  and  _30
REMARK    5  A    between atoms: _32  and  _33
REMARK    6  A    between atoms: _38  and  _43
REMARK    7  A    between atoms: _43  and  _46
REMARK    8  A    between atoms: _53  and  _55
REMARK                            x       y       z     vdW  Elec       q    Type
REMARK                         _______ _______ _______ _____ _____    ______ ____
ROOT
ATOM     10  C   UNL     1      -4.316  12.551   0.735  0.00  0.00    +0.038 A 
ATOM     11  C   UNL     1      -3.465  11.557   1.283  0.00  0.00    +0.047 A 
ATOM     12  C   UNL     1      -2.203  11.212   0.647  0.00  0.00    +0.035 A 
ATOM     32  C   UNL     1      -1.838  11.902  -0.546  0.00  0.00    +0.024 A 
ATOM     33  C   UNL     1      -2.691  12.914  -1.118  0.00  0.00    +0.007 A 
ATOM     34  C   UNL     1      -3.938  13.257  -0.496  0.00  0.00    -0.029 A 
ATOM     35  C   UNL     1      -4.815  14.345  -1.156  0.00  0.00    +0.045 C 
ENDROOT
BRANCH  10   9
ATOM      4  C   UNL     1      -6.824  14.670   4.236  0.00  0.00    +0.077 A 
ATOM      5  C   UNL     1      -5.640  15.220   4.831  0.00  0.00    +0.048 A 
ATOM      6  C   UNL     1      -4.405  14.929   4.210  0.00  0.00    +0.116 A 
ATOM      7  N   UNL     1      -4.369  14.144   3.077  0.00  0.00    -0.223 NA
ATOM      8  C   UNL     1      -5.528  13.627   2.530  0.00  0.00    +0.220 A 
ATOM      9  N   UNL     1      -5.516  12.843   1.387  0.00  0.00    -0.283 N 
ATOM     36  H   UNL     1      -6.392  12.474   1.019  0.00  0.00    +0.155 HD
ATOM     37  N   UNL     1      -6.720  13.890   3.106  0.00  0.00    -0.214 NA
BRANCH   4   3
ATOM      1  C   UNL     1      -9.826  15.319   6.657  0.00  0.00    +0.020 A 
ATOM      2  C   UNL     1      -8.476  15.110   6.189  0.00  0.00    +0.013 A 
ATOM      3  C   UNL     1      -8.203  14.891   4.774  0.00  0.00    +0.019 A 
ATOM     38  C   UNL     1      -9.328  14.889   3.852  0.00  0.00    +0.120 A 
ATOM     39  N   UNL     1     -10.619  15.092   4.332  0.00  0.00    -0.263 NA
ATOM     40  C   UNL     1     -10.893  15.302   5.691  0.00  0.00    +0.111 A 
ENDBRANCH   4   3
ENDBRANCH  10   9
BRANCH  12  13
ATOM     13  N   UNL     1      -1.303  10.206   1.153  0.00  0.00    -0.281 N 
ATOM     14  C   UNL     1      -0.032  10.386   1.673  0.00  0.00    +0.248 C 
ATOM     30  O   UNL     1       0.611  11.421   1.586  0.00  0.00    -0.270 OA
ATOM     31  H   UNL     1      -1.644   9.245   1.123  0.00  0.00    +0.155 HD
BRANCH  14  15
ATOM     15  C   UNL     1       0.626   9.245   2.382  0.00  0.00    +0.037 A 
ATOM     16  C   UNL     1       0.370   7.857   1.989  0.00  0.00    +0.013 A 
ATOM     17  C   UNL     1       1.004   6.776   2.700  0.00  0.00    +0.005 A 
ATOM     18  C   UNL     1       1.903   7.079   3.811  0.00  0.00    -0.033 A 
ATOM     28  C   UNL     1       2.143   8.465   4.176  0.00  0.00    +0.005 A 
ATOM     29  C   UNL     1       1.522   9.528   3.482  0.00  0.00    +0.013 A 
BRANCH  18  19
ATOM     19  C   UNL     1       2.606   5.987   4.639  0.00  0.00    +0.119 C 
BRANCH  19  20
ATOM     20  N   UNL     1       2.188   5.835   6.065  0.00  0.00    -0.302 NA
ATOM     21  C   UNL     1       2.746   4.555   6.693  0.00  0.00    +0.066 C 
ATOM     22  C   UNL     1       2.318   4.423   8.191  0.00  0.00    -0.064 C 
ATOM     23  N   UNL     1       0.792   4.453   8.287  0.00  0.00    +0.379 N 
ATOM     24  C   UNL     1       0.384   4.270   9.688  0.00  0.00    -0.096 C 
ATOM     25  H   UNL     1       0.399   3.586   7.705  0.00  0.00    -0.082 HD
ATOM     26  C   UNL     1       0.228   5.721   7.662  0.00  0.00    -0.064 C 
ATOM     27  C   UNL     1       0.684   5.857   6.182  0.00  0.00    +0.066 C 
ENDBRANCH  19  20
ENDBRANCH  18  19
ENDBRANCH  14  15
ENDBRANCH  12  13
TORSDOF 6
ENDMDL
MODEL 5
REMARK VINA RESULT:      -7.8      3.776      5.992
REMARK  Name = C:\Users\Docking\Desktop\test protocol\1iep_ligandH.pdb
REMARK  8 active torsions:
REMARK  status: ('A' for Active; 'I' for Inactive)
REMARK    1  A    between atoms: _5  and  _11
REMARK    2  A    between atoms: _19  and  _21
REMARK    3  A    between atoms: _22  and  _66
REMARK    4  A    between atoms: _27  and  _30
REMARK    5  A    between atoms: _32  and  _33
REMARK    6  A    between atoms: _38  and  _43
REMARK    7  A    between atoms: _43  and  _46
REMARK    8  A    between atoms: _53  and  _55
REMARK                            x       y       z     vdW  Elec       q    Type
REMARK                         _______ _______ _______ _____ _____    ______ ____
ROOT
ATOM     10  C   UNL     1     -12.725  22.259  -1.820  0.00  0.00    +0.038 A 
ATOM     11  C   UNL     1     -12.917  23.595  -1.383  0.00  0.00    +0.047 A 
ATOM     12  C   UNL     1     -12.085  24.678  -1.885  0.00  0.00    +0.035 A 
ATOM     32  C   UNL     1     -11.069  24.365  -2.834  0.00  0.00    +0.024 A 
ATOM     33  C   UNL     1     -10.860  23.012  -3.289  0.00  0.00    +0.007 A 
ATOM     34  C   UNL     1     -11.675  21.940  -2.795  0.00  0.00    -0.029 A 
ATOM     35  C   UNL     1     -11.402  20.508  -3.312  0.00  0.00    +0.045 C 
ENDROOT
BRANCH  10   9
ATOM      4  C   UNL     1     -16.686  19.552  -1.962  0.00  0.00    +0.077 A 
ATOM      5  C   UNL     1     -17.160  20.204  -3.148  0.00  0.00    +0.048 A 
ATOM      6  C   UNL     1     -16.359  21.236  -3.686  0.00  0.00    +0.116 A 
ATOM      7  N   UNL     1     -15.173  21.582  -3.075  0.00  0.00    -0.223 NA
ATOM      8  C   UNL     1     -14.745  20.933  -1.931  0.00  0.00    +0.220 A 
ATOM      9  N   UNL     1     -13.552  21.259  -1.305  0.00  0.00    -0.283 N 
ATOM     36  H   UNL     1     -13.275  20.762  -0.458  0.00  0.00    +0.155 HD
ATOM     37  N   UNL     1     -15.493  19.946  -1.397  0.00  0.00    -0.214 NA
BRANCH   4   3
ATOM      1  C   UNL     1     -19.523  17.186  -0.677  0.00  0.00    +0.020 A 
ATOM      2  C   UNL     1     -18.864  18.277  -1.358  0.00  0.00    +0.013 A 
ATOM      3  C   UNL     1     -17.419  18.441  -1.277  0.00  0.00    +0.019 A 
ATOM     38  C   UNL     1     -16.662  17.476  -0.493  0.00  0.00    +0.120 A 
ATOM     39  N   UNL     1     -17.324  16.436   0.153  0.00  0.00    -0.263 NA
ATOM     40  C   UNL     1     -18.715  16.269   0.083  0.00  0.00    +0.111 A 
ENDBRANCH   4   3
ENDBRANCH  10   9
BRANCH  12  13
ATOM     13  N   UNL     1     -12.228  26.052  -1.472  0.00  0.00    -0.281 N 
ATOM     14  C   UNL     1     -13.374  26.830  -1.483  0.00  0.00    +0.248 C 
ATOM     30  O   UNL     1     -14.410  26.526  -2.054  0.00  0.00    -0.270 OA
ATOM     31  H   UNL     1     -11.381  26.506  -1.129  0.00  0.00    +0.155 HD
BRANCH  14  15
ATOM     15  C   UNL     1     -13.362  28.143  -0.769  0.00  0.00    +0.037 A 
ATOM     16  C   UNL     1     -12.931  28.245   0.627  0.00  0.00    +0.013 A 
ATOM     17  C   UNL     1     -12.945  29.521   1.298  0.00  0.00    +0.005 A 
ATOM     18  C   UNL     1     -13.392  30.707   0.571  0.00  0.00    -0.033 A 
ATOM     28  C   UNL     1     -13.809  30.578  -0.816  0.00  0.00    +0.005 A 
ATOM     29  C   UNL     1     -13.797  29.329  -1.476  0.00  0.00    +0.013 A 
BRANCH  18  19
ATOM     19  C   UNL     1     -13.460  32.105   1.213  0.00  0.00    +0.119 C 
BRANCH  19  20
ATOM     20  N   UNL     1     -14.813  32.713   1.385  0.00  0.00    -0.302 NA
ATOM     21  C   UNL     1     -15.138  33.717   0.275  0.00  0.00    +0.066 C 
ATOM     22  C   UNL     1     -16.566  34.326   0.459  0.00  0.00    -0.064 C 
ATOM     23  N   UNL     1     -16.662  34.989   1.834  0.00  0.00    +0.379 N 
ATOM     24  C   UNL     1     -17.984  35.613   1.987  0.00  0.00    -0.096 C 
ATOM     25  H   UNL     1     -15.898  35.800   1.872  0.00  0.00    -0.082 HD
ATOM     26  C   UNL     1     -16.338  33.998   2.943  0.00  0.00    -0.064 C 
ATOM     27  C   UNL     1     -14.929  33.377   2.735  0.00  0.00    +0.066 C 
ENDBRANCH  19  20
ENDBRANCH  18  19
ENDBRANCH  14  15
ENDBRANCH  12  13
TORSDOF 6
ENDMDL
