MODEL 1
REMARK VINA RESULT:      -8.4      0.000      0.000
REMARK  Name = C:\Users\Docking\Desktop\test protocol\1iep_ligandH.pdb
REMARK  8 active torsions:
REMARK  status: ('A' for Active; 'I' for Inactive)
REMARK    1  A    between atoms: _5  and  _11
REMARK    2  A    between atoms: _19  and  _21
REMARK    3  A    between atoms: _22  and  _66
REMARK    4  A    between atoms: _27  and  _30
REMARK    5  A    between atoms: _32  and  _33
REMARK    6  A    between atoms: _38  and  _43
REMARK    7  A    between atoms: _43  and  _46
REMARK    8  A    between atoms: _53  and  _55
REMARK                            x       y       z     vdW  Elec       q    Type
REMARK                         _______ _______ _______ _____ _____    ______ ____
ROOT
ATOM     10  C   UNL     1     -10.684  24.178  25.139  0.00  0.00    +0.038 A 
ATOM     11  C   UNL     1     -10.205  23.113  25.944  0.00  0.00    +0.047 A 
ATOM     12  C   UNL     1      -9.887  21.817  25.366  0.00  0.00    +0.035 A 
ATOM     32  C   UNL     1     -10.066  21.641  23.963  0.00  0.00    +0.024 A 
ATOM     33  C   UNL     1     -10.552  22.712  23.130  0.00  0.00    +0.007 A 
ATOM     34  C   UNL     1     -10.870  23.992  23.695  0.00  0.00    -0.029 A 
ATOM     35  C   UNL     1     -11.395  25.103  22.755  0.00  0.00    +0.045 C 
ENDROOT
BRANCH  10   9
ATOM      4  C   UNL     1     -13.763  27.577  26.554  0.00  0.00    +0.077 A 
ATOM      5  C   UNL     1     -14.887  26.868  26.013  0.00  0.00    +0.048 A 
ATOM      6  C   UNL     1     -14.628  25.635  25.372  0.00  0.00    +0.116 A 
ATOM      7  N   UNL     1     -13.339  25.157  25.285  0.00  0.00    -0.223 NA
ATOM      8  C   UNL     1     -12.278  25.867  25.816  0.00  0.00    +0.220 A 
ATOM      9  N   UNL     1     -10.974  25.402  25.747  0.00  0.00    -0.283 N 
ATOM     36  H   UNL     1     -10.218  25.959  26.144  0.00  0.00    +0.155 HD
ATOM     37  N   UNL     1     -12.498  27.048  26.431  0.00  0.00    -0.214 NA
BRANCH   4   3
ATOM      1  C   UNL     1     -12.988  31.159  27.921  0.00  0.00    +0.020 A 
ATOM      2  C   UNL     1     -12.830  29.907  27.218  0.00  0.00    +0.013 A 
ATOM      3  C   UNL     1     -13.875  28.891  27.263  0.00  0.00    +0.019 A 
ATOM     38  C   UNL     1     -15.076  29.178  28.032  0.00  0.00    +0.120 A 
ATOM     39  N   UNL     1     -15.200  30.392  28.699  0.00  0.00    -0.263 NA
ATOM     40  C   UNL     1     -14.200  31.376  28.665  0.00  0.00    +0.111 A 
ENDBRANCH   4   3
ENDBRANCH  10   9
BRANCH  12  13
ATOM     13  N   UNL     1      -9.405  20.696  26.135  0.00  0.00    -0.281 N 
ATOM     14  C   UNL     1      -8.146  20.120  26.103  0.00  0.00    +0.248 C 
ATOM     30  O   UNL     1      -7.304  20.347  25.247  0.00  0.00    -0.270 OA
ATOM     31  H   UNL     1     -10.074  20.277  26.782  0.00  0.00    +0.155 HD
BRANCH  14  15
ATOM     15  C   UNL     1      -7.774  19.137  27.166  0.00  0.00    +0.037 A 
ATOM     16  C   UNL     1      -8.768  18.226  27.740  0.00  0.00    +0.013 A 
ATOM     17  C   UNL     1      -8.386  17.300  28.776  0.00  0.00    +0.005 A 
ATOM     18  C   UNL     1      -7.002  17.280  29.245  0.00  0.00    -0.033 A 
ATOM     28  C   UNL     1      -6.036  18.191  28.655  0.00  0.00    +0.005 A 
ATOM     29  C   UNL     1      -6.407  19.101  27.639  0.00  0.00    +0.013 A 
BRANCH  18  19
ATOM     19  C   UNL     1      -6.511  16.340  30.362  0.00  0.00    +0.119 C 
BRANCH  19  20
ATOM     20  N   UNL     1      -5.299  15.516  30.078  0.00  0.00    -0.302 NA
ATOM     21  C   UNL     1      -5.535  14.519  28.940  0.00  0.00    +0.066 C 
ATOM     22  C   UNL     1      -4.250  13.681  28.641  0.00  0.00    -0.064 C 
ATOM     23  N   UNL     1      -3.810  12.955  29.914  0.00  0.00    +0.379 N 
ATOM     24  C   UNL     1      -2.635  12.121  29.621  0.00  0.00    -0.096 C 
ATOM     25  H   UNL     1      -4.640  12.277  30.220  0.00  0.00    -0.082 HD
ATOM     26  C   UNL     1      -3.575  13.939  31.051  0.00  0.00    -0.064 C 
ATOM     27  C   UNL     1      -4.849  14.787  31.320  0.00  0.00    +0.066 C 
ENDBRANCH  19  20
ENDBRANCH  18  19
ENDBRANCH  14  15
ENDBRANCH  12  13
TORSDOF 6
ENDMDL
MODEL 2
REMARK VINA RESULT:      -8.2      3.225      3.941
REMARK  Name = C:\Users\Docking\Desktop\test protocol\1iep_ligandH.pdb
REMARK  8 active torsions:
REMARK  status: ('A' for Active; 'I' for Inactive)
REMARK    1  A    between atoms: _5  and  _11
REMARK    2  A    between atoms: _19  and  _21
REMARK    3  A    between atoms: _22  and  _66
REMARK    4  A    between atoms: _27  and  _30
REMARK    5  A    between atoms: _32  and  _33
REMARK    6  A    between atoms: _38  and  _43
REMARK    7  A    between atoms: _43  and  _46
REMARK    8  A    between atoms: _53  and  _55
REMARK                            x       y       z     vdW  Elec       q    Type
REMARK                         _______ _______ _______ _____ _____    ______ ____
ROOT
ATOM     10  C   UNL     1     -11.146  24.277  25.270  0.00  0.00    +0.038 A 
ATOM     11  C   UNL     1     -11.254  23.145  26.117  0.00  0.00    +0.047 A 
ATOM     12  C   UNL     1     -11.018  21.801  25.612  0.00  0.00    +0.035 A 
ATOM     32  C   UNL     1     -10.669  21.648  24.238  0.00  0.00    +0.024 A 
ATOM     33  C   UNL     1     -10.556  22.788  23.363  0.00  0.00    +0.007 A 
ATOM     34  C   UNL     1     -10.790  24.115  23.855  0.00  0.00    -0.029 A 
ATOM     35  C   UNL     1     -10.661  25.300  22.870  0.00  0.00    +0.045 C 
ENDROOT
BRANCH  10   9
ATOM      4  C   UNL     1     -14.069  27.904  26.426  0.00  0.00    +0.077 A 
ATOM      5  C   UNL     1     -15.215  27.229  25.887  0.00  0.00    +0.048 A 
ATOM      6  C   UNL     1     -15.009  25.954  25.316  0.00  0.00    +0.116 A 
ATOM      7  N   UNL     1     -13.745  25.404  25.290  0.00  0.00    -0.223 NA
ATOM      8  C   UNL     1     -12.661  26.082  25.816  0.00  0.00    +0.220 A 
ATOM      9  N   UNL     1     -11.384  25.544  25.808  0.00  0.00    -0.283 N 
ATOM     36  H   UNL     1     -10.609  26.079  26.200  0.00  0.00    +0.155 HD
ATOM     37  N   UNL     1     -12.832  27.302  26.366  0.00  0.00    -0.214 NA
BRANCH   4   3
ATOM      1  C   UNL     1     -14.720  31.708  27.062  0.00  0.00    +0.020 A 
ATOM      2  C   UNL     1     -14.688  30.425  26.399  0.00  0.00    +0.013 A 
ATOM      3  C   UNL     1     -14.127  29.256  27.066  0.00  0.00    +0.019 A 
ATOM     38  C   UNL     1     -13.604  29.421  28.414  0.00  0.00    +0.120 A 
ATOM     39  N   UNL     1     -13.647  30.669  29.026  0.00  0.00    -0.263 NA
ATOM     40  C   UNL     1     -14.183  31.801  28.394  0.00  0.00    +0.111 A 
ENDBRANCH   4   3
ENDBRANCH  10   9
BRANCH  12  13
ATOM     13  N   UNL     1     -11.121  20.613  26.422  0.00  0.00    -0.281 N 
ATOM     14  C   UNL     1     -12.101  19.635  26.379  0.00  0.00    +0.248 C 
ATOM     30  O   UNL     1     -13.159  19.743  25.777  0.00  0.00    -0.270 OA
ATOM     31  H   UNL     1     -10.382  20.477  27.112  0.00  0.00    +0.155 HD
BRANCH  14  15
ATOM     15  C   UNL     1     -11.880  18.358  27.122  0.00  0.00    +0.037 A 
ATOM     16  C   UNL     1     -12.999  17.482  27.478  0.00  0.00    +0.013 A 
ATOM     17  C   UNL     1     -12.760  16.264  28.211  0.00  0.00    +0.005 A 
ATOM     18  C   UNL     1     -11.393  15.913  28.591  0.00  0.00    -0.033 A 
ATOM     28  C   UNL     1     -10.301  16.798  28.221  0.00  0.00    +0.005 A 
ATOM     29  C   UNL     1     -10.532  17.993  27.503  0.00  0.00    +0.013 A 
BRANCH  18  19
ATOM     19  C   UNL     1     -11.047  14.644  29.392  0.00  0.00    +0.119 C 
BRANCH  19  20
ATOM     20  N   UNL     1     -10.713  14.817  30.837  0.00  0.00    -0.302 NA
ATOM     21  C   UNL     1     -11.716  15.725  31.554  0.00  0.00    +0.066 C 
ATOM     22  C   UNL     1     -11.364  15.877  33.070  0.00  0.00    -0.064 C 
ATOM     23  N   UNL     1      -9.943  16.425  33.208  0.00  0.00    +0.379 N 
ATOM     24  C   UNL     1      -9.630  16.624  34.631  0.00  0.00    -0.096 C 
ATOM     25  H   UNL     1      -9.917  17.424  32.713  0.00  0.00    -0.082 HD
ATOM     26  C   UNL     1      -8.939  15.530  32.495  0.00  0.00    -0.064 C 
ATOM     27  C   UNL     1      -9.315  15.362  30.997  0.00  0.00    +0.066 C 
ENDBRANCH  19  20
ENDBRANCH  18  19
ENDBRANCH  14  15
ENDBRANCH  12  13
TORSDOF 6
ENDMDL
MODEL 3
REMARK VINA RESULT:      -8.1      9.310     14.559
REMARK  Name = C:\Users\Docking\Desktop\test protocol\1iep_ligandH.pdb
REMARK  8 active torsions:
REMARK  status: ('A' for Active; 'I' for Inactive)
REMARK    1  A    between atoms: _5  and  _11
REMARK    2  A    between atoms: _19  and  _21
REMARK    3  A    between atoms: _22  and  _66
REMARK    4  A    between atoms: _27  and  _30
REMARK    5  A    between atoms: _32  and  _33
REMARK    6  A    between atoms: _38  and  _43
REMARK    7  A    between atoms: _43  and  _46
REMARK    8  A    between atoms: _53  and  _55
REMARK                            x       y       z     vdW  Elec       q    Type
REMARK                         _______ _______ _______ _____ _____    ______ ____
ROOT
ATOM     10  C   UNL     1      -8.754  15.451  32.001  0.00  0.00    +0.038 A 
ATOM     11  C   UNL     1      -9.310  14.537  32.933  0.00  0.00    +0.047 A 
ATOM     12  C   UNL     1      -9.998  15.005  34.126  0.00  0.00    +0.035 A 
ATOM     32  C   UNL     1     -10.104  16.410  34.338  0.00  0.00    +0.024 A 
ATOM     33  C   UNL     1      -9.544  17.353  33.402  0.00  0.00    +0.007 A 
ATOM     34  C   UNL     1      -8.862  16.898  32.224  0.00  0.00    -0.029 A 
ATOM     35  C   UNL     1      -8.276  17.954  31.259  0.00  0.00    +0.045 C 
ENDROOT
BRANCH  10   9
ATOM      4  C   UNL     1      -4.810  13.998  29.684  0.00  0.00    +0.077 A 
ATOM      5  C   UNL     1      -3.969  14.292  30.809  0.00  0.00    +0.048 A 
ATOM      6  C   UNL     1      -4.590  14.823  31.962  0.00  0.00    +0.116 A 
ATOM      7  N   UNL     1      -5.951  15.039  31.978  0.00  0.00    -0.223 NA
ATOM      8  C   UNL     1      -6.732  14.746  30.876  0.00  0.00    +0.220 A 
ATOM      9  N   UNL     1      -8.104  14.947  30.872  0.00  0.00    -0.283 N 
ATOM     36  H   UNL     1      -8.644  14.725  30.037  0.00  0.00    +0.155 HD
ATOM     37  N   UNL     1      -6.163  14.239  29.762  0.00  0.00    -0.214 NA
BRANCH   4   3
ATOM      1  C   UNL     1      -3.725  13.609  25.946  0.00  0.00    +0.020 A 
ATOM      2  C   UNL     1      -4.223  14.206  27.164  0.00  0.00    +0.013 A 
ATOM      3  C   UNL     1      -4.303  13.430  28.395  0.00  0.00    +0.019 A 
ATOM     38  C   UNL     1      -3.866  12.042  28.360  0.00  0.00    +0.120 A 
ATOM     39  N   UNL     1      -3.392  11.494  27.172  0.00  0.00    -0.263 NA
ATOM     40  C   UNL     1      -3.313  12.231  25.981  0.00  0.00    +0.111 A 
ENDBRANCH   4   3
ENDBRANCH  10   9
BRANCH  12  13
ATOM     13  N   UNL     1     -10.575  14.124  35.112  0.00  0.00    -0.281 N 
ATOM     14  C   UNL     1     -11.783  13.450  35.048  0.00  0.00    +0.248 C 
ATOM     30  O   UNL     1     -12.655  13.671  34.221  0.00  0.00    -0.270 OA
ATOM     31  H   UNL     1     -10.026  13.980  35.959  0.00  0.00    +0.155 HD
BRANCH  14  15
ATOM     15  C   UNL     1     -12.071  12.386  36.057  0.00  0.00    +0.037 A 
ATOM     16  C   UNL     1     -11.911  12.637  37.492  0.00  0.00    +0.013 A 
ATOM     17  C   UNL     1     -12.179  11.588  38.444  0.00  0.00    +0.005 A 
ATOM     18  C   UNL     1     -12.611  10.278  37.963  0.00  0.00    -0.033 A 
ATOM     28  C   UNL     1     -12.767  10.058  36.535  0.00  0.00    +0.005 A 
ATOM     29  C   UNL     1     -12.504  11.083  35.599  0.00  0.00    +0.013 A 
BRANCH  18  19
ATOM     19  C   UNL     1     -12.899   9.094  38.906  0.00  0.00    +0.119 C 
BRANCH  19  20
ATOM     20  N   UNL     1     -11.725   8.323  39.412  0.00  0.00    -0.302 NA
ATOM     21  C   UNL     1     -11.645   6.925  38.793  0.00  0.00    +0.066 C 
ATOM     22  C   UNL     1     -10.399   6.140  39.317  0.00  0.00    -0.064 C 
ATOM     23  N   UNL     1     -10.459   6.054  40.843  0.00  0.00    +0.379 N 
ATOM     24  C   UNL     1      -9.319   5.267  41.335  0.00  0.00    -0.096 C 
ATOM     25  H   UNL     1     -11.391   5.505  41.114  0.00  0.00    -0.082 HD
ATOM     26  C   UNL     1     -10.541   7.439  41.467  0.00  0.00    -0.064 C 
ATOM     27  C   UNL     1     -11.767   8.221  40.917  0.00  0.00    +0.066 C 
ENDBRANCH  19  20
ENDBRANCH  18  19
ENDBRANCH  14  15
ENDBRANCH  12  13
TORSDOF 6
ENDMDL
MODEL 4
REMARK VINA RESULT:      -8.0      2.232     14.536
REMARK  Name = C:\Users\Docking\Desktop\test protocol\1iep_ligandH.pdb
REMARK  8 active torsions:
REMARK  status: ('A' for Active; 'I' for Inactive)
REMARK    1  A    between atoms: _5  and  _11
REMARK    2  A    between atoms: _19  and  _21
REMARK    3  A    between atoms: _22  and  _66
REMARK    4  A    between atoms: _27  and  _30
REMARK    5  A    between atoms: _32  and  _33
REMARK    6  A    between atoms: _38  and  _43
REMARK    7  A    between atoms: _43  and  _46
REMARK    8  A    between atoms: _53  and  _55
REMARK                            x       y       z     vdW  Elec       q    Type
REMARK                         _______ _______ _______ _____ _____    ______ ____
ROOT
ATOM     10  C   UNL     1      -5.597  16.214  30.425  0.00  0.00    +0.038 A 
ATOM     11  C   UNL     1      -6.060  17.031  29.362  0.00  0.00    +0.047 A 
ATOM     12  C   UNL     1      -7.274  17.821  29.495  0.00  0.00    +0.035 A 
ATOM     32  C   UNL     1      -7.991  17.757  30.725  0.00  0.00    +0.024 A 
ATOM     33  C   UNL     1      -7.535  16.931  31.815  0.00  0.00    +0.007 A 
ATOM     34  C   UNL     1      -6.339  16.148  31.689  0.00  0.00    -0.029 A 
ATOM     35  C   UNL     1      -5.901  15.275  32.888  0.00  0.00    +0.045 C 
ENDROOT
BRANCH  10   9
ATOM      4  C   UNL     1      -3.275  12.119  29.492  0.00  0.00    +0.077 A 
ATOM      5  C   UNL     1      -4.499  11.380  29.384  0.00  0.00    +0.048 A 
ATOM      6  C   UNL     1      -5.705  12.089  29.582  0.00  0.00    +0.116 A 
ATOM      7  N   UNL     1      -5.676  13.437  29.867  0.00  0.00    -0.223 NA
ATOM      8  C   UNL     1      -4.477  14.120  29.966  0.00  0.00    +0.220 A 
ATOM      9  N   UNL     1      -4.425  15.477  30.243  0.00  0.00    -0.283 N 
ATOM     36  H   UNL     1      -3.520  15.942  30.316  0.00  0.00    +0.155 HD
ATOM     37  N   UNL     1      -3.312  13.464  29.782  0.00  0.00    -0.214 NA
BRANCH   4   3
ATOM      1  C   UNL     1       0.564  11.667  28.888  0.00  0.00    +0.020 A 
ATOM      2  C   UNL     1      -0.722  12.304  29.061  0.00  0.00    +0.013 A 
ATOM      3  C   UNL     1      -1.919  11.510  29.306  0.00  0.00    +0.019 A 
ATOM     38  C   UNL     1      -1.781  10.063  29.372  0.00  0.00    +0.120 A 
ATOM     39  N   UNL     1      -0.531   9.477  29.201  0.00  0.00    -0.263 NA
ATOM     40  C   UNL     1       0.629  10.231  28.963  0.00  0.00    +0.111 A 
ENDBRANCH   4   3
ENDBRANCH  10   9
BRANCH  12  13
ATOM     13  N   UNL     1      -7.798  18.663  28.447  0.00  0.00    -0.281 N 
ATOM     14  C   UNL     1      -8.544  18.284  27.344  0.00  0.00    +0.248 C 
ATOM     30  O   UNL     1      -8.695  17.129  26.974  0.00  0.00    -0.270 OA
ATOM     31  H   UNL     1      -7.593  19.659  28.530  0.00  0.00    +0.155 HD
BRANCH  14  15
ATOM     15  C   UNL     1      -9.207  19.342  26.523  0.00  0.00    +0.037 A 
ATOM     16  C   UNL     1     -10.656  19.337  26.302  0.00  0.00    +0.013 A 
ATOM     17  C   UNL     1     -11.268  20.360  25.492  0.00  0.00    +0.005 A 
ATOM     18  C   UNL     1     -10.431  21.399  24.898  0.00  0.00    -0.033 A 
ATOM     28  C   UNL     1      -8.997  21.384  25.137  0.00  0.00    +0.005 A 
ATOM     29  C   UNL     1      -8.394  20.382  25.930  0.00  0.00    +0.013 A 
BRANCH  18  19
ATOM     19  C   UNL     1     -10.996  22.518  24.002  0.00  0.00    +0.119 C 
BRANCH  19  20
ATOM     20  N   UNL     1     -12.053  23.394  24.589  0.00  0.00    -0.302 NA
ATOM     21  C   UNL     1     -12.401  24.569  23.669  0.00  0.00    +0.066 C 
ATOM     22  C   UNL     1     -13.524  25.463  24.288  0.00  0.00    -0.064 C 
ATOM     23  N   UNL     1     -13.074  25.965  25.661  0.00  0.00    +0.379 N 
ATOM     24  C   UNL     1     -14.104  26.853  26.220  0.00  0.00    -0.096 C 
ATOM     25  H   UNL     1     -12.150  26.569  25.514  0.00  0.00    -0.082 HD
ATOM     26  C   UNL     1     -12.725  24.803  26.581  0.00  0.00    -0.064 C 
ATOM     27  C   UNL     1     -11.628  23.904  25.944  0.00  0.00    +0.066 C 
ENDBRANCH  19  20
ENDBRANCH  18  19
ENDBRANCH  14  15
ENDBRANCH  12  13
TORSDOF 6
ENDMDL
MODEL 5
REMARK VINA RESULT:      -7.9      9.296     14.586
REMARK  Name = C:\Users\Docking\Desktop\test protocol\1iep_ligandH.pdb
REMARK  8 active torsions:
REMARK  status: ('A' for Active; 'I' for Inactive)
REMARK    1  A    between atoms: _5  and  _11
REMARK    2  A    between atoms: _19  and  _21
REMARK    3  A    between atoms: _22  and  _66
REMARK    4  A    between atoms: _27  and  _30
REMARK    5  A    between atoms: _32  and  _33
REMARK    6  A    between atoms: _38  and  _43
REMARK    7  A    between atoms: _43  and  _46
REMARK    8  A    between atoms: _53  and  _55
REMARK                            x       y       z     vdW  Elec       q    Type
REMARK                         _______ _______ _______ _____ _____    ______ ____
ROOT
ATOM     10  C   UNL     1      -7.632  15.340  30.661  0.00  0.00    +0.038 A 
ATOM     11  C   UNL     1      -8.435  14.707  31.644  0.00  0.00    +0.047 A 
ATOM     12  C   UNL     1      -9.137  15.482  32.654  0.00  0.00    +0.035 A 
ATOM     32  C   UNL     1      -9.001  16.901  32.633  0.00  0.00    +0.024 A 
ATOM     33  C   UNL     1      -8.188  17.561  31.642  0.00  0.00    +0.007 A 
ATOM     34  C   UNL     1      -7.491  16.801  30.644  0.00  0.00    -0.029 A 
ATOM     35  C   UNL     1      -6.628  17.561  29.610  0.00  0.00    +0.045 C 
ENDROOT
BRANCH  10   9
ATOM      4  C   UNL     1      -3.839  12.824  29.136  0.00  0.00    +0.077 A 
ATOM      5  C   UNL     1      -3.083  13.138  30.314  0.00  0.00    +0.048 A 
ATOM      6  C   UNL     1      -3.704  13.956  31.285  0.00  0.00    +0.116 A 
ATOM      7  N   UNL     1      -4.985  14.419  31.083  0.00  0.00    -0.223 NA
ATOM      8  C   UNL     1      -5.687  14.099  29.935  0.00  0.00    +0.220 A 
ATOM      9  N   UNL     1      -6.980  14.547  29.714  0.00  0.00    -0.283 N 
ATOM     36  H   UNL     1      -7.460  14.295  28.851  0.00  0.00    +0.155 HD
ATOM     37  N   UNL     1      -5.115  13.320  28.992  0.00  0.00    -0.214 NA
BRANCH   4   3
ATOM      1  C   UNL     1      -2.088  11.635  25.847  0.00  0.00    +0.020 A 
ATOM      2  C   UNL     1      -2.565  12.505  26.898  0.00  0.00    +0.013 A 
ATOM      3  C   UNL     1      -3.322  11.968  28.022  0.00  0.00    +0.019 A 
ATOM     38  C   UNL     1      -3.580  10.537  28.054  0.00  0.00    +0.120 A 
ATOM     39  N   UNL     1      -3.109   9.724  27.027  0.00  0.00    -0.263 NA
ATOM     40  C   UNL     1      -2.381  10.229  25.939  0.00  0.00    +0.111 A 
ENDBRANCH   4   3
ENDBRANCH  10   9
BRANCH  12  13
ATOM     13  N   UNL     1      -9.960  14.895  33.682  0.00  0.00    -0.281 N 
ATOM     14  C   UNL     1     -11.344  14.858  33.748  0.00  0.00    +0.248 C 
ATOM     30  O   UNL     1     -12.087  15.515  33.035  0.00  0.00    -0.270 OA
ATOM     31  H   UNL     1      -9.463  14.452  34.455  0.00  0.00    +0.155 HD
BRANCH  14  15
ATOM     15  C   UNL     1     -11.995  13.973  34.761  0.00  0.00    +0.037 A 
ATOM     16  C   UNL     1     -13.445  13.997  34.971  0.00  0.00    +0.013 A 
ATOM     17  C   UNL     1     -14.045  13.146  35.968  0.00  0.00    +0.005 A 
ATOM     18  C   UNL     1     -13.195  12.261  36.761  0.00  0.00    -0.033 A 
ATOM     28  C   UNL     1     -11.760  12.254  36.528  0.00  0.00    +0.005 A 
ATOM     29  C   UNL     1     -11.168  13.088  35.553  0.00  0.00    +0.013 A 
BRANCH  18  19
ATOM     19  C   UNL     1     -13.748  11.334  37.860  0.00  0.00    +0.119 C 
BRANCH  19  20
ATOM     20  N   UNL     1     -12.782  10.406  38.520  0.00  0.00    -0.302 NA
ATOM     21  C   UNL     1     -12.958   8.961  38.044  0.00  0.00    +0.066 C 
ATOM     22  C   UNL     1     -11.925   8.007  38.728  0.00  0.00    -0.064 C 
ATOM     23  N   UNL     1     -12.078   8.099  40.247  0.00  0.00    +0.379 N 
ATOM     24  C   UNL     1     -11.149   7.160  40.892  0.00  0.00    -0.096 C 
ATOM     25  H   UNL     1     -13.115   7.778  40.503  0.00  0.00    -0.082 HD
ATOM     26  C   UNL     1     -11.908   9.533  40.729  0.00  0.00    -0.064 C 
ATOM     27  C   UNL     1     -12.919  10.478  40.021  0.00  0.00    +0.066 C 
ENDBRANCH  19  20
ENDBRANCH  18  19
ENDBRANCH  14  15
ENDBRANCH  12  13
TORSDOF 6
ENDMDL
