MODEL 1
REMARK VINA RESULT:      -8.1      0.000      0.000
REMARK  Name = C:\Users\Docking\Desktop\test protocol\1iep_ligandH.pdb
REMARK  8 active torsions:
REMARK  status: ('A' for Active; 'I' for Inactive)
REMARK    1  A    between atoms: _5  and  _11
REMARK    2  A    between atoms: _19  and  _21
REMARK    3  A    between atoms: _22  and  _66
REMARK    4  A    between atoms: _27  and  _30
REMARK    5  A    between atoms: _32  and  _33
REMARK    6  A    between atoms: _38  and  _43
REMARK    7  A    between atoms: _43  and  _46
REMARK    8  A    between atoms: _53  and  _55
REMARK                            x       y       z     vdW  Elec       q    Type
REMARK                         _______ _______ _______ _____ _____    ______ ____
ROOT
ATOM     10  C   UNL     1     -10.608  24.048  24.999  0.00  0.00    +0.038 A 
ATOM     11  C   UNL     1     -10.413  22.897  25.804  0.00  0.00    +0.047 A 
ATOM     12  C   UNL     1     -10.066  21.615  25.212  0.00  0.00    +0.035 A 
ATOM     32  C   UNL     1      -9.923  21.541  23.795  0.00  0.00    +0.024 A 
ATOM     33  C   UNL     1     -10.119  22.701  22.962  0.00  0.00    +0.007 A 
ATOM     34  C   UNL     1     -10.463  23.969  23.540  0.00  0.00    -0.029 A 
ATOM     35  C   UNL     1     -10.667  25.178  22.598  0.00  0.00    +0.045 C 
ENDROOT
BRANCH  10   9
ATOM      4  C   UNL     1     -13.788  27.379  26.351  0.00  0.00    +0.077 A 
ATOM      5  C   UNL     1     -14.878  26.670  25.743  0.00  0.00    +0.048 A 
ATOM      6  C   UNL     1     -14.576  25.456  25.087  0.00  0.00    +0.116 A 
ATOM      7  N   UNL     1     -13.278  24.994  25.047  0.00  0.00    -0.223 NA
ATOM      8  C   UNL     1     -12.251  25.704  25.642  0.00  0.00    +0.220 A 
ATOM      9  N   UNL     1     -10.939  25.254  25.621  0.00  0.00    -0.283 N 
ATOM     36  H   UNL     1     -10.209  25.811  26.064  0.00  0.00    +0.155 HD
ATOM     37  N   UNL     1     -12.512  26.867  26.273  0.00  0.00    -0.214 NA
BRANCH   4   3
ATOM      1  C   UNL     1     -14.817  31.034  27.292  0.00  0.00    +0.020 A 
ATOM      2  C   UNL     1     -14.692  29.805  26.543  0.00  0.00    +0.013 A 
ATOM      3  C   UNL     1     -13.947  28.675  27.083  0.00  0.00    +0.019 A 
ATOM     38  C   UNL     1     -13.336  28.822  28.396  0.00  0.00    +0.120 A 
ATOM     39  N   UNL     1     -13.471  30.019  29.093  0.00  0.00    -0.263 NA
ATOM     40  C   UNL     1     -14.184  31.113  28.582  0.00  0.00    +0.111 A 
ENDBRANCH   4   3
ENDBRANCH  10   9
BRANCH  12  13
ATOM     13  N   UNL     1      -9.863  20.410  25.977  0.00  0.00    -0.281 N 
ATOM     14  C   UNL     1      -8.676  19.733  26.203  0.00  0.00    +0.248 C 
ATOM     30  O   UNL     1      -7.634  19.945  25.599  0.00  0.00    -0.270 OA
ATOM     31  H   UNL     1     -10.697  20.007  26.405  0.00  0.00    +0.155 HD
BRANCH  14  15
ATOM     15  C   UNL     1      -8.644  18.656  27.238  0.00  0.00    +0.037 A 
ATOM     16  C   UNL     1      -9.844  17.884  27.569  0.00  0.00    +0.013 A 
ATOM     17  C   UNL     1      -9.790  16.862  28.584  0.00  0.00    +0.005 A 
ATOM     18  C   UNL     1      -8.528  16.605  29.275  0.00  0.00    -0.033 A 
ATOM     28  C   UNL     1      -7.352  17.383  28.924  0.00  0.00    +0.005 A 
ATOM     29  C   UNL     1      -7.401  18.386  27.930  0.00  0.00    +0.013 A 
BRANCH  18  19
ATOM     19  C   UNL     1      -8.383  15.549  30.386  0.00  0.00    +0.119 C 
BRANCH  19  20
ATOM     20  N   UNL     1      -9.117  15.795  31.664  0.00  0.00    -0.302 NA
ATOM     21  C   UNL     1      -8.473  16.912  32.490  0.00  0.00    +0.066 C 
ATOM     22  C   UNL     1      -9.265  17.172  33.812  0.00  0.00    -0.064 C 
ATOM     23  N   UNL     1      -9.341  15.875  34.621  0.00  0.00    +0.379 N 
ATOM     24  C   UNL     1     -10.036  16.130  35.891  0.00  0.00    -0.096 C 
ATOM     25  H   UNL     1      -8.298  15.566  34.861  0.00  0.00    -0.082 HD
ATOM     26  C   UNL     1      -9.978  14.758  33.806  0.00  0.00    -0.064 C 
ATOM     27  C   UNL     1      -9.200  14.528  32.480  0.00  0.00    +0.066 C 
ENDBRANCH  19  20
ENDBRANCH  18  19
ENDBRANCH  14  15
ENDBRANCH  12  13
TORSDOF 6
ENDMDL
MODEL 2
REMARK VINA RESULT:      -8.1      2.168      2.807
REMARK  Name = C:\Users\Docking\Desktop\test protocol\1iep_ligandH.pdb
REMARK  8 active torsions:
REMARK  status: ('A' for Active; 'I' for Inactive)
REMARK    1  A    between atoms: _5  and  _11
REMARK    2  A    between atoms: _19  and  _21
REMARK    3  A    between atoms: _22  and  _66
REMARK    4  A    between atoms: _27  and  _30
REMARK    5  A    between atoms: _32  and  _33
REMARK    6  A    between atoms: _38  and  _43
REMARK    7  A    between atoms: _43  and  _46
REMARK    8  A    between atoms: _53  and  _55
REMARK                            x       y       z     vdW  Elec       q    Type
REMARK                         _______ _______ _______ _____ _____    ______ ____
ROOT
ATOM     10  C   UNL     1     -10.700  24.109  25.230  0.00  0.00    +0.038 A 
ATOM     11  C   UNL     1     -10.543  22.993  26.091  0.00  0.00    +0.047 A 
ATOM     12  C   UNL     1     -10.200  21.680  25.568  0.00  0.00    +0.035 A 
ATOM     32  C   UNL     1     -10.020  21.540  24.161  0.00  0.00    +0.024 A 
ATOM     33  C   UNL     1     -10.176  22.663  23.270  0.00  0.00    +0.007 A 
ATOM     34  C   UNL     1     -10.518  23.960  23.781  0.00  0.00    -0.029 A 
ATOM     35  C   UNL     1     -10.679  25.127  22.779  0.00  0.00    +0.045 C 
ENDROOT
BRANCH  10   9
ATOM      4  C   UNL     1     -13.872  27.525  26.370  0.00  0.00    +0.077 A 
ATOM      5  C   UNL     1     -14.959  26.795  25.783  0.00  0.00    +0.048 A 
ATOM      6  C   UNL     1     -14.658  25.548  25.191  0.00  0.00    +0.116 A 
ATOM      7  N   UNL     1     -13.363  25.075  25.193  0.00  0.00    -0.223 NA
ATOM      8  C   UNL     1     -12.338  25.806  25.767  0.00  0.00    +0.220 A 
ATOM      9  N   UNL     1     -11.031  25.346  25.787  0.00  0.00    -0.283 N 
ATOM     36  H   UNL     1     -10.302  25.918  26.213  0.00  0.00    +0.155 HD
ATOM     37  N   UNL     1     -12.600  27.000  26.337  0.00  0.00    -0.214 NA
BRANCH   4   3
ATOM      1  C   UNL     1     -14.931  31.211  27.141  0.00  0.00    +0.020 A 
ATOM      2  C   UNL     1     -14.809  29.945  26.457  0.00  0.00    +0.013 A 
ATOM      3  C   UNL     1     -14.031  28.857  27.036  0.00  0.00    +0.019 A 
ATOM     38  C   UNL     1     -13.386  29.084  28.320  0.00  0.00    +0.120 A 
ATOM     39  N   UNL     1     -13.520  30.315  28.956  0.00  0.00    -0.263 NA
ATOM     40  C   UNL     1     -14.265  31.369  28.407  0.00  0.00    +0.111 A 
ENDBRANCH   4   3
ENDBRANCH  10   9
BRANCH  12  13
ATOM     13  N   UNL     1     -10.035  20.509  26.393  0.00  0.00    -0.281 N 
ATOM     14  C   UNL     1     -10.806  19.358  26.401  0.00  0.00    +0.248 C 
ATOM     30  O   UNL     1     -11.889  19.247  25.845  0.00  0.00    -0.270 OA
ATOM     31  H   UNL     1      -9.256  20.532  27.051  0.00  0.00    +0.155 HD
BRANCH  14  15
ATOM     15  C   UNL     1     -10.309  18.161  27.146  0.00  0.00    +0.037 A 
ATOM     16  C   UNL     1     -10.985  17.684  28.355  0.00  0.00    +0.013 A 
ATOM     17  C   UNL     1     -10.475  16.537  29.064  0.00  0.00    +0.005 A 
ATOM     18  C   UNL     1      -9.281  15.859  28.564  0.00  0.00    -0.033 A 
ATOM     28  C   UNL     1      -8.633  16.351  27.359  0.00  0.00    +0.005 A 
ATOM     29  C   UNL     1      -9.130  17.475  26.662  0.00  0.00    +0.013 A 
BRANCH  18  19
ATOM     19  C   UNL     1      -8.654  14.641  29.268  0.00  0.00    +0.119 C 
BRANCH  19  20
ATOM     20  N   UNL     1      -7.179  14.670  29.501  0.00  0.00    -0.302 NA
ATOM     21  C   UNL     1      -6.494  13.397  28.999  0.00  0.00    +0.066 C 
ATOM     22  C   UNL     1      -4.948  13.453  29.230  0.00  0.00    -0.064 C 
ATOM     23  N   UNL     1      -4.665  13.670  30.718  0.00  0.00    +0.379 N 
ATOM     24  C   UNL     1      -3.213  13.666  30.946  0.00  0.00    -0.096 C 
ATOM     25  H   UNL     1      -5.098  12.806  31.273  0.00  0.00    -0.082 HD
ATOM     26  C   UNL     1      -5.346  14.933  31.226  0.00  0.00    -0.064 C 
ATOM     27  C   UNL     1      -6.877  14.879  30.965  0.00  0.00    +0.066 C 
ENDBRANCH  19  20
ENDBRANCH  18  19
ENDBRANCH  14  15
ENDBRANCH  12  13
TORSDOF 6
ENDMDL
MODEL 3
REMARK VINA RESULT:      -8.0      2.339     12.547
REMARK  Name = C:\Users\Docking\Desktop\test protocol\1iep_ligandH.pdb
REMARK  8 active torsions:
REMARK  status: ('A' for Active; 'I' for Inactive)
REMARK    1  A    between atoms: _5  and  _11
REMARK    2  A    between atoms: _19  and  _21
REMARK    3  A    between atoms: _22  and  _66
REMARK    4  A    between atoms: _27  and  _30
REMARK    5  A    between atoms: _32  and  _33
REMARK    6  A    between atoms: _38  and  _43
REMARK    7  A    between atoms: _43  and  _46
REMARK    8  A    between atoms: _53  and  _55
REMARK                            x       y       z     vdW  Elec       q    Type
REMARK                         _______ _______ _______ _____ _____    ______ ____
ROOT
ATOM     10  C   UNL     1      -7.828  15.553  31.334  0.00  0.00    +0.038 A 
ATOM     11  C   UNL     1      -8.399  16.485  30.430  0.00  0.00    +0.047 A 
ATOM     12  C   UNL     1      -7.562  17.323  29.585  0.00  0.00    +0.035 A 
ATOM     32  C   UNL     1      -6.147  17.185  29.685  0.00  0.00    +0.024 A 
ATOM     33  C   UNL     1      -5.550  16.243  30.600  0.00  0.00    +0.007 A 
ATOM     34  C   UNL     1      -6.370  15.415  31.437  0.00  0.00    -0.029 A 
ATOM     35  C   UNL     1      -5.675  14.428  32.404  0.00  0.00    +0.045 C 
ENDROOT
BRANCH  10   9
ATOM      4  C   UNL     1     -10.595  14.890  35.199  0.00  0.00    +0.077 A 
ATOM      5  C   UNL     1     -10.300  16.199  35.708  0.00  0.00    +0.048 A 
ATOM      6  C   UNL     1      -9.426  17.009  34.948  0.00  0.00    +0.116 A 
ATOM      7  N   UNL     1      -8.893  16.535  33.769  0.00  0.00    -0.223 NA
ATOM      8  C   UNL     1      -9.197  15.267  33.308  0.00  0.00    +0.220 A 
ATOM      9  N   UNL     1      -8.678  14.773  32.121  0.00  0.00    -0.283 N 
ATOM     36  H   UNL     1      -8.921  13.830  31.819  0.00  0.00    +0.155 HD
ATOM     37  N   UNL     1     -10.027  14.474  34.016  0.00  0.00    -0.214 NA
BRANCH   4   3
ATOM      1  C   UNL     1     -12.323  11.582  36.370  0.00  0.00    +0.020 A 
ATOM      2  C   UNL     1     -11.422  12.478  35.681  0.00  0.00    +0.013 A 
ATOM      3  C   UNL     1     -11.503  13.918  35.886  0.00  0.00    +0.019 A 
ATOM     38  C   UNL     1     -12.514  14.425  36.802  0.00  0.00    +0.120 A 
ATOM     39  N   UNL     1     -13.369  13.539  37.450  0.00  0.00    -0.263 NA
ATOM     40  C   UNL     1     -13.302  12.150  37.260  0.00  0.00    +0.111 A 
ENDBRANCH   4   3
ENDBRANCH  10   9
BRANCH  12  13
ATOM     13  N   UNL     1      -8.085  18.292  28.654  0.00  0.00    -0.281 N 
ATOM     14  C   UNL     1      -8.269  18.149  27.289  0.00  0.00    +0.248 C 
ATOM     30  O   UNL     1      -7.810  17.234  26.622  0.00  0.00    -0.270 OA
ATOM     31  H   UNL     1      -8.352  19.194  29.050  0.00  0.00    +0.155 HD
BRANCH  14  15
ATOM     15  C   UNL     1      -9.066  19.179  26.555  0.00  0.00    +0.037 A 
ATOM     16  C   UNL     1      -8.514  20.505  26.268  0.00  0.00    +0.013 A 
ATOM     17  C   UNL     1      -9.310  21.485  25.574  0.00  0.00    +0.005 A 
ATOM     18  C   UNL     1     -10.669  21.142  25.161  0.00  0.00    -0.033 A 
ATOM     28  C   UNL     1     -11.190  19.817  25.454  0.00  0.00    +0.005 A 
ATOM     29  C   UNL     1     -10.413  18.854  26.135  0.00  0.00    +0.013 A 
BRANCH  18  19
ATOM     19  C   UNL     1     -11.598  22.133  24.434  0.00  0.00    +0.119 C 
BRANCH  19  20
ATOM     20  N   UNL     1     -11.722  23.504  25.013  0.00  0.00    -0.302 NA
ATOM     21  C   UNL     1     -12.761  23.562  26.136  0.00  0.00    +0.066 C 
ATOM     22  C   UNL     1     -12.861  24.998  26.745  0.00  0.00    -0.064 C 
ATOM     23  N   UNL     1     -13.205  25.996  25.638  0.00  0.00    +0.379 N 
ATOM     24  C   UNL     1     -13.357  27.339  26.217  0.00  0.00    -0.096 C 
ATOM     25  H   UNL     1     -14.190  25.698  25.209  0.00  0.00    -0.082 HD
ATOM     26  C   UNL     1     -12.178  25.943  24.515  0.00  0.00    -0.064 C 
ATOM     27  C   UNL     1     -12.065  24.505  23.937  0.00  0.00    +0.066 C 
ENDBRANCH  19  20
ENDBRANCH  18  19
ENDBRANCH  14  15
ENDBRANCH  12  13
TORSDOF 6
ENDMDL
MODEL 4
REMARK VINA RESULT:      -8.0      9.625     14.117
REMARK  Name = C:\Users\Docking\Desktop\test protocol\1iep_ligandH.pdb
REMARK  8 active torsions:
REMARK  status: ('A' for Active; 'I' for Inactive)
REMARK    1  A    between atoms: _5  and  _11
REMARK    2  A    between atoms: _19  and  _21
REMARK    3  A    between atoms: _22  and  _66
REMARK    4  A    between atoms: _27  and  _30
REMARK    5  A    between atoms: _32  and  _33
REMARK    6  A    between atoms: _38  and  _43
REMARK    7  A    between atoms: _43  and  _46
REMARK    8  A    between atoms: _53  and  _55
REMARK                            x       y       z     vdW  Elec       q    Type
REMARK                         _______ _______ _______ _____ _____    ______ ____
ROOT
ATOM     10  C   UNL     1      -5.239  15.560  31.047  0.00  0.00    +0.038 A 
ATOM     11  C   UNL     1      -6.132  15.058  32.027  0.00  0.00    +0.047 A 
ATOM     12  C   UNL     1      -7.484  15.582  32.153  0.00  0.00    +0.035 A 
ATOM     32  C   UNL     1      -7.893  16.615  31.260  0.00  0.00    +0.024 A 
ATOM     33  C   UNL     1      -6.998  17.137  30.258  0.00  0.00    +0.007 A 
ATOM     34  C   UNL     1      -5.663  16.626  30.131  0.00  0.00    -0.029 A 
ATOM     35  C   UNL     1      -4.744  17.228  29.043  0.00  0.00    +0.045 C 
ENDROOT
BRANCH  10   9
ATOM      4  C   UNL     1      -2.106  12.294  29.448  0.00  0.00    +0.077 A 
ATOM      5  C   UNL     1      -3.123  11.586  28.724  0.00  0.00    +0.048 A 
ATOM      6  C   UNL     1      -4.440  12.092  28.795  0.00  0.00    +0.116 A 
ATOM      7  N   UNL     1      -4.709  13.221  29.537  0.00  0.00    -0.223 NA
ATOM      8  C   UNL     1      -3.706  13.878  30.225  0.00  0.00    +0.220 A 
ATOM      9  N   UNL     1      -3.953  15.021  30.971  0.00  0.00    -0.283 N 
ATOM     36  H   UNL     1      -3.187  15.472  31.470  0.00  0.00    +0.155 HD
ATOM     37  N   UNL     1      -2.440  13.415  30.175  0.00  0.00    -0.214 NA
BRANCH   4   3
ATOM      1  C   UNL     1       1.794  12.346  29.151  0.00  0.00    +0.020 A 
ATOM      2  C   UNL     1       0.420  12.791  29.114  0.00  0.00    +0.013 A 
ATOM      3  C   UNL     1      -0.666  11.885  29.469  0.00  0.00    +0.019 A 
ATOM     38  C   UNL     1      -0.324  10.526  29.861  0.00  0.00    +0.120 A 
ATOM     39  N   UNL     1       1.008  10.126  29.886  0.00  0.00    -0.263 NA
ATOM     40  C   UNL     1       2.061  10.988  29.545  0.00  0.00    +0.111 A 
ENDBRANCH   4   3
ENDBRANCH  10   9
BRANCH  12  13
ATOM     13  N   UNL     1      -8.432  15.117  33.134  0.00  0.00    -0.281 N 
ATOM     14  C   UNL     1      -9.206  15.877  33.996  0.00  0.00    +0.248 C 
ATOM     30  O   UNL     1      -9.043  17.070  34.202  0.00  0.00    -0.270 OA
ATOM     31  H   UNL     1      -8.547  14.106  33.202  0.00  0.00    +0.155 HD
BRANCH  14  15
ATOM     15  C   UNL     1     -10.313  15.211  34.749  0.00  0.00    +0.037 A 
ATOM     16  C   UNL     1     -11.263  15.989  35.548  0.00  0.00    +0.013 A 
ATOM     17  C   UNL     1     -12.311  15.320  36.278  0.00  0.00    +0.005 A 
ATOM     18  C   UNL     1     -12.415  13.865  36.210  0.00  0.00    -0.033 A 
ATOM     28  C   UNL     1     -11.463  13.118  35.405  0.00  0.00    +0.005 A 
ATOM     29  C   UNL     1     -10.433  13.770  34.689  0.00  0.00    +0.013 A 
BRANCH  18  19
ATOM     19  C   UNL     1     -13.489  13.066  36.973  0.00  0.00    +0.119 C 
BRANCH  19  20
ATOM     20  N   UNL     1     -13.281  12.868  38.438  0.00  0.00    -0.302 NA
ATOM     21  C   UNL     1     -14.065  13.885  39.273  0.00  0.00    +0.066 C 
ATOM     22  C   UNL     1     -13.854  13.648  40.804  0.00  0.00    -0.064 C 
ATOM     23  N   UNL     1     -12.361  13.720  41.127  0.00  0.00    +0.379 N 
ATOM     24  C   UNL     1     -12.163  13.556  42.574  0.00  0.00    -0.096 C 
ATOM     25  H   UNL     1     -12.004  14.739  40.850  0.00  0.00    -0.082 HD
ATOM     26  C   UNL     1     -11.573  12.714  40.299  0.00  0.00    -0.064 C 
ATOM     27  C   UNL     1     -11.813  12.939  38.780  0.00  0.00    +0.066 C 
ENDBRANCH  19  20
ENDBRANCH  18  19
ENDBRANCH  14  15
ENDBRANCH  12  13
TORSDOF 6
ENDMDL
MODEL 5
REMARK VINA RESULT:      -7.9      4.211      8.348
REMARK  Name = C:\Users\Docking\Desktop\test protocol\1iep_ligandH.pdb
REMARK  8 active torsions:
REMARK  status: ('A' for Active; 'I' for Inactive)
REMARK    1  A    between atoms: _5  and  _11
REMARK    2  A    between atoms: _19  and  _21
REMARK    3  A    between atoms: _22  and  _66
REMARK    4  A    between atoms: _27  and  _30
REMARK    5  A    between atoms: _32  and  _33
REMARK    6  A    between atoms: _38  and  _43
REMARK    7  A    between atoms: _43  and  _46
REMARK    8  A    between atoms: _53  and  _55
REMARK                            x       y       z     vdW  Elec       q    Type
REMARK                         _______ _______ _______ _____ _____    ______ ____
ROOT
ATOM     10  C   UNL     1      -6.217  17.353  28.568  0.00  0.00    +0.038 A 
ATOM     11  C   UNL     1      -6.937  17.101  29.764  0.00  0.00    +0.047 A 
ATOM     12  C   UNL     1      -6.739  15.873  30.518  0.00  0.00    +0.035 A 
ATOM     32  C   UNL     1      -5.797  14.923  30.026  0.00  0.00    +0.024 A 
ATOM     33  C   UNL     1      -5.057  15.162  28.812  0.00  0.00    +0.007 A 
ATOM     34  C   UNL     1      -5.250  16.371  28.063  0.00  0.00    -0.029 A 
ATOM     35  C   UNL     1      -4.434  16.571  26.765  0.00  0.00    +0.045 C 
ENDROOT
BRANCH  10   9
ATOM      4  C   UNL     1      -9.050  20.342  26.104  0.00  0.00    +0.077 A 
ATOM      5  C   UNL     1     -10.158  19.433  26.159  0.00  0.00    +0.048 A 
ATOM      6  C   UNL     1      -9.955  18.203  26.825  0.00  0.00    +0.116 A 
ATOM      7  N   UNL     1      -8.732  17.915  27.390  0.00  0.00    -0.223 NA
ATOM      8  C   UNL     1      -7.684  18.814  27.317  0.00  0.00    +0.220 A 
ATOM      9  N   UNL     1      -6.447  18.549  27.885  0.00  0.00    -0.283 N 
ATOM     36  H   UNL     1      -5.697  19.235  27.803  0.00  0.00    +0.155 HD
ATOM     37  N   UNL     1      -7.851  19.994  26.685  0.00  0.00    -0.214 NA
BRANCH   4   3
ATOM      1  C   UNL     1      -8.245  23.415  23.821  0.00  0.00    +0.020 A 
ATOM      2  C   UNL     1      -8.143  22.111  24.434  0.00  0.00    +0.013 A 
ATOM      3  C   UNL     1      -9.109  21.682  25.438  0.00  0.00    +0.019 A 
ATOM     38  C   UNL     1     -10.175  22.603  25.801  0.00  0.00    +0.120 A 
ATOM     39  N   UNL     1     -10.247  23.854  25.195  0.00  0.00    -0.263 NA
ATOM     40  C   UNL     1      -9.323  24.278  24.230  0.00  0.00    +0.111 A 
ENDBRANCH   4   3
ENDBRANCH  10   9
BRANCH  12  13
ATOM     13  N   UNL     1      -7.448  15.559  31.734  0.00  0.00    -0.281 N 
ATOM     14  C   UNL     1      -8.167  16.419  32.546  0.00  0.00    +0.248 C 
ATOM     30  O   UNL     1      -8.133  17.638  32.464  0.00  0.00    -0.270 OA
ATOM     31  H   UNL     1      -7.414  14.584  32.032  0.00  0.00    +0.155 HD
BRANCH  14  15
ATOM     15  C   UNL     1      -9.041  15.843  33.614  0.00  0.00    +0.037 A 
ATOM     16  C   UNL     1      -9.602  14.496  33.491  0.00  0.00    +0.013 A 
ATOM     17  C   UNL     1     -10.455  13.970  34.528  0.00  0.00    +0.005 A 
ATOM     18  C   UNL     1     -10.751  14.794  35.697  0.00  0.00    -0.033 A 
ATOM     28  C   UNL     1     -10.177  16.126  35.796  0.00  0.00    +0.005 A 
ATOM     29  C   UNL     1      -9.341  16.644  34.781  0.00  0.00    +0.013 A 
BRANCH  18  19
ATOM     19  C   UNL     1     -11.668  14.323  36.841  0.00  0.00    +0.119 C 
BRANCH  19  20
ATOM     20  N   UNL     1     -11.429  12.956  37.391  0.00  0.00    -0.302 NA
ATOM     21  C   UNL     1     -12.295  11.899  36.701  0.00  0.00    +0.066 C 
ATOM     22  C   UNL     1     -12.015  10.471  37.273  0.00  0.00    -0.064 C 
ATOM     23  N   UNL     1     -12.262  10.472  38.782  0.00  0.00    +0.379 N 
ATOM     24  C   UNL     1     -12.056   9.117  39.314  0.00  0.00    -0.096 C 
ATOM     25  H   UNL     1     -13.331  10.742  38.950  0.00  0.00    -0.082 HD
ATOM     26  C   UNL     1     -11.406  11.522  39.477  0.00  0.00    -0.064 C 
ATOM     27  C   UNL     1     -11.671  12.933  38.881  0.00  0.00    +0.066 C 
ENDBRANCH  19  20
ENDBRANCH  18  19
ENDBRANCH  14  15
ENDBRANCH  12  13
TORSDOF 6
ENDMDL
