MODEL 1
REMARK VINA RESULT:      -8.3      0.000      0.000
REMARK  Name = C:\Users\Docking\Desktop\test protocol\1iep_ligandH.pdb
REMARK  8 active torsions:
REMARK  status: ('A' for Active; 'I' for Inactive)
REMARK    1  A    between atoms: _5  and  _11
REMARK    2  A    between atoms: _19  and  _21
REMARK    3  A    between atoms: _22  and  _66
REMARK    4  A    between atoms: _27  and  _30
REMARK    5  A    between atoms: _32  and  _33
REMARK    6  A    between atoms: _38  and  _43
REMARK    7  A    between atoms: _43  and  _46
REMARK    8  A    between atoms: _53  and  _55
REMARK                            x       y       z     vdW  Elec       q    Type
REMARK                         _______ _______ _______ _____ _____    ______ ____
ROOT
ATOM     10  C   UNL     1     -10.585  24.099  25.132  0.00  0.00    +0.038 A 
ATOM     11  C   UNL     1     -10.342  23.008  26.005  0.00  0.00    +0.047 A 
ATOM     12  C   UNL     1      -9.960  21.703  25.490  0.00  0.00    +0.035 A 
ATOM     32  C   UNL     1      -9.833  21.544  24.079  0.00  0.00    +0.024 A 
ATOM     33  C   UNL     1     -10.078  22.642  23.177  0.00  0.00    +0.007 A 
ATOM     34  C   UNL     1     -10.456  23.931  23.679  0.00  0.00    -0.029 A 
ATOM     35  C   UNL     1     -10.712  25.071  22.665  0.00  0.00    +0.045 C 
ENDROOT
BRANCH  10   9
ATOM      4  C   UNL     1     -13.864  27.369  26.392  0.00  0.00    +0.077 A 
ATOM      5  C   UNL     1     -14.943  26.568  25.890  0.00  0.00    +0.048 A 
ATOM      6  C   UNL     1     -14.610  25.324  25.309  0.00  0.00    +0.116 A 
ATOM      7  N   UNL     1     -13.294  24.921  25.240  0.00  0.00    -0.223 NA
ATOM      8  C   UNL     1     -12.278  25.719  25.732  0.00  0.00    +0.220 A 
ATOM      9  N   UNL     1     -10.948  25.331  25.681  0.00  0.00    -0.283 N 
ATOM     36  H   UNL     1     -10.227  25.952  26.048  0.00  0.00    +0.155 HD
ATOM     37  N   UNL     1     -12.569  26.912  26.291  0.00  0.00    -0.214 NA
BRANCH   4   3
ATOM      1  C   UNL     1     -15.029  31.033  27.117  0.00  0.00    +0.020 A 
ATOM      2  C   UNL     1     -14.877  29.759  26.453  0.00  0.00    +0.013 A 
ATOM      3  C   UNL     1     -14.055  28.707  27.038  0.00  0.00    +0.019 A 
ATOM     38  C   UNL     1     -13.396  28.978  28.306  0.00  0.00    +0.120 A 
ATOM     39  N   UNL     1     -13.559  30.215  28.922  0.00  0.00    -0.263 NA
ATOM     40  C   UNL     1     -14.346  31.235  28.368  0.00  0.00    +0.111 A 
ENDBRANCH   4   3
ENDBRANCH  10   9
BRANCH  12  13
ATOM     13  N   UNL     1      -9.708  20.556  26.327  0.00  0.00    -0.281 N 
ATOM     14  C   UNL     1      -8.515  19.876  26.503  0.00  0.00    +0.248 C 
ATOM     30  O   UNL     1      -7.527  20.020  25.799  0.00  0.00    -0.270 OA
ATOM     31  H   UNL     1     -10.507  20.203  26.855  0.00  0.00    +0.155 HD
BRANCH  14  15
ATOM     15  C   UNL     1      -8.408  18.880  27.613  0.00  0.00    +0.037 A 
ATOM     16  C   UNL     1      -7.188  18.766  28.417  0.00  0.00    +0.013 A 
ATOM     17  C   UNL     1      -7.105  17.786  29.470  0.00  0.00    +0.005 A 
ATOM     18  C   UNL     1      -8.247  16.912  29.727  0.00  0.00    -0.033 A 
ATOM     28  C   UNL     1      -9.447  17.050  28.918  0.00  0.00    +0.005 A 
ATOM     29  C   UNL     1      -9.531  18.009  27.884  0.00  0.00    +0.013 A 
BRANCH  18  19
ATOM     19  C   UNL     1      -8.239  15.824  30.817  0.00  0.00    +0.119 C 
BRANCH  19  20
ATOM     20  N   UNL     1      -9.230  15.959  31.926  0.00  0.00    -0.302 NA
ATOM     21  C   UNL     1      -8.739  16.910  33.021  0.00  0.00    +0.066 C 
ATOM     22  C   UNL     1      -9.797  17.058  34.163  0.00  0.00    -0.064 C 
ATOM     23  N   UNL     1     -10.112  15.679  34.744  0.00  0.00    +0.379 N 
ATOM     24  C   UNL     1     -11.063  15.820  35.856  0.00  0.00    -0.096 C 
ATOM     25  H   UNL     1      -9.165  15.263  35.160  0.00  0.00    -0.082 HD
ATOM     26  C   UNL     1     -10.598  14.726  33.661  0.00  0.00    -0.064 C 
ATOM     27  C   UNL     1      -9.552  14.609  32.517  0.00  0.00    +0.066 C 
ENDBRANCH  19  20
ENDBRANCH  18  19
ENDBRANCH  14  15
ENDBRANCH  12  13
TORSDOF 6
ENDMDL
MODEL 2
REMARK VINA RESULT:      -8.2      3.848     12.329
REMARK  Name = C:\Users\Docking\Desktop\test protocol\1iep_ligandH.pdb
REMARK  8 active torsions:
REMARK  status: ('A' for Active; 'I' for Inactive)
REMARK    1  A    between atoms: _5  and  _11
REMARK    2  A    between atoms: _19  and  _21
REMARK    3  A    between atoms: _22  and  _66
REMARK    4  A    between atoms: _27  and  _30
REMARK    5  A    between atoms: _32  and  _33
REMARK    6  A    between atoms: _38  and  _43
REMARK    7  A    between atoms: _43  and  _46
REMARK    8  A    between atoms: _53  and  _55
REMARK                            x       y       z     vdW  Elec       q    Type
REMARK                         _______ _______ _______ _____ _____    ______ ____
ROOT
ATOM     10  C   UNL     1      -6.497  17.538  29.413  0.00  0.00    +0.038 A 
ATOM     11  C   UNL     1      -6.944  18.541  28.515  0.00  0.00    +0.047 A 
ATOM     12  C   UNL     1      -6.300  18.739  27.226  0.00  0.00    +0.035 A 
ATOM     32  C   UNL     1      -5.204  17.895  26.882  0.00  0.00    +0.024 A 
ATOM     33  C   UNL     1      -4.736  16.871  27.783  0.00  0.00    +0.007 A 
ATOM     34  C   UNL     1      -5.366  16.673  29.057  0.00  0.00    -0.029 A 
ATOM     35  C   UNL     1      -4.818  15.564  29.985  0.00  0.00    +0.045 C 
ENDROOT
BRANCH  10   9
ATOM      4  C   UNL     1      -9.843  15.533  32.210  0.00  0.00    +0.077 A 
ATOM      5  C   UNL     1     -10.345  14.728  31.134  0.00  0.00    +0.048 A 
ATOM      6  C   UNL     1      -9.719  14.865  29.874  0.00  0.00    +0.116 A 
ATOM      7  N   UNL     1      -8.670  15.745  29.715  0.00  0.00    -0.223 NA
ATOM      8  C   UNL     1      -8.211  16.507  30.773  0.00  0.00    +0.220 A 
ATOM      9  N   UNL     1      -7.153  17.392  30.637  0.00  0.00    -0.283 N 
ATOM     36  H   UNL     1      -6.849  17.942  31.441  0.00  0.00    +0.155 HD
ATOM     37  N   UNL     1      -8.793  16.396  31.985  0.00  0.00    -0.214 NA
BRANCH   4   3
ATOM      1  C   UNL     1     -11.287  14.282  35.623  0.00  0.00    +0.020 A 
ATOM      2  C   UNL     1     -10.756  14.260  34.279  0.00  0.00    +0.013 A 
ATOM      3  C   UNL     1     -10.397  15.498  33.600  0.00  0.00    +0.019 A 
ATOM     38  C   UNL     1     -10.588  16.752  34.314  0.00  0.00    +0.120 A 
ATOM     39  N   UNL     1     -11.103  16.742  35.607  0.00  0.00    -0.263 NA
ATOM     40  C   UNL     1     -11.454  15.556  36.270  0.00  0.00    +0.111 A 
ENDBRANCH   4   3
ENDBRANCH  10   9
BRANCH  12  13
ATOM     13  N   UNL     1      -6.705  19.747  26.278  0.00  0.00    -0.281 N 
ATOM     14  C   UNL     1      -7.974  19.982  25.774  0.00  0.00    +0.248 C 
ATOM     30  O   UNL     1      -8.920  19.219  25.902  0.00  0.00    -0.270 OA
ATOM     31  H   UNL     1      -5.966  20.362  25.936  0.00  0.00    +0.155 HD
BRANCH  14  15
ATOM     15  C   UNL     1      -8.224  21.238  25.004  0.00  0.00    +0.037 A 
ATOM     16  C   UNL     1      -7.314  21.672  23.941  0.00  0.00    +0.013 A 
ATOM     17  C   UNL     1      -7.570  22.897  23.226  0.00  0.00    +0.005 A 
ATOM     18  C   UNL     1      -8.743  23.697  23.571  0.00  0.00    -0.033 A 
ATOM     28  C   UNL     1      -9.631  23.240  24.627  0.00  0.00    +0.005 A 
ATOM     29  C   UNL     1      -9.383  22.041  25.331  0.00  0.00    +0.013 A 
BRANCH  18  19
ATOM     19  C   UNL     1      -9.082  25.028  22.875  0.00  0.00    +0.119 C 
BRANCH  19  20
ATOM     20  N   UNL     1     -10.220  25.024  21.908  0.00  0.00    -0.302 NA
ATOM     21  C   UNL     1      -9.811  25.569  20.537  0.00  0.00    +0.066 C 
ATOM     22  C   UNL     1     -11.007  25.536  19.531  0.00  0.00    -0.064 C 
ATOM     23  N   UNL     1     -12.175  26.339  20.106  0.00  0.00    +0.379 N 
ATOM     24  C   UNL     1     -13.281  26.358  19.138  0.00  0.00    -0.096 C 
ATOM     25  H   UNL     1     -11.828  27.389  20.245  0.00  0.00    -0.082 HD
ATOM     26  C   UNL     1     -12.587  25.805  21.471  0.00  0.00    -0.064 C 
ATOM     27  C   UNL     1     -11.383  25.815  22.454  0.00  0.00    +0.066 C 
ENDBRANCH  19  20
ENDBRANCH  18  19
ENDBRANCH  14  15
ENDBRANCH  12  13
TORSDOF 6
ENDMDL
MODEL 3
REMARK VINA RESULT:      -8.1      9.108     13.865
REMARK  Name = C:\Users\Docking\Desktop\test protocol\1iep_ligandH.pdb
REMARK  8 active torsions:
REMARK  status: ('A' for Active; 'I' for Inactive)
REMARK    1  A    between atoms: _5  and  _11
REMARK    2  A    between atoms: _19  and  _21
REMARK    3  A    between atoms: _22  and  _66
REMARK    4  A    between atoms: _27  and  _30
REMARK    5  A    between atoms: _32  and  _33
REMARK    6  A    between atoms: _38  and  _43
REMARK    7  A    between atoms: _43  and  _46
REMARK    8  A    between atoms: _53  and  _55
REMARK                            x       y       z     vdW  Elec       q    Type
REMARK                         _______ _______ _______ _____ _____    ______ ____
ROOT
ATOM     10  C   UNL     1      -5.591  15.953  30.908  0.00  0.00    +0.038 A 
ATOM     11  C   UNL     1      -6.529  15.611  31.915  0.00  0.00    +0.047 A 
ATOM     12  C   UNL     1      -7.754  16.375  32.092  0.00  0.00    +0.035 A 
ATOM     32  C   UNL     1      -7.993  17.480  31.224  0.00  0.00    +0.024 A 
ATOM     33  C   UNL     1      -7.049  17.842  30.196  0.00  0.00    +0.007 A 
ATOM     34  C   UNL     1      -5.838  17.093  30.017  0.00  0.00    -0.029 A 
ATOM     35  C   UNL     1      -4.860  17.530  28.903  0.00  0.00    +0.045 C 
ENDROOT
BRANCH  10   9
ATOM      4  C   UNL     1      -3.236  12.066  29.365  0.00  0.00    +0.077 A 
ATOM      5  C   UNL     1      -4.421  11.505  28.783  0.00  0.00    +0.048 A 
ATOM      6  C   UNL     1      -5.618  12.245  28.910  0.00  0.00    +0.116 A 
ATOM      7  N   UNL     1      -5.617  13.455  29.570  0.00  0.00    -0.223 NA
ATOM      8  C   UNL     1      -4.457  13.966  30.120  0.00  0.00    +0.220 A 
ATOM      9  N   UNL     1      -4.431  15.184  30.782  0.00  0.00    -0.283 N 
ATOM     36  H   UNL     1      -3.556  15.523  31.180  0.00  0.00    +0.155 HD
ATOM     37  N   UNL     1      -3.301  13.278  30.015  0.00  0.00    -0.214 NA
BRANCH   4   3
ATOM      1  C   UNL     1      -0.384   9.391  29.490  0.00  0.00    +0.020 A 
ATOM      2  C   UNL     1      -1.701   9.980  29.554  0.00  0.00    +0.013 A 
ATOM      3  C   UNL     1      -1.893  11.405  29.311  0.00  0.00    +0.019 A 
ATOM     38  C   UNL     1      -0.722  12.211  29.003  0.00  0.00    +0.120 A 
ATOM     39  N   UNL     1       0.535  11.617  28.950  0.00  0.00    -0.263 NA
ATOM     40  C   UNL     1       0.732  10.247  29.183  0.00  0.00    +0.111 A 
ENDBRANCH   4   3
ENDBRANCH  10   9
BRANCH  12  13
ATOM     13  N   UNL     1      -8.740  16.081  33.103  0.00  0.00    -0.281 N 
ATOM     14  C   UNL     1      -9.845  15.252  32.999  0.00  0.00    +0.248 C 
ATOM     30  O   UNL     1     -10.274  14.802  31.947  0.00  0.00    -0.270 OA
ATOM     31  H   UNL     1      -8.606  16.539  34.005  0.00  0.00    +0.155 HD
BRANCH  14  15
ATOM     15  C   UNL     1     -10.589  14.881  34.241  0.00  0.00    +0.037 A 
ATOM     16  C   UNL     1     -10.263  15.491  35.532  0.00  0.00    +0.013 A 
ATOM     17  C   UNL     1     -10.985  15.102  36.718  0.00  0.00    +0.005 A 
ATOM     18  C   UNL     1     -12.041  14.098  36.617  0.00  0.00    -0.033 A 
ATOM     28  C   UNL     1     -12.347  13.513  35.322  0.00  0.00    +0.005 A 
ATOM     29  C   UNL     1     -11.641  13.890  34.158  0.00  0.00    +0.013 A 
BRANCH  18  19
ATOM     19  C   UNL     1     -12.849  13.608  37.833  0.00  0.00    +0.119 C 
BRANCH  19  20
ATOM     20  N   UNL     1     -12.755  12.157  38.176  0.00  0.00    -0.302 NA
ATOM     21  C   UNL     1     -14.091  11.435  37.985  0.00  0.00    +0.066 C 
ATOM     22  C   UNL     1     -13.970   9.914  38.326  0.00  0.00    -0.064 C 
ATOM     23  N   UNL     1     -13.470   9.755  39.763  0.00  0.00    +0.379 N 
ATOM     24  C   UNL     1     -13.410   8.327  40.107  0.00  0.00    -0.096 C 
ATOM     25  H   UNL     1     -14.218  10.234  40.436  0.00  0.00    -0.082 HD
ATOM     26  C   UNL     1     -12.143  10.473  39.963  0.00  0.00    -0.064 C 
ATOM     27  C   UNL     1     -12.267  11.978  39.593  0.00  0.00    +0.066 C 
ENDBRANCH  19  20
ENDBRANCH  18  19
ENDBRANCH  14  15
ENDBRANCH  12  13
TORSDOF 6
ENDMDL
MODEL 4
REMARK VINA RESULT:      -8.1      2.166      3.098
REMARK  Name = C:\Users\Docking\Desktop\test protocol\1iep_ligandH.pdb
REMARK  8 active torsions:
REMARK  status: ('A' for Active; 'I' for Inactive)
REMARK    1  A    between atoms: _5  and  _11
REMARK    2  A    between atoms: _19  and  _21
REMARK    3  A    between atoms: _22  and  _66
REMARK    4  A    between atoms: _27  and  _30
REMARK    5  A    between atoms: _32  and  _33
REMARK    6  A    between atoms: _38  and  _43
REMARK    7  A    between atoms: _43  and  _46
REMARK    8  A    between atoms: _53  and  _55
REMARK                            x       y       z     vdW  Elec       q    Type
REMARK                         _______ _______ _______ _____ _____    ______ ____
ROOT
ATOM     10  C   UNL     1     -10.394  24.048  25.188  0.00  0.00    +0.038 A 
ATOM     11  C   UNL     1     -10.033  22.975  26.043  0.00  0.00    +0.047 A 
ATOM     12  C   UNL     1      -9.652  21.679  25.505  0.00  0.00    +0.035 A 
ATOM     32  C   UNL     1      -9.646  21.511  24.090  0.00  0.00    +0.024 A 
ATOM     33  C   UNL     1     -10.011  22.590  23.206  0.00  0.00    +0.007 A 
ATOM     34  C   UNL     1     -10.390  23.870  23.731  0.00  0.00    -0.029 A 
ATOM     35  C   UNL     1     -10.778  24.989  22.736  0.00  0.00    +0.045 C 
ENDROOT
BRANCH  10   9
ATOM      4  C   UNL     1     -13.657  27.315  26.496  0.00  0.00    +0.077 A 
ATOM      5  C   UNL     1     -14.739  26.531  25.974  0.00  0.00    +0.048 A 
ATOM      6  C   UNL     1     -14.412  25.296  25.370  0.00  0.00    +0.116 A 
ATOM      7  N   UNL     1     -13.098  24.886  25.300  0.00  0.00    -0.223 NA
ATOM      8  C   UNL     1     -12.079  25.667  25.812  0.00  0.00    +0.220 A 
ATOM      9  N   UNL     1     -10.752  25.271  25.759  0.00  0.00    -0.283 N 
ATOM     36  H   UNL     1     -10.028  25.880  26.142  0.00  0.00    +0.155 HD
ATOM     37  N   UNL     1     -12.365  26.852  26.392  0.00  0.00    -0.214 NA
BRANCH   4   3
ATOM      1  C   UNL     1     -13.034  30.929  27.859  0.00  0.00    +0.020 A 
ATOM      2  C   UNL     1     -12.804  29.664  27.199  0.00  0.00    +0.013 A 
ATOM      3  C   UNL     1     -13.842  28.641  27.166  0.00  0.00    +0.019 A 
ATOM     38  C   UNL     1     -15.111  28.932  27.816  0.00  0.00    +0.120 A 
ATOM     39  N   UNL     1     -15.303  30.158  28.446  0.00  0.00    -0.263 NA
ATOM     40  C   UNL     1     -14.312  31.149  28.484  0.00  0.00    +0.111 A 
ENDBRANCH   4   3
ENDBRANCH  10   9
BRANCH  12  13
ATOM     13  N   UNL     1      -9.284  20.551  26.324  0.00  0.00    -0.281 N 
ATOM     14  C   UNL     1      -8.062  19.900  26.378  0.00  0.00    +0.248 C 
ATOM     30  O   UNL     1      -7.160  20.055  25.568  0.00  0.00    -0.270 OA
ATOM     31  H   UNL     1     -10.012  20.189  26.940  0.00  0.00    +0.155 HD
BRANCH  14  15
ATOM     15  C   UNL     1      -7.812  18.924  27.481  0.00  0.00    +0.037 A 
ATOM     16  C   UNL     1      -8.903  18.135  28.060  0.00  0.00    +0.013 A 
ATOM     17  C   UNL     1      -8.637  17.213  29.136  0.00  0.00    +0.005 A 
ATOM     18  C   UNL     1      -7.272  17.074  29.639  0.00  0.00    -0.033 A 
ATOM     28  C   UNL     1      -6.208  17.864  29.043  0.00  0.00    +0.005 A 
ATOM     29  C   UNL     1      -6.465  18.770  27.989  0.00  0.00    +0.013 A 
BRANCH  18  19
ATOM     19  C   UNL     1      -6.900  16.130  30.798  0.00  0.00    +0.119 C 
BRANCH  19  20
ATOM     20  N   UNL     1      -6.068  14.935  30.466  0.00  0.00    -0.302 NA
ATOM     21  C   UNL     1      -6.726  14.055  29.399  0.00  0.00    +0.066 C 
ATOM     22  C   UNL     1      -5.832  12.822  29.047  0.00  0.00    -0.064 C 
ATOM     23  N   UNL     1      -5.556  12.017  30.319  0.00  0.00    +0.379 N 
ATOM     24  C   UNL     1      -4.764  10.825  29.982  0.00  0.00    -0.096 C 
ATOM     25  H   UNL     1      -6.537  11.669  30.718  0.00  0.00    -0.082 HD
ATOM     26  C   UNL     1      -4.905  12.884  31.386  0.00  0.00    -0.064 C 
ATOM     27  C   UNL     1      -5.788  14.123  31.706  0.00  0.00    +0.066 C 
ENDBRANCH  19  20
ENDBRANCH  18  19
ENDBRANCH  14  15
ENDBRANCH  12  13
TORSDOF 6
ENDMDL
MODEL 5
REMARK VINA RESULT:      -7.9      4.104      8.309
REMARK  Name = C:\Users\Docking\Desktop\test protocol\1iep_ligandH.pdb
REMARK  8 active torsions:
REMARK  status: ('A' for Active; 'I' for Inactive)
REMARK    1  A    between atoms: _5  and  _11
REMARK    2  A    between atoms: _19  and  _21
REMARK    3  A    between atoms: _22  and  _66
REMARK    4  A    between atoms: _27  and  _30
REMARK    5  A    between atoms: _32  and  _33
REMARK    6  A    between atoms: _38  and  _43
REMARK    7  A    between atoms: _43  and  _46
REMARK    8  A    between atoms: _53  and  _55
REMARK                            x       y       z     vdW  Elec       q    Type
REMARK                         _______ _______ _______ _____ _____    ______ ____
ROOT
ATOM     10  C   UNL     1      -6.851  17.878  29.231  0.00  0.00    +0.038 A 
ATOM     11  C   UNL     1      -7.602  17.479  30.366  0.00  0.00    +0.047 A 
ATOM     12  C   UNL     1      -7.292  16.250  31.078  0.00  0.00    +0.035 A 
ATOM     32  C   UNL     1      -6.208  15.452  30.609  0.00  0.00    +0.024 A 
ATOM     33  C   UNL     1      -5.435  15.842  29.456  0.00  0.00    +0.007 A 
ATOM     34  C   UNL     1      -5.738  17.053  28.748  0.00  0.00    -0.029 A 
ATOM     35  C   UNL     1      -4.879  17.418  27.515  0.00  0.00    +0.045 C 
ENDROOT
BRANCH  10   9
ATOM      4  C   UNL     1      -9.298  20.346  25.920  0.00  0.00    +0.077 A 
ATOM      5  C   UNL     1      -9.930  19.160  25.418  0.00  0.00    +0.048 A 
ATOM      6  C   UNL     1      -9.593  17.934  26.034  0.00  0.00    +0.116 A 
ATOM      7  N   UNL     1      -8.690  17.908  27.075  0.00  0.00    -0.223 NA
ATOM      8  C   UNL     1      -8.097  19.070  27.534  0.00  0.00    +0.220 A 
ATOM      9  N   UNL     1      -7.192  19.069  28.584  0.00  0.00    -0.283 N 
ATOM     36  H   UNL     1      -6.771  19.946  28.889  0.00  0.00    +0.155 HD
ATOM     37  N   UNL     1      -8.401  20.253  26.961  0.00  0.00    -0.214 NA
BRANCH   4   3
ATOM      1  C   UNL     1     -10.053  24.174  25.648  0.00  0.00    +0.020 A 
ATOM      2  C   UNL     1      -9.813  22.872  26.225  0.00  0.00    +0.013 A 
ATOM      3  C   UNL     1      -9.554  21.717  25.375  0.00  0.00    +0.019 A 
ATOM     38  C   UNL     1      -9.544  21.915  23.934  0.00  0.00    +0.120 A 
ATOM     39  N   UNL     1      -9.781  23.181  23.406  0.00  0.00    -0.263 NA
ATOM     40  C   UNL     1     -10.033  24.300  24.215  0.00  0.00    +0.111 A 
ENDBRANCH   4   3
ENDBRANCH  10   9
BRANCH  12  13
ATOM     13  N   UNL     1      -8.024  15.789  32.232  0.00  0.00    -0.281 N 
ATOM     14  C   UNL     1      -8.839  16.528  33.074  0.00  0.00    +0.248 C 
ATOM     30  O   UNL     1      -8.892  17.749  33.089  0.00  0.00    -0.270 OA
ATOM     31  H   UNL     1      -7.931  14.798  32.454  0.00  0.00    +0.155 HD
BRANCH  14  15
ATOM     15  C   UNL     1      -9.710  15.807  34.052  0.00  0.00    +0.037 A 
ATOM     16  C   UNL     1     -10.464  14.613  33.661  0.00  0.00    +0.013 A 
ATOM     17  C   UNL     1     -11.310  13.947  34.619  0.00  0.00    +0.005 A 
ATOM     18  C   UNL     1     -11.405  14.472  35.979  0.00  0.00    -0.033 A 
ATOM     28  C   UNL     1     -10.641  15.655  36.341  0.00  0.00    +0.005 A 
ATOM     29  C   UNL     1      -9.812  16.312  35.405  0.00  0.00    +0.013 A 
BRANCH  18  19
ATOM     19  C   UNL     1     -12.299  13.838  37.061  0.00  0.00    +0.119 C 
BRANCH  19  20
ATOM     20  N   UNL     1     -12.562  12.372  36.957  0.00  0.00    -0.302 NA
ATOM     21  C   UNL     1     -14.058  12.051  37.009  0.00  0.00    +0.066 C 
ATOM     22  C   UNL     1     -14.316  10.514  36.877  0.00  0.00    -0.064 C 
ATOM     23  N   UNL     1     -13.565   9.777  37.987  0.00  0.00    +0.379 N 
ATOM     24  C   UNL     1     -13.852   8.337  37.900  0.00  0.00    -0.096 C 
ATOM     25  H   UNL     1     -13.960  10.142  38.963  0.00  0.00    -0.082 HD
ATOM     26  C   UNL     1     -12.076  10.092  37.944  0.00  0.00    -0.064 C 
ATOM     27  C   UNL     1     -11.833  11.624  38.046  0.00  0.00    +0.066 C 
ENDBRANCH  19  20
ENDBRANCH  18  19
ENDBRANCH  14  15
ENDBRANCH  12  13
TORSDOF 6
ENDMDL
