MODEL 1
REMARK VINA RESULT:      -7.2      0.000      0.000
REMARK  Name = C:\Users\Docking\Desktop\test protocol\1iep_ligandH.pdb
REMARK  8 active torsions:
REMARK  status: ('A' for Active; 'I' for Inactive)
REMARK    1  A    between atoms: _5  and  _11
REMARK    2  A    between atoms: _19  and  _21
REMARK    3  A    between atoms: _22  and  _66
REMARK    4  A    between atoms: _27  and  _30
REMARK    5  A    between atoms: _32  and  _33
REMARK    6  A    between atoms: _38  and  _43
REMARK    7  A    between atoms: _43  and  _46
REMARK    8  A    between atoms: _53  and  _55
REMARK                            x       y       z     vdW  Elec       q    Type
REMARK                         _______ _______ _______ _____ _____    ______ ____
ROOT
ATOM     10  C   UNL     1      15.255  -0.760  27.840  0.00  0.00    +0.038 A 
ATOM     11  C   UNL     1      14.848  -1.736  28.786  0.00  0.00    +0.047 A 
ATOM     12  C   UNL     1      14.793  -1.429  30.207  0.00  0.00    +0.035 A 
ATOM     32  C   UNL     1      15.156  -0.118  30.630  0.00  0.00    +0.024 A 
ATOM     33  C   UNL     1      15.573   0.886  29.682  0.00  0.00    +0.007 A 
ATOM     34  C   UNL     1      15.633   0.589  28.280  0.00  0.00    -0.029 A 
ATOM     35  C   UNL     1      16.094   1.701  27.310  0.00  0.00    +0.045 C 
ENDROOT
BRANCH  10   9
ATOM      4  C   UNL     1      17.505  -2.506  23.976  0.00  0.00    +0.077 A 
ATOM      5  C   UNL     1      18.721  -2.716  24.706  0.00  0.00    +0.048 A 
ATOM      6  C   UNL     1      18.729  -2.355  26.072  0.00  0.00    +0.116 A 
ATOM      7  N   UNL     1      17.598  -1.825  26.655  0.00  0.00    -0.223 NA
ATOM      8  C   UNL     1      16.442  -1.633  25.921  0.00  0.00    +0.220 A 
ATOM      9  N   UNL     1      15.290  -1.109  26.488  0.00  0.00    -0.283 N 
ATOM     36  H   UNL     1      14.460  -0.976  25.912  0.00  0.00    +0.155 HD
ATOM     37  N   UNL     1      16.409  -1.968  24.615  0.00  0.00    -0.214 NA
BRANCH   4   3
ATOM      1  C   UNL     1      16.439  -4.264  20.649  0.00  0.00    +0.020 A 
ATOM      2  C   UNL     1      16.568  -3.986  22.060  0.00  0.00    +0.013 A 
ATOM      3  C   UNL     1      17.339  -2.840  22.526  0.00  0.00    +0.019 A 
ATOM     38  C   UNL     1      17.970  -1.988  21.530  0.00  0.00    +0.120 A 
ATOM     39  N   UNL     1      17.829  -2.281  20.177  0.00  0.00    -0.263 NA
ATOM     40  C   UNL     1      17.091  -3.382  19.717  0.00  0.00    +0.111 A 
ENDBRANCH   4   3
ENDBRANCH  10   9
BRANCH  12  13
ATOM     13  N   UNL     1      14.395  -2.381  31.214  0.00  0.00    -0.281 N 
ATOM     14  C   UNL     1      13.454  -2.217  32.217  0.00  0.00    +0.248 C 
ATOM     30  O   UNL     1      12.962  -1.144  32.534  0.00  0.00    -0.270 OA
ATOM     31  H   UNL     1      14.864  -3.287  31.183  0.00  0.00    +0.155 HD
BRANCH  14  15
ATOM     15  C   UNL     1      13.005  -3.415  32.990  0.00  0.00    +0.037 A 
ATOM     16  C   UNL     1      13.783  -4.656  32.987  0.00  0.00    +0.013 A 
ATOM     17  C   UNL     1      13.318  -5.803  33.727  0.00  0.00    +0.005 A 
ATOM     18  C   UNL     1      12.069  -5.711  34.479  0.00  0.00    -0.033 A 
ATOM     28  C   UNL     1      11.321  -4.465  34.470  0.00  0.00    +0.005 A 
ATOM     29  C   UNL     1      11.772  -3.340  33.745  0.00  0.00    +0.013 A 
BRANCH  18  19
ATOM     19  C   UNL     1      11.488  -6.891  35.281  0.00  0.00    +0.119 C 
BRANCH  19  20
ATOM     20  N   UNL     1      10.062  -7.255  35.024  0.00  0.00    -0.302 NA
ATOM     21  C   UNL     1       9.262  -7.396  36.322  0.00  0.00    +0.066 C 
ATOM     22  C   UNL     1       7.768  -7.755  36.033  0.00  0.00    -0.064 C 
ATOM     23  N   UNL     1       7.705  -9.046  35.216  0.00  0.00    +0.379 N 
ATOM     24  C   UNL     1       6.301  -9.418  34.993  0.00  0.00    -0.096 C 
ATOM     25  H   UNL     1       8.177  -9.854  35.823  0.00  0.00    -0.082 HD
ATOM     26  C   UNL     1       8.501  -8.916  33.925  0.00  0.00    -0.064 C 
ATOM     27  C   UNL     1       9.977  -8.530  34.221  0.00  0.00    +0.066 C 
ENDBRANCH  19  20
ENDBRANCH  18  19
ENDBRANCH  14  15
ENDBRANCH  12  13
TORSDOF 6
ENDMDL
MODEL 2
REMARK VINA RESULT:      -7.0      2.226      3.159
REMARK  Name = C:\Users\Docking\Desktop\test protocol\1iep_ligandH.pdb
REMARK  8 active torsions:
REMARK  status: ('A' for Active; 'I' for Inactive)
REMARK    1  A    between atoms: _5  and  _11
REMARK    2  A    between atoms: _19  and  _21
REMARK    3  A    between atoms: _22  and  _66
REMARK    4  A    between atoms: _27  and  _30
REMARK    5  A    between atoms: _32  and  _33
REMARK    6  A    between atoms: _38  and  _43
REMARK    7  A    between atoms: _43  and  _46
REMARK    8  A    between atoms: _53  and  _55
REMARK                            x       y       z     vdW  Elec       q    Type
REMARK                         _______ _______ _______ _____ _____    ______ ____
ROOT
ATOM     10  C   UNL     1      15.164  -1.899  29.638  0.00  0.00    +0.038 A 
ATOM     11  C   UNL     1      14.390  -2.860  30.338  0.00  0.00    +0.047 A 
ATOM     12  C   UNL     1      13.736  -2.529  31.594  0.00  0.00    +0.035 A 
ATOM     32  C   UNL     1      13.888  -1.208  32.107  0.00  0.00    +0.024 A 
ATOM     33  C   UNL     1      14.671  -0.219  31.409  0.00  0.00    +0.007 A 
ATOM     34  C   UNL     1      15.321  -0.541  30.171  0.00  0.00    -0.029 A 
ATOM     35  C   UNL     1      16.154   0.558  29.470  0.00  0.00    +0.045 C 
ENDROOT
BRANCH  10   9
ATOM      4  C   UNL     1      18.745  -3.900  27.146  0.00  0.00    +0.077 A 
ATOM      5  C   UNL     1      19.482  -4.206  28.337  0.00  0.00    +0.048 A 
ATOM      6  C   UNL     1      18.908  -3.825  29.571  0.00  0.00    +0.116 A 
ATOM      7  N   UNL     1      17.687  -3.187  29.599  0.00  0.00    -0.223 NA
ATOM      8  C   UNL     1      17.003  -2.905  28.431  0.00  0.00    +0.220 A 
ATOM      9  N   UNL     1      15.770  -2.271  28.436  0.00  0.00    -0.283 N 
ATOM     36  H   UNL     1      15.301  -2.074  27.552  0.00  0.00    +0.155 HD
ATOM     37  N   UNL     1      17.531  -3.257  27.240  0.00  0.00    -0.214 NA
BRANCH   4   3
ATOM      1  C   UNL     1      20.459  -5.701  24.126  0.00  0.00    +0.020 A 
ATOM      2  C   UNL     1      20.029  -5.417  25.476  0.00  0.00    +0.013 A 
ATOM      3  C   UNL     1      19.218  -4.241  25.767  0.00  0.00    +0.019 A 
ATOM     38  C   UNL     1      18.855  -3.368  24.661  0.00  0.00    +0.120 A 
ATOM     39  N   UNL     1      19.285  -3.667  23.372  0.00  0.00    -0.263 NA
ATOM     40  C   UNL     1      20.068  -4.794  23.080  0.00  0.00    +0.111 A 
ENDBRANCH   4   3
ENDBRANCH  10   9
BRANCH  12  13
ATOM     13  N   UNL     1      12.944  -3.465  32.353  0.00  0.00    -0.281 N 
ATOM     14  C   UNL     1      13.338  -4.228  33.440  0.00  0.00    +0.248 C 
ATOM     30  O   UNL     1      14.498  -4.381  33.793  0.00  0.00    -0.270 OA
ATOM     31  H   UNL     1      11.976  -3.579  32.052  0.00  0.00    +0.155 HD
BRANCH  14  15
ATOM     15  C   UNL     1      12.294  -4.936  34.241  0.00  0.00    +0.037 A 
ATOM     16  C   UNL     1      12.340  -6.388  34.436  0.00  0.00    +0.013 A 
ATOM     17  C   UNL     1      11.311  -7.048  35.200  0.00  0.00    +0.005 A 
ATOM     18  C   UNL     1      10.227  -6.255  35.776  0.00  0.00    -0.033 A 
ATOM     28  C   UNL     1      10.209  -4.817  35.571  0.00  0.00    +0.005 A 
ATOM     29  C   UNL     1      11.215  -4.166  34.823  0.00  0.00    +0.013 A 
BRANCH  18  19
ATOM     19  C   UNL     1       9.075  -6.878  36.587  0.00  0.00    +0.119 C 
BRANCH  19  20
ATOM     20  N   UNL     1       7.821  -7.212  35.848  0.00  0.00    -0.302 NA
ATOM     21  C   UNL     1       8.104  -7.676  34.416  0.00  0.00    +0.066 C 
ATOM     22  C   UNL     1       6.783  -8.043  33.665  0.00  0.00    -0.064 C 
ATOM     23  N   UNL     1       5.846  -6.834  33.668  0.00  0.00    +0.379 N 
ATOM     24  C   UNL     1       4.626  -7.157  32.912  0.00  0.00    -0.096 C 
ATOM     25  H   UNL     1       6.364  -6.003  33.135  0.00  0.00    -0.082 HD
ATOM     26  C   UNL     1       5.561  -6.365  35.088  0.00  0.00    -0.064 C 
ATOM     27  C   UNL     1       6.883  -6.031  35.835  0.00  0.00    +0.066 C 
ENDBRANCH  19  20
ENDBRANCH  18  19
ENDBRANCH  14  15
ENDBRANCH  12  13
TORSDOF 6
ENDMDL
MODEL 3
REMARK VINA RESULT:      -6.9      2.229     12.444
REMARK  Name = C:\Users\Docking\Desktop\test protocol\1iep_ligandH.pdb
REMARK  8 active torsions:
REMARK  status: ('A' for Active; 'I' for Inactive)
REMARK    1  A    between atoms: _5  and  _11
REMARK    2  A    between atoms: _19  and  _21
REMARK    3  A    between atoms: _22  and  _66
REMARK    4  A    between atoms: _27  and  _30
REMARK    5  A    between atoms: _32  and  _33
REMARK    6  A    between atoms: _38  and  _43
REMARK    7  A    between atoms: _43  and  _46
REMARK    8  A    between atoms: _53  and  _55
REMARK                            x       y       z     vdW  Elec       q    Type
REMARK                         _______ _______ _______ _____ _____    ______ ____
ROOT
ATOM     10  C   UNL     1      13.417  -2.671  31.818  0.00  0.00    +0.038 A 
ATOM     11  C   UNL     1      14.182  -3.006  30.672  0.00  0.00    +0.047 A 
ATOM     12  C   UNL     1      15.038  -2.025  30.024  0.00  0.00    +0.035 A 
ATOM     32  C   UNL     1      15.095  -0.711  30.574  0.00  0.00    +0.024 A 
ATOM     33  C   UNL     1      14.324  -0.352  31.738  0.00  0.00    +0.007 A 
ATOM     34  C   UNL     1      13.475  -1.315  32.379  0.00  0.00    -0.029 A 
ATOM     35  C   UNL     1      12.666  -0.873  33.620  0.00  0.00    +0.045 C 
ENDROOT
BRANCH  10   9
ATOM      4  C   UNL     1      12.642  -6.159  35.023  0.00  0.00    +0.077 A 
ATOM      5  C   UNL     1      13.963  -6.033  35.568  0.00  0.00    +0.048 A 
ATOM      6  C   UNL     1      14.813  -5.063  34.990  0.00  0.00    +0.116 A 
ATOM      7  N   UNL     1      14.365  -4.283  33.947  0.00  0.00    -0.223 NA
ATOM      8  C   UNL     1      13.086  -4.431  33.443  0.00  0.00    +0.220 A 
ATOM      9  N   UNL     1      12.612  -3.652  32.399  0.00  0.00    -0.283 N 
ATOM     36  H   UNL     1      11.664  -3.798  32.052  0.00  0.00    +0.155 HD
ATOM     37  N   UNL     1      12.255  -5.351  33.977  0.00  0.00    -0.214 NA
BRANCH   4   3
ATOM      1  C   UNL     1       9.698  -8.729  35.196  0.00  0.00    +0.020 A 
ATOM      2  C   UNL     1      10.659  -7.794  34.658  0.00  0.00    +0.013 A 
ATOM      3  C   UNL     1      11.625  -7.135  35.528  0.00  0.00    +0.019 A 
ATOM     38  C   UNL     1      11.594  -7.449  36.948  0.00  0.00    +0.120 A 
ATOM     39  N   UNL     1      10.657  -8.353  37.439  0.00  0.00    -0.263 NA
ATOM     40  C   UNL     1       9.720  -8.991  36.611  0.00  0.00    +0.111 A 
ENDBRANCH   4   3
ENDBRANCH  10   9
BRANCH  12  13
ATOM     13  N   UNL     1      15.831  -2.306  28.853  0.00  0.00    -0.281 N 
ATOM     14  C   UNL     1      17.070  -2.923  28.791  0.00  0.00    +0.248 C 
ATOM     30  O   UNL     1      17.785  -3.137  29.759  0.00  0.00    -0.270 OA
ATOM     31  H   UNL     1      15.431  -2.014  27.962  0.00  0.00    +0.155 HD
BRANCH  14  15
ATOM     15  C   UNL     1      17.597  -3.351  27.460  0.00  0.00    +0.037 A 
ATOM     16  C   UNL     1      18.436  -4.545  27.323  0.00  0.00    +0.013 A 
ATOM     17  C   UNL     1      18.945  -4.926  26.030  0.00  0.00    +0.005 A 
ATOM     18  C   UNL     1      18.616  -4.113  24.862  0.00  0.00    -0.033 A 
ATOM     28  C   UNL     1      17.778  -2.937  25.025  0.00  0.00    +0.005 A 
ATOM     29  C   UNL     1      17.277  -2.559  26.291  0.00  0.00    +0.013 A 
BRANCH  18  19
ATOM     19  C   UNL     1      19.133  -4.433  23.447  0.00  0.00    +0.119 C 
BRANCH  19  20
ATOM     20  N   UNL     1      18.421  -3.798  22.298  0.00  0.00    -0.302 NA
ATOM     21  C   UNL     1      17.345  -4.716  21.711  0.00  0.00    +0.066 C 
ATOM     22  C   UNL     1      16.594  -4.027  20.525  0.00  0.00    -0.064 C 
ATOM     23  N   UNL     1      17.606  -3.622  19.452  0.00  0.00    +0.379 N 
ATOM     24  C   UNL     1      16.897  -3.026  18.310  0.00  0.00    -0.096 C 
ATOM     25  H   UNL     1      18.107  -4.550  19.092  0.00  0.00    -0.082 HD
ATOM     26  C   UNL     1      18.680  -2.711  20.028  0.00  0.00    -0.064 C 
ATOM     27  C   UNL     1      19.400  -3.393  21.224  0.00  0.00    +0.066 C 
ENDBRANCH  19  20
ENDBRANCH  18  19
ENDBRANCH  14  15
ENDBRANCH  12  13
TORSDOF 6
ENDMDL
MODEL 4
REMARK VINA RESULT:      -6.9      6.369     15.211
REMARK  Name = C:\Users\Docking\Desktop\test protocol\1iep_ligandH.pdb
REMARK  8 active torsions:
REMARK  status: ('A' for Active; 'I' for Inactive)
REMARK    1  A    between atoms: _5  and  _11
REMARK    2  A    between atoms: _19  and  _21
REMARK    3  A    between atoms: _22  and  _66
REMARK    4  A    between atoms: _27  and  _30
REMARK    5  A    between atoms: _32  and  _33
REMARK    6  A    between atoms: _38  and  _43
REMARK    7  A    between atoms: _43  and  _46
REMARK    8  A    between atoms: _53  and  _55
REMARK                            x       y       z     vdW  Elec       q    Type
REMARK                         _______ _______ _______ _____ _____    ______ ____
ROOT
ATOM     10  C   UNL     1      17.181  -1.680  25.806  0.00  0.00    +0.038 A 
ATOM     11  C   UNL     1      17.048  -0.387  25.238  0.00  0.00    +0.047 A 
ATOM     12  C   UNL     1      17.959   0.078  24.204  0.00  0.00    +0.035 A 
ATOM     32  C   UNL     1      18.993  -0.801  23.769  0.00  0.00    +0.024 A 
ATOM     33  C   UNL     1      19.144  -2.118  24.336  0.00  0.00    +0.007 A 
ATOM     34  C   UNL     1      18.250  -2.582  25.358  0.00  0.00    -0.029 A 
ATOM     35  C   UNL     1      18.463  -4.001  25.935  0.00  0.00    +0.045 C 
ENDROOT
BRANCH  10   9
ATOM      4  C   UNL     1      15.397  -1.421  30.254  0.00  0.00    +0.077 A 
ATOM      5  C   UNL     1      16.361  -0.433  30.647  0.00  0.00    +0.048 A 
ATOM      6  C   UNL     1      17.303  -0.024  29.676  0.00  0.00    +0.116 A 
ATOM      7  N   UNL     1      17.274  -0.569  28.411  0.00  0.00    -0.223 NA
ATOM      8  C   UNL     1      16.332  -1.520  28.065  0.00  0.00    +0.220 A 
ATOM      9  N   UNL     1      16.279  -2.076  26.796  0.00  0.00    -0.283 N 
ATOM     36  H   UNL     1      15.574  -2.780  26.583  0.00  0.00    +0.155 HD
ATOM     37  N   UNL     1      15.422  -1.929  28.974  0.00  0.00    -0.214 NA
BRANCH   4   3
ATOM      1  C   UNL     1      12.786  -3.772  31.972  0.00  0.00    +0.020 A 
ATOM      2  C   UNL     1      13.811  -3.308  31.066  0.00  0.00    +0.013 A 
ATOM      3  C   UNL     1      14.335  -1.952  31.166  0.00  0.00    +0.019 A 
ATOM     38  C   UNL     1      13.796  -1.083  32.201  0.00  0.00    +0.120 A 
ATOM     39  N   UNL     1      12.807  -1.557  33.059  0.00  0.00    -0.263 NA
ATOM     40  C   UNL     1      12.295  -2.860  32.971  0.00  0.00    +0.111 A 
ENDBRANCH   4   3
ENDBRANCH  10   9
BRANCH  12  13
ATOM     13  N   UNL     1      17.877   1.383  23.596  0.00  0.00    -0.281 N 
ATOM     14  C   UNL     1      18.432   2.569  24.048  0.00  0.00    +0.248 C 
ATOM     30  O   UNL     1      18.907   2.729  25.163  0.00  0.00    -0.270 OA
ATOM     31  H   UNL     1      17.345   1.439  22.727  0.00  0.00    +0.155 HD
BRANCH  14  15
ATOM     15  C   UNL     1      18.450   3.752  23.135  0.00  0.00    +0.037 A 
ATOM     16  C   UNL     1      18.618   5.111  23.656  0.00  0.00    +0.013 A 
ATOM     17  C   UNL     1      18.614   6.237  22.755  0.00  0.00    +0.005 A 
ATOM     18  C   UNL     1      18.442   6.006  21.322  0.00  0.00    -0.033 A 
ATOM     28  C   UNL     1      18.282   4.647  20.832  0.00  0.00    +0.005 A 
ATOM     29  C   UNL     1      18.284   3.542  21.713  0.00  0.00    +0.013 A 
BRANCH  18  19
ATOM     19  C   UNL     1      18.404   7.149  20.290  0.00  0.00    +0.119 C 
BRANCH  19  20
ATOM     20  N   UNL     1      19.606   8.032  20.203  0.00  0.00    -0.302 NA
ATOM     21  C   UNL     1      19.405   9.351  20.953  0.00  0.00    +0.066 C 
ATOM     22  C   UNL     1      20.680  10.253  20.870  0.00  0.00    -0.064 C 
ATOM     23  N   UNL     1      21.023  10.511  19.402  0.00  0.00    +0.379 N 
ATOM     24  C   UNL     1      22.187  11.406  19.321  0.00  0.00    -0.096 C 
ATOM     25  H   UNL     1      20.157  11.040  18.940  0.00  0.00    -0.082 HD
ATOM     26  C   UNL     1      21.222   9.204  18.648  0.00  0.00    -0.064 C 
ATOM     27  C   UNL     1      19.960   8.303  18.761  0.00  0.00    +0.066 C 
ENDBRANCH  19  20
ENDBRANCH  18  19
ENDBRANCH  14  15
ENDBRANCH  12  13
TORSDOF 6
ENDMDL
MODEL 5
REMARK VINA RESULT:      -6.9      6.141     15.024
REMARK  Name = C:\Users\Docking\Desktop\test protocol\1iep_ligandH.pdb
REMARK  8 active torsions:
REMARK  status: ('A' for Active; 'I' for Inactive)
REMARK    1  A    between atoms: _5  and  _11
REMARK    2  A    between atoms: _19  and  _21
REMARK    3  A    between atoms: _22  and  _66
REMARK    4  A    between atoms: _27  and  _30
REMARK    5  A    between atoms: _32  and  _33
REMARK    6  A    between atoms: _38  and  _43
REMARK    7  A    between atoms: _43  and  _46
REMARK    8  A    between atoms: _53  and  _55
REMARK                            x       y       z     vdW  Elec       q    Type
REMARK                         _______ _______ _______ _____ _____    ______ ____
ROOT
ATOM     10  C   UNL     1      16.891  -1.497  25.792  0.00  0.00    +0.038 A 
ATOM     11  C   UNL     1      16.904  -0.156  25.330  0.00  0.00    +0.047 A 
ATOM     12  C   UNL     1      17.839   0.278  24.303  0.00  0.00    +0.035 A 
ATOM     32  C   UNL     1      18.745  -0.682  23.766  0.00  0.00    +0.024 A 
ATOM     33  C   UNL     1      18.747  -2.049  24.224  0.00  0.00    +0.007 A 
ATOM     34  C   UNL     1      17.829  -2.482  25.239  0.00  0.00    -0.029 A 
ATOM     35  C   UNL     1      17.879  -3.958  25.696  0.00  0.00    +0.045 C 
ENDROOT
BRANCH  10   9
ATOM      4  C   UNL     1      15.404  -1.603  30.354  0.00  0.00    +0.077 A 
ATOM      5  C   UNL     1      16.569  -0.903  30.812  0.00  0.00    +0.048 A 
ATOM      6  C   UNL     1      17.530  -0.539  29.843  0.00  0.00    +0.116 A 
ATOM      7  N   UNL     1      17.331  -0.857  28.517  0.00  0.00    -0.223 NA
ATOM      8  C   UNL     1      16.197  -1.535  28.109  0.00  0.00    +0.220 A 
ATOM      9  N   UNL     1      15.973  -1.858  26.779  0.00  0.00    -0.283 N 
ATOM     36  H   UNL     1      15.127  -2.366  26.520  0.00  0.00    +0.155 HD
ATOM     37  N   UNL     1      15.265  -1.895  29.015  0.00  0.00    -0.214 NA
BRANCH   4   3
ATOM      1  C   UNL     1      12.662  -1.686  33.143  0.00  0.00    +0.020 A 
ATOM      2  C   UNL     1      13.731  -1.204  32.298  0.00  0.00    +0.013 A 
ATOM      3  C   UNL     1      14.297  -2.052  31.256  0.00  0.00    +0.019 A 
ATOM     38  C   UNL     1      13.755  -3.393  31.094  0.00  0.00    +0.120 A 
ATOM     39  N   UNL     1      12.726  -3.830  31.923  0.00  0.00    -0.263 NA
ATOM     40  C   UNL     1      12.175  -3.023  32.930  0.00  0.00    +0.111 A 
ENDBRANCH   4   3
ENDBRANCH  10   9
BRANCH  12  13
ATOM     13  N   UNL     1      17.904   1.628  23.801  0.00  0.00    -0.281 N 
ATOM     14  C   UNL     1      18.223   2.782  24.499  0.00  0.00    +0.248 C 
ATOM     30  O   UNL     1      18.295   2.856  25.716  0.00  0.00    -0.270 OA
ATOM     31  H   UNL     1      17.687   1.748  22.812  0.00  0.00    +0.155 HD
BRANCH  14  15
ATOM     15  C   UNL     1      18.488   4.038  23.733  0.00  0.00    +0.037 A 
ATOM     16  C   UNL     1      18.360   4.081  22.275  0.00  0.00    +0.013 A 
ATOM     17  C   UNL     1      18.638   5.301  21.559  0.00  0.00    +0.005 A 
ATOM     18  C   UNL     1      19.045   6.490  22.304  0.00  0.00    -0.033 A 
ATOM     28  C   UNL     1      19.159   6.422  23.751  0.00  0.00    +0.005 A 
ATOM     29  C   UNL     1      18.888   5.227  24.455  0.00  0.00    +0.013 A 
BRANCH  18  19
ATOM     19  C   UNL     1      19.382   7.829  21.621  0.00  0.00    +0.119 C 
BRANCH  19  20
ATOM     20  N   UNL     1      19.187   7.911  20.143  0.00  0.00    -0.302 NA
ATOM     21  C   UNL     1      20.485   8.266  19.412  0.00  0.00    +0.066 C 
ATOM     22  C   UNL     1      20.268   8.326  17.864  0.00  0.00    -0.064 C 
ATOM     23  N   UNL     1      19.171   9.342  17.544  0.00  0.00    +0.379 N 
ATOM     24  C   UNL     1      19.005   9.442  16.087  0.00  0.00    -0.096 C 
ATOM     25  H   UNL     1      19.512  10.336  17.915  0.00  0.00    -0.082 HD
ATOM     26  C   UNL     1      17.878   8.998  18.270  0.00  0.00    -0.064 C 
ATOM     27  C   UNL     1      18.110   8.913  19.804  0.00  0.00    +0.066 C 
ENDBRANCH  19  20
ENDBRANCH  18  19
ENDBRANCH  14  15
ENDBRANCH  12  13
TORSDOF 6
ENDMDL
