MODEL 1
REMARK VINA RESULT:      -7.3      0.000      0.000
REMARK  Name = C:\Users\Docking\Desktop\test protocol\1iep_ligandH.pdb
REMARK  8 active torsions:
REMARK  status: ('A' for Active; 'I' for Inactive)
REMARK    1  A    between atoms: _5  and  _11
REMARK    2  A    between atoms: _19  and  _21
REMARK    3  A    between atoms: _22  and  _66
REMARK    4  A    between atoms: _27  and  _30
REMARK    5  A    between atoms: _32  and  _33
REMARK    6  A    between atoms: _38  and  _43
REMARK    7  A    between atoms: _43  and  _46
REMARK    8  A    between atoms: _53  and  _55
REMARK                            x       y       z     vdW  Elec       q    Type
REMARK                         _______ _______ _______ _____ _____    ______ ____
ROOT
ATOM     10  C   UNL     1     -37.498  71.745 -11.732  0.00  0.00    +0.038 A 
ATOM     11  C   UNL     1     -38.295  72.779 -11.180  0.00  0.00    +0.047 A 
ATOM     12  C   UNL     1     -39.478  73.268 -11.871  0.00  0.00    +0.035 A 
ATOM     32  C   UNL     1     -39.821  72.677 -13.122  0.00  0.00    +0.024 A 
ATOM     33  C   UNL     1     -39.021  71.626 -13.698  0.00  0.00    +0.007 A 
ATOM     34  C   UNL     1     -37.852  71.142 -13.022  0.00  0.00    -0.029 A 
ATOM     35  C   UNL     1     -37.028  70.016 -13.690  0.00  0.00    +0.045 C 
ENDROOT
BRANCH  10   9
ATOM      4  C   UNL     1     -32.946  72.261 -10.300  0.00  0.00    +0.077 A 
ATOM      5  C   UNL     1     -32.787  73.477 -11.044  0.00  0.00    +0.048 A 
ATOM      6  C   UNL     1     -33.899  73.932 -11.788  0.00  0.00    +0.116 A 
ATOM      7  N   UNL     1     -35.076  73.216 -11.781  0.00  0.00    -0.223 NA
ATOM      8  C   UNL     1     -35.195  72.046 -11.053  0.00  0.00    +0.220 A 
ATOM      9  N   UNL     1     -36.373  71.314 -11.025  0.00  0.00    -0.283 N 
ATOM     36  H   UNL     1     -36.418  70.453 -10.482  0.00  0.00    +0.155 HD
ATOM     37  N   UNL     1     -34.148  71.590 -10.335  0.00  0.00    -0.214 NA
BRANCH   4   3
ATOM      1  C   UNL     1     -30.996  70.639  -7.321  0.00  0.00    +0.020 A 
ATOM      2  C   UNL     1     -32.075  71.220  -8.087  0.00  0.00    +0.013 A 
ATOM      3  C   UNL     1     -31.863  71.654  -9.462  0.00  0.00    +0.019 A 
ATOM     38  C   UNL     1     -30.538  71.484 -10.038  0.00  0.00    +0.120 A 
ATOM     39  N   UNL     1     -29.518  70.923  -9.276  0.00  0.00    -0.263 NA
ATOM     40  C   UNL     1     -29.709  70.503  -7.951  0.00  0.00    +0.111 A 
ENDBRANCH   4   3
ENDBRANCH  10   9
BRANCH  12  13
ATOM     13  N   UNL     1     -40.322  74.321 -11.363  0.00  0.00    -0.281 N 
ATOM     14  C   UNL     1     -40.034  75.673 -11.270  0.00  0.00    +0.248 C 
ATOM     30  O   UNL     1     -38.919  76.153 -11.412  0.00  0.00    -0.270 OA
ATOM     31  H   UNL     1     -41.244  74.036 -11.033  0.00  0.00    +0.155 HD
BRANCH  14  15
ATOM     15  C   UNL     1     -41.141  76.628 -10.959  0.00  0.00    +0.037 A 
ATOM     16  C   UNL     1     -40.890  77.868 -10.220  0.00  0.00    +0.013 A 
ATOM     17  C   UNL     1     -41.979  78.763  -9.919  0.00  0.00    +0.005 A 
ATOM     18  C   UNL     1     -43.330  78.421 -10.359  0.00  0.00    -0.033 A 
ATOM     28  C   UNL     1     -43.549  77.187 -11.095  0.00  0.00    +0.005 A 
ATOM     29  C   UNL     1     -42.485  76.307 -11.391  0.00  0.00    +0.013 A 
BRANCH  18  19
ATOM     19  C   UNL     1     -44.555  79.307 -10.063  0.00  0.00    +0.119 C 
BRANCH  19  20
ATOM     20  N   UNL     1     -44.874  79.576  -8.629  0.00  0.00    -0.302 NA
ATOM     21  C   UNL     1     -46.164  78.878  -8.187  0.00  0.00    +0.066 C 
ATOM     22  C   UNL     1     -46.470  79.152  -6.679  0.00  0.00    -0.064 C 
ATOM     23  N   UNL     1     -46.564  80.661  -6.446  0.00  0.00    +0.379 N 
ATOM     24  C   UNL     1     -46.909  80.920  -5.041  0.00  0.00    -0.096 C 
ATOM     25  H   UNL     1     -47.397  81.050  -7.077  0.00  0.00    -0.082 HD
ATOM     26  C   UNL     1     -45.286  81.363  -6.885  0.00  0.00    -0.064 C 
ATOM     27  C   UNL     1     -44.975  81.060  -8.378  0.00  0.00    +0.066 C 
ENDBRANCH  19  20
ENDBRANCH  18  19
ENDBRANCH  14  15
ENDBRANCH  12  13
TORSDOF 6
ENDMDL
MODEL 2
REMARK VINA RESULT:      -7.2      6.041     10.184
REMARK  Name = C:\Users\Docking\Desktop\test protocol\1iep_ligandH.pdb
REMARK  8 active torsions:
REMARK  status: ('A' for Active; 'I' for Inactive)
REMARK    1  A    between atoms: _5  and  _11
REMARK    2  A    between atoms: _19  and  _21
REMARK    3  A    between atoms: _22  and  _66
REMARK    4  A    between atoms: _27  and  _30
REMARK    5  A    between atoms: _32  and  _33
REMARK    6  A    between atoms: _38  and  _43
REMARK    7  A    between atoms: _43  and  _46
REMARK    8  A    between atoms: _53  and  _55
REMARK                            x       y       z     vdW  Elec       q    Type
REMARK                         _______ _______ _______ _____ _____    ______ ____
ROOT
ATOM     10  C   UNL     1     -42.574  69.231 -13.311  0.00  0.00    +0.038 A 
ATOM     11  C   UNL     1     -42.454  70.573 -12.870  0.00  0.00    +0.047 A 
ATOM     12  C   UNL     1     -41.150  71.178 -12.647  0.00  0.00    +0.035 A 
ATOM     32  C   UNL     1     -39.989  70.387 -12.887  0.00  0.00    +0.024 A 
ATOM     33  C   UNL     1     -40.092  69.021 -13.335  0.00  0.00    +0.007 A 
ATOM     34  C   UNL     1     -41.376  68.418 -13.554  0.00  0.00    -0.029 A 
ATOM     35  C   UNL     1     -41.428  66.947 -14.028  0.00  0.00    +0.045 C 
ENDROOT
BRANCH  10   9
ATOM      4  C   UNL     1     -46.404  68.331 -16.061  0.00  0.00    +0.077 A 
ATOM      5  C   UNL     1     -45.824  68.997 -17.191  0.00  0.00    +0.048 A 
ATOM      6  C   UNL     1     -44.541  69.564 -17.021  0.00  0.00    +0.116 A 
ATOM      7  N   UNL     1     -43.896  69.466 -15.807  0.00  0.00    -0.223 NA
ATOM      8  C   UNL     1     -44.485  68.818 -14.737  0.00  0.00    +0.220 A 
ATOM      9  N   UNL     1     -43.851  68.700 -13.509  0.00  0.00    -0.283 N 
ATOM     36  H   UNL     1     -44.322  68.221 -12.742  0.00  0.00    +0.155 HD
ATOM     37  N   UNL     1     -45.710  68.269 -14.873  0.00  0.00    -0.214 NA
BRANCH   4   3
ATOM      1  C   UNL     1     -49.319  65.766 -15.588  0.00  0.00    +0.020 A 
ATOM      2  C   UNL     1     -47.999  66.350 -15.540  0.00  0.00    +0.013 A 
ATOM      3  C   UNL     1     -47.752  67.679 -16.084  0.00  0.00    +0.019 A 
ATOM     38  C   UNL     1     -48.872  68.397 -16.673  0.00  0.00    +0.120 A 
ATOM     39  N   UNL     1     -50.133  67.809 -16.706  0.00  0.00    -0.263 NA
ATOM     40  C   UNL     1     -50.382  66.529 -16.187  0.00  0.00    +0.111 A 
ENDBRANCH   4   3
ENDBRANCH  10   9
BRANCH  12  13
ATOM     13  N   UNL     1     -40.966  72.533 -12.191  0.00  0.00    -0.281 N 
ATOM     14  C   UNL     1     -41.436  73.699 -12.774  0.00  0.00    +0.248 C 
ATOM     30  O   UNL     1     -41.908  73.768 -13.899  0.00  0.00    -0.270 OA
ATOM     31  H   UNL     1     -40.424  72.648 -11.335  0.00  0.00    +0.155 HD
BRANCH  14  15
ATOM     15  C   UNL     1     -41.357  74.976 -12.001  0.00  0.00    +0.037 A 
ATOM     16  C   UNL     1     -40.094  75.431 -11.413  0.00  0.00    +0.013 A 
ATOM     17  C   UNL     1     -40.049  76.658 -10.657  0.00  0.00    +0.005 A 
ATOM     18  C   UNL     1     -41.272  77.439 -10.487  0.00  0.00    -0.033 A 
ATOM     28  C   UNL     1     -42.509  76.967 -11.086  0.00  0.00    +0.005 A 
ATOM     29  C   UNL     1     -42.557  75.765 -11.826  0.00  0.00    +0.013 A 
BRANCH  18  19
ATOM     19  C   UNL     1     -41.321  78.749  -9.679  0.00  0.00    +0.119 C 
BRANCH  19  20
ATOM     20  N   UNL     1     -42.566  79.569  -9.780  0.00  0.00    -0.302 NA
ATOM     21  C   UNL     1     -42.272  81.008 -10.212  0.00  0.00    +0.066 C 
ATOM     22  C   UNL     1     -43.587  81.845 -10.334  0.00  0.00    -0.064 C 
ATOM     23  N   UNL     1     -44.330  81.821  -8.997  0.00  0.00    +0.379 N 
ATOM     24  C   UNL     1     -45.537  82.655  -9.092  0.00  0.00    -0.096 C 
ATOM     25  H   UNL     1     -43.662  82.279  -8.232  0.00  0.00    -0.082 HD
ATOM     26  C   UNL     1     -44.623  80.393  -8.559  0.00  0.00    -0.064 C 
ATOM     27  C   UNL     1     -43.313  79.563  -8.469  0.00  0.00    +0.066 C 
ENDBRANCH  19  20
ENDBRANCH  18  19
ENDBRANCH  14  15
ENDBRANCH  12  13
TORSDOF 6
ENDMDL
MODEL 3
REMARK VINA RESULT:      -7.0      6.080      7.234
REMARK  Name = C:\Users\Docking\Desktop\test protocol\1iep_ligandH.pdb
REMARK  8 active torsions:
REMARK  status: ('A' for Active; 'I' for Inactive)
REMARK    1  A    between atoms: _5  and  _11
REMARK    2  A    between atoms: _19  and  _21
REMARK    3  A    between atoms: _22  and  _66
REMARK    4  A    between atoms: _27  and  _30
REMARK    5  A    between atoms: _32  and  _33
REMARK    6  A    between atoms: _38  and  _43
REMARK    7  A    between atoms: _43  and  _46
REMARK    8  A    between atoms: _53  and  _55
REMARK                            x       y       z     vdW  Elec       q    Type
REMARK                         _______ _______ _______ _____ _____    ______ ____
ROOT
ATOM     10  C   UNL     1     -43.354  69.439 -13.446  0.00  0.00    +0.038 A 
ATOM     11  C   UNL     1     -42.807  70.581 -12.807  0.00  0.00    +0.047 A 
ATOM     12  C   UNL     1     -43.546  71.832 -12.737  0.00  0.00    +0.035 A 
ATOM     32  C   UNL     1     -44.843  71.884 -13.327  0.00  0.00    +0.024 A 
ATOM     33  C   UNL     1     -45.414  70.733 -13.982  0.00  0.00    +0.007 A 
ATOM     34  C   UNL     1     -44.688  69.497 -14.056  0.00  0.00    -0.029 A 
ATOM     35  C   UNL     1     -45.348  68.298 -14.776  0.00  0.00    +0.045 C 
ENDROOT
BRANCH  10   9
ATOM      4  C   UNL     1     -39.964  66.645 -15.379  0.00  0.00    +0.077 A 
ATOM      5  C   UNL     1     -39.690  67.595 -16.418  0.00  0.00    +0.048 A 
ATOM      6  C   UNL     1     -40.449  68.787 -16.424  0.00  0.00    +0.116 A 
ATOM      7  N   UNL     1     -41.407  69.003 -15.457  0.00  0.00    -0.223 NA
ATOM      8  C   UNL     1     -41.647  68.065 -14.470  0.00  0.00    +0.220 A 
ATOM      9  N   UNL     1     -42.601  68.264 -13.483  0.00  0.00    -0.283 N 
ATOM     36  H   UNL     1     -42.753  67.545 -12.777  0.00  0.00    +0.155 HD
ATOM     37  N   UNL     1     -40.938  66.918 -14.444  0.00  0.00    -0.214 NA
BRANCH   4   3
ATOM      1  C   UNL     1     -37.825  63.698 -13.952  0.00  0.00    +0.020 A 
ATOM      2  C   UNL     1     -38.502  64.971 -14.038  0.00  0.00    +0.013 A 
ATOM      3  C   UNL     1     -39.245  65.340 -15.237  0.00  0.00    +0.019 A 
ATOM     38  C   UNL     1     -39.283  64.390 -16.339  0.00  0.00    +0.120 A 
ATOM     39  N   UNL     1     -38.620  63.172 -16.228  0.00  0.00    -0.263 NA
ATOM     40  C   UNL     1     -37.901  62.807 -15.080  0.00  0.00    +0.111 A 
ENDBRANCH   4   3
ENDBRANCH  10   9
BRANCH  12  13
ATOM     13  N   UNL     1     -43.038  73.026 -12.109  0.00  0.00    -0.281 N 
ATOM     14  C   UNL     1     -42.013  73.849 -12.547  0.00  0.00    +0.248 C 
ATOM     30  O   UNL     1     -41.231  73.562 -13.441  0.00  0.00    -0.270 OA
ATOM     31  H   UNL     1     -43.488  73.297 -11.235  0.00  0.00    +0.155 HD
BRANCH  14  15
ATOM     15  C   UNL     1     -41.820  75.175 -11.886  0.00  0.00    +0.037 A 
ATOM     16  C   UNL     1     -40.503  75.602 -11.409  0.00  0.00    +0.013 A 
ATOM     17  C   UNL     1     -40.347  76.880 -10.760  0.00  0.00    +0.005 A 
ATOM     18  C   UNL     1     -41.514  77.741 -10.586  0.00  0.00    -0.033 A 
ATOM     28  C   UNL     1     -42.809  77.295 -11.074  0.00  0.00    +0.005 A 
ATOM     29  C   UNL     1     -42.965  76.043 -11.709  0.00  0.00    +0.013 A 
BRANCH  18  19
ATOM     19  C   UNL     1     -41.446  79.111  -9.886  0.00  0.00    +0.119 C 
BRANCH  19  20
ATOM     20  N   UNL     1     -42.728  79.857  -9.716  0.00  0.00    -0.302 NA
ATOM     21  C   UNL     1     -42.535  81.370  -9.852  0.00  0.00    +0.066 C 
ATOM     22  C   UNL     1     -43.890  82.134  -9.693  0.00  0.00    -0.064 C 
ATOM     23  N   UNL     1     -44.513  81.786  -8.340  0.00  0.00    +0.379 N 
ATOM     24  C   UNL     1     -45.758  82.547  -8.163  0.00  0.00    -0.096 C 
ATOM     25  H   UNL     1     -43.801  82.114  -7.547  0.00  0.00    -0.082 HD
ATOM     26  C   UNL     1     -44.706  80.284  -8.195  0.00  0.00    -0.064 C 
ATOM     27  C   UNL     1     -43.358  79.533  -8.384  0.00  0.00    +0.066 C 
ENDBRANCH  19  20
ENDBRANCH  18  19
ENDBRANCH  14  15
ENDBRANCH  12  13
TORSDOF 6
ENDMDL
MODEL 4
REMARK VINA RESULT:      -6.8      6.289     13.852
REMARK  Name = C:\Users\Docking\Desktop\test protocol\1iep_ligandH.pdb
REMARK  8 active torsions:
REMARK  status: ('A' for Active; 'I' for Inactive)
REMARK    1  A    between atoms: _5  and  _11
REMARK    2  A    between atoms: _19  and  _21
REMARK    3  A    between atoms: _22  and  _66
REMARK    4  A    between atoms: _27  and  _30
REMARK    5  A    between atoms: _32  and  _33
REMARK    6  A    between atoms: _38  and  _43
REMARK    7  A    between atoms: _43  and  _46
REMARK    8  A    between atoms: _53  and  _55
REMARK                            x       y       z     vdW  Elec       q    Type
REMARK                         _______ _______ _______ _____ _____    ______ ____
ROOT
ATOM     10  C   UNL     1     -43.940  71.106 -13.152  0.00  0.00    +0.038 A 
ATOM     11  C   UNL     1     -42.893  70.157 -13.270  0.00  0.00    +0.047 A 
ATOM     12  C   UNL     1     -43.049  68.962 -14.085  0.00  0.00    +0.035 A 
ATOM     32  C   UNL     1     -44.284  68.767 -14.769  0.00  0.00    +0.024 A 
ATOM     33  C   UNL     1     -45.360  69.722 -14.659  0.00  0.00    +0.007 A 
ATOM     34  C   UNL     1     -45.212  70.901 -13.854  0.00  0.00    -0.029 A 
ATOM     35  C   UNL     1     -46.401  71.886 -13.768  0.00  0.00    +0.045 C 
ENDROOT
BRANCH  10   9
ATOM      4  C   UNL     1     -42.133  75.490 -12.407  0.00  0.00    +0.077 A 
ATOM      5  C   UNL     1     -41.521  75.522 -13.704  0.00  0.00    +0.048 A 
ATOM      6  C   UNL     1     -41.689  74.388 -14.530  0.00  0.00    +0.116 A 
ATOM      7  N   UNL     1     -42.417  73.307 -14.081  0.00  0.00    -0.223 NA
ATOM      8  C   UNL     1     -42.993  73.308 -12.824  0.00  0.00    +0.220 A 
ATOM      9  N   UNL     1     -43.736  72.235 -12.355  0.00  0.00    -0.283 N 
ATOM     36  H   UNL     1     -44.139  72.271 -11.419  0.00  0.00    +0.155 HD
ATOM     37  N   UNL     1     -42.846  74.379 -12.016  0.00  0.00    -0.214 NA
BRANCH   4   3
ATOM      1  C   UNL     1     -40.769  78.126  -9.859  0.00  0.00    +0.020 A 
ATOM      2  C   UNL     1     -40.796  77.034 -10.805  0.00  0.00    +0.013 A 
ATOM      3  C   UNL     1     -42.049  76.614 -11.421  0.00  0.00    +0.019 A 
ATOM     38  C   UNL     1     -43.265  77.325 -11.056  0.00  0.00    +0.120 A 
ATOM     39  N   UNL     1     -43.208  78.371 -10.141  0.00  0.00    -0.263 NA
ATOM     40  C   UNL     1     -42.009  78.783  -9.541  0.00  0.00    +0.111 A 
ENDBRANCH   4   3
ENDBRANCH  10   9
BRANCH  12  13
ATOM     13  N   UNL     1     -42.024  67.959 -14.236  0.00  0.00    -0.281 N 
ATOM     14  C   UNL     1     -40.779  68.096 -14.828  0.00  0.00    +0.248 C 
ATOM     30  O   UNL     1     -40.440  69.051 -15.511  0.00  0.00    -0.270 OA
ATOM     31  H   UNL     1     -42.243  67.036 -13.861  0.00  0.00    +0.155 HD
BRANCH  14  15
ATOM     15  C   UNL     1     -39.770  67.009 -14.646  0.00  0.00    +0.037 A 
ATOM     16  C   UNL     1     -38.681  67.137 -13.675  0.00  0.00    +0.013 A 
ATOM     17  C   UNL     1     -37.711  66.081 -13.532  0.00  0.00    +0.005 A 
ATOM     18  C   UNL     1     -37.826  64.885 -14.363  0.00  0.00    -0.033 A 
ATOM     28  C   UNL     1     -38.920  64.781 -15.315  0.00  0.00    +0.005 A 
ATOM     29  C   UNL     1     -39.872  65.815 -15.459  0.00  0.00    +0.013 A 
BRANCH  18  19
ATOM     19  C   UNL     1     -36.824  63.717 -14.292  0.00  0.00    +0.119 C 
BRANCH  19  20
ATOM     20  N   UNL     1     -37.317  62.368 -14.701  0.00  0.00    -0.302 NA
ATOM     21  C   UNL     1     -38.051  61.655 -13.562  0.00  0.00    +0.066 C 
ATOM     22  C   UNL     1     -38.579  60.255 -14.013  0.00  0.00    -0.064 C 
ATOM     23  N   UNL     1     -37.408  59.409 -14.515  0.00  0.00    +0.379 N 
ATOM     24  C   UNL     1     -37.892  58.071 -14.886  0.00  0.00    -0.096 C 
ATOM     25  H   UNL     1     -36.692  59.287 -13.670  0.00  0.00    -0.082 HD
ATOM     26  C   UNL     1     -36.670  60.111 -15.647  0.00  0.00    -0.064 C 
ATOM     27  C   UNL     1     -36.176  61.514 -15.197  0.00  0.00    +0.066 C 
ENDBRANCH  19  20
ENDBRANCH  18  19
ENDBRANCH  14  15
ENDBRANCH  12  13
TORSDOF 6
ENDMDL
MODEL 5
REMARK VINA RESULT:      -6.7      5.194     13.619
REMARK  Name = C:\Users\Docking\Desktop\test protocol\1iep_ligandH.pdb
REMARK  8 active torsions:
REMARK  status: ('A' for Active; 'I' for Inactive)
REMARK    1  A    between atoms: _5  and  _11
REMARK    2  A    between atoms: _19  and  _21
REMARK    3  A    between atoms: _22  and  _66
REMARK    4  A    between atoms: _27  and  _30
REMARK    5  A    between atoms: _32  and  _33
REMARK    6  A    between atoms: _38  and  _43
REMARK    7  A    between atoms: _43  and  _46
REMARK    8  A    between atoms: _53  and  _55
REMARK                            x       y       z     vdW  Elec       q    Type
REMARK                         _______ _______ _______ _____ _____    ______ ____
ROOT
ATOM     10  C   UNL     1     -37.008  73.141 -11.650  0.00  0.00    +0.038 A 
ATOM     11  C   UNL     1     -37.426  71.787 -11.715  0.00  0.00    +0.047 A 
ATOM     12  C   UNL     1     -36.581  70.767 -12.317  0.00  0.00    +0.035 A 
ATOM     32  C   UNL     1     -35.316  71.161 -12.842  0.00  0.00    +0.024 A 
ATOM     33  C   UNL     1     -34.876  72.533 -12.785  0.00  0.00    +0.007 A 
ATOM     34  C   UNL     1     -35.706  73.544 -12.194  0.00  0.00    -0.029 A 
ATOM     35  C   UNL     1     -35.186  75.000 -12.166  0.00  0.00    +0.045 C 
ENDROOT
BRANCH  10   9
ATOM      4  C   UNL     1     -40.704  76.199 -11.819  0.00  0.00    +0.077 A 
ATOM      5  C   UNL     1     -40.943  75.925 -13.206  0.00  0.00    +0.048 A 
ATOM      6  C   UNL     1     -40.088  74.997 -13.842  0.00  0.00    +0.116 A 
ATOM      7  N   UNL     1     -39.073  74.392 -13.132  0.00  0.00    -0.223 NA
ATOM      8  C   UNL     1     -38.869  74.680 -11.795  0.00  0.00    +0.220 A 
ATOM      9  N   UNL     1     -37.859  74.078 -11.060  0.00  0.00    -0.283 N 
ATOM     36  H   UNL     1     -37.736  74.323 -10.078  0.00  0.00    +0.155 HD
ATOM     37  N   UNL     1     -39.670  75.564 -11.166  0.00  0.00    -0.214 NA
BRANCH   4   3
ATOM      1  C   UNL     1     -41.772  79.025  -9.334  0.00  0.00    +0.020 A 
ATOM      2  C   UNL     1     -40.935  78.125 -10.094  0.00  0.00    +0.013 A 
ATOM      3  C   UNL     1     -41.524  77.153 -11.008  0.00  0.00    +0.019 A 
ATOM     38  C   UNL     1     -42.973  77.119 -11.131  0.00  0.00    +0.120 A 
ATOM     39  N   UNL     1     -43.754  77.997 -10.385  0.00  0.00    -0.263 NA
ATOM     40  C   UNL     1     -43.199  78.935  -9.502  0.00  0.00    +0.111 A 
ENDBRANCH   4   3
ENDBRANCH  10   9
BRANCH  12  13
ATOM     13  N   UNL     1     -36.955  69.378 -12.419  0.00  0.00    -0.281 N 
ATOM     14  C   UNL     1     -37.792  68.788 -13.352  0.00  0.00    +0.248 C 
ATOM     30  O   UNL     1     -38.519  69.405 -14.117  0.00  0.00    -0.270 OA
ATOM     31  H   UNL     1     -36.555  68.755 -11.718  0.00  0.00    +0.155 HD
BRANCH  14  15
ATOM     15  C   UNL     1     -37.839  67.297 -13.439  0.00  0.00    +0.037 A 
ATOM     16  C   UNL     1     -36.804  66.466 -12.817  0.00  0.00    +0.013 A 
ATOM     17  C   UNL     1     -36.864  65.031 -12.930  0.00  0.00    +0.005 A 
ATOM     18  C   UNL     1     -37.965  64.416 -13.667  0.00  0.00    -0.033 A 
ATOM     28  C   UNL     1     -38.981  65.263 -14.270  0.00  0.00    +0.005 A 
ATOM     29  C   UNL     1     -38.925  66.670 -14.162  0.00  0.00    +0.013 A 
BRANCH  18  19
ATOM     19  C   UNL     1     -38.097  62.893 -13.857  0.00  0.00    +0.119 C 
BRANCH  19  20
ATOM     20  N   UNL     1     -36.974  62.189 -14.545  0.00  0.00    -0.302 NA
ATOM     21  C   UNL     1     -36.973  62.450 -16.054  0.00  0.00    +0.066 C 
ATOM     22  C   UNL     1     -35.778  61.725 -16.756  0.00  0.00    -0.064 C 
ATOM     23  N   UNL     1     -35.855  60.225 -16.466  0.00  0.00    +0.379 N 
ATOM     24  C   UNL     1     -34.766  59.533 -17.171  0.00  0.00    -0.096 C 
ATOM     25  H   UNL     1     -36.819  59.850 -16.879  0.00  0.00    -0.082 HD
ATOM     26  C   UNL     1     -35.860  59.957 -14.967  0.00  0.00    -0.064 C 
ATOM     27  C   UNL     1     -37.033  60.706 -14.276  0.00  0.00    +0.066 C 
ENDBRANCH  19  20
ENDBRANCH  18  19
ENDBRANCH  14  15
ENDBRANCH  12  13
TORSDOF 6
ENDMDL
