MODEL 1
REMARK VINA RESULT:      -8.4      0.000      0.000
REMARK  Name = C:\Users\Docking\Desktop\test protocol\1iep_ligandH.pdb
REMARK  8 active torsions:
REMARK  status: ('A' for Active; 'I' for Inactive)
REMARK    1  A    between atoms: _5  and  _11
REMARK    2  A    between atoms: _19  and  _21
REMARK    3  A    between atoms: _22  and  _66
REMARK    4  A    between atoms: _27  and  _30
REMARK    5  A    between atoms: _32  and  _33
REMARK    6  A    between atoms: _38  and  _43
REMARK    7  A    between atoms: _43  and  _46
REMARK    8  A    between atoms: _53  and  _55
REMARK                            x       y       z     vdW  Elec       q    Type
REMARK                         _______ _______ _______ _____ _____    ______ ____
ROOT
ATOM     10  C   UNL     1      19.061  23.231  14.463  0.00  0.00    +0.038 A 
ATOM     11  C   UNL     1      17.870  23.306  15.231  0.00  0.00    +0.047 A 
ATOM     12  C   UNL     1      16.693  22.530  14.872  0.00  0.00    +0.035 A 
ATOM     32  C   UNL     1      16.764  21.685  13.726  0.00  0.00    +0.024 A 
ATOM     33  C   UNL     1      17.966  21.597  12.934  0.00  0.00    +0.007 A 
ATOM     34  C   UNL     1      19.129  22.362  13.281  0.00  0.00    -0.029 A 
ATOM     35  C   UNL     1      20.388  22.234  12.392  0.00  0.00    +0.045 C 
ENDROOT
BRANCH  10   9
ATOM      4  C   UNL     1      21.508  27.357  14.601  0.00  0.00    +0.077 A 
ATOM      5  C   UNL     1      20.525  28.035  13.807  0.00  0.00    +0.048 A 
ATOM      6  C   UNL     1      19.408  27.285  13.377  0.00  0.00    +0.116 A 
ATOM      7  N   UNL     1      19.293  25.956  13.722  0.00  0.00    -0.223 NA
ATOM      8  C   UNL     1      20.260  25.331  14.488  0.00  0.00    +0.220 A 
ATOM      9  N   UNL     1      20.161  23.997  14.853  0.00  0.00    -0.283 N 
ATOM     36  H   UNL     1      20.899  23.572  15.412  0.00  0.00    +0.155 HD
ATOM     37  N   UNL     1      21.337  26.026  14.909  0.00  0.00    -0.214 NA
BRANCH   4   3
ATOM      1  C   UNL     1      24.403  29.913  15.226  0.00  0.00    +0.020 A 
ATOM      2  C   UNL     1      23.204  29.321  14.679  0.00  0.00    +0.013 A 
ATOM      3  C   UNL     1      22.743  28.015  15.134  0.00  0.00    +0.019 A 
ATOM     38  C   UNL     1      23.524  27.330  16.152  0.00  0.00    +0.120 A 
ATOM     39  N   UNL     1      24.676  27.924  16.659  0.00  0.00    -0.263 NA
ATOM     40  C   UNL     1      25.130  29.179  16.228  0.00  0.00    +0.111 A 
ENDBRANCH   4   3
ENDBRANCH  10   9
BRANCH  12  13
ATOM     13  N   UNL     1      15.455  22.572  15.609  0.00  0.00    -0.281 N 
ATOM     14  C   UNL     1      15.241  22.235  16.936  0.00  0.00    +0.248 C 
ATOM     30  O   UNL     1      16.047  21.640  17.636  0.00  0.00    -0.270 OA
ATOM     31  H   UNL     1      14.636  22.888  15.089  0.00  0.00    +0.155 HD
BRANCH  14  15
ATOM     15  C   UNL     1      13.939  22.599  17.572  0.00  0.00    +0.037 A 
ATOM     16  C   UNL     1      13.854  22.923  18.999  0.00  0.00    +0.013 A 
ATOM     17  C   UNL     1      12.583  23.254  19.591  0.00  0.00    +0.005 A 
ATOM     18  C   UNL     1      11.384  23.264  18.756  0.00  0.00    -0.033 A 
ATOM     28  C   UNL     1      11.497  22.944  17.342  0.00  0.00    +0.005 A 
ATOM     29  C   UNL     1      12.742  22.618  16.758  0.00  0.00    +0.013 A 
BRANCH  18  19
ATOM     19  C   UNL     1       9.983  23.586  19.308  0.00  0.00    +0.119 C 
BRANCH  19  20
ATOM     20  N   UNL     1       9.807  24.893  20.008  0.00  0.00    -0.302 NA
ATOM     21  C   UNL     1       8.332  25.208  20.273  0.00  0.00    +0.066 C 
ATOM     22  C   UNL     1       8.167  26.568  21.027  0.00  0.00    -0.064 C 
ATOM     23  N   UNL     1       8.821  27.683  20.208  0.00  0.00    +0.379 N 
ATOM     24  C   UNL     1       8.617  28.972  20.886  0.00  0.00    -0.096 C 
ATOM     25  H   UNL     1       8.298  27.732  19.225  0.00  0.00    -0.082 HD
ATOM     26  C   UNL     1      10.287  27.377  19.938  0.00  0.00    -0.064 C 
ATOM     27  C   UNL     1      10.441  26.009  19.215  0.00  0.00    +0.066 C 
ENDBRANCH  19  20
ENDBRANCH  18  19
ENDBRANCH  14  15
ENDBRANCH  12  13
TORSDOF 6
ENDMDL
MODEL 2
REMARK VINA RESULT:      -8.2      1.537      2.252
REMARK  Name = C:\Users\Docking\Desktop\test protocol\1iep_ligandH.pdb
REMARK  8 active torsions:
REMARK  status: ('A' for Active; 'I' for Inactive)
REMARK    1  A    between atoms: _5  and  _11
REMARK    2  A    between atoms: _19  and  _21
REMARK    3  A    between atoms: _22  and  _66
REMARK    4  A    between atoms: _27  and  _30
REMARK    5  A    between atoms: _32  and  _33
REMARK    6  A    between atoms: _38  and  _43
REMARK    7  A    between atoms: _43  and  _46
REMARK    8  A    between atoms: _53  and  _55
REMARK                            x       y       z     vdW  Elec       q    Type
REMARK                         _______ _______ _______ _____ _____    ______ ____
ROOT
ATOM     10  C   UNL     1      18.271  23.627  15.031  0.00  0.00    +0.038 A 
ATOM     11  C   UNL     1      17.167  23.909  15.875  0.00  0.00    +0.047 A 
ATOM     12  C   UNL     1      15.886  23.247  15.685  0.00  0.00    +0.035 A 
ATOM     32  C   UNL     1      15.765  22.302  14.625  0.00  0.00    +0.024 A 
ATOM     33  C   UNL     1      16.877  22.004  13.757  0.00  0.00    +0.007 A 
ATOM     34  C   UNL     1      18.142  22.655  13.938  0.00  0.00    -0.029 A 
ATOM     35  C   UNL     1      19.298  22.302  12.973  0.00  0.00    +0.045 C 
ENDROOT
BRANCH  10   9
ATOM      4  C   UNL     1      21.180  27.412  14.531  0.00  0.00    +0.077 A 
ATOM      5  C   UNL     1      20.225  28.114  13.723  0.00  0.00    +0.048 A 
ATOM      6  C   UNL     1      19.000  27.464  13.454  0.00  0.00    +0.116 A 
ATOM      7  N   UNL     1      18.759  26.205  13.960  0.00  0.00    -0.223 NA
ATOM      8  C   UNL     1      19.703  25.554  14.734  0.00  0.00    +0.220 A 
ATOM      9  N   UNL     1      19.479  24.291  15.259  0.00  0.00    -0.283 N 
ATOM     36  H   UNL     1      20.203  23.842  15.819  0.00  0.00    +0.155 HD
ATOM     37  N   UNL     1      20.881  26.154  15.004  0.00  0.00    -0.214 NA
BRANCH   4   3
ATOM      1  C   UNL     1      24.256  29.798  14.916  0.00  0.00    +0.020 A 
ATOM      2  C   UNL     1      22.953  29.308  14.529  0.00  0.00    +0.013 A 
ATOM      3  C   UNL     1      22.519  27.968  14.905  0.00  0.00    +0.019 A 
ATOM     38  C   UNL     1      23.434  27.144  15.680  0.00  0.00    +0.120 A 
ATOM     39  N   UNL     1      24.683  27.641  16.037  0.00  0.00    -0.263 NA
ATOM     40  C   UNL     1      25.112  28.928  15.680  0.00  0.00    +0.111 A 
ENDBRANCH   4   3
ENDBRANCH  10   9
BRANCH  12  13
ATOM     13  N   UNL     1      14.728  23.499  16.506  0.00  0.00    -0.281 N 
ATOM     14  C   UNL     1      14.538  23.165  17.837  0.00  0.00    +0.248 C 
ATOM     30  O   UNL     1      15.258  22.405  18.468  0.00  0.00    -0.270 OA
ATOM     31  H   UNL     1      13.953  23.982  16.050  0.00  0.00    +0.155 HD
BRANCH  14  15
ATOM     15  C   UNL     1      13.373  23.748  18.568  0.00  0.00    +0.037 A 
ATOM     16  C   UNL     1      13.391  23.904  20.025  0.00  0.00    +0.013 A 
ATOM     17  C   UNL     1      12.247  24.454  20.708  0.00  0.00    +0.005 A 
ATOM     18  C   UNL     1      11.074  24.853  19.934  0.00  0.00    -0.033 A 
ATOM     28  C   UNL     1      11.085  24.693  18.489  0.00  0.00    +0.005 A 
ATOM     29  C   UNL     1      12.204  24.153  17.816  0.00  0.00    +0.013 A 
BRANCH  18  19
ATOM     19  C   UNL     1       9.801  25.430  20.581  0.00  0.00    +0.119 C 
BRANCH  19  20
ATOM     20  N   UNL     1       8.508  24.749  20.271  0.00  0.00    -0.302 NA
ATOM     21  C   UNL     1       7.327  25.403  20.993  0.00  0.00    +0.066 C 
ATOM     22  C   UNL     1       5.980  24.693  20.639  0.00  0.00    -0.064 C 
ATOM     23  N   UNL     1       6.079  23.209  20.997  0.00  0.00    +0.379 N 
ATOM     24  C   UNL     1       4.795  22.550  20.720  0.00  0.00    -0.096 C 
ATOM     25  H   UNL     1       6.266  23.138  22.094  0.00  0.00    -0.082 HD
ATOM     26  C   UNL     1       7.253  22.552  20.285  0.00  0.00    -0.064 C 
ATOM     27  C   UNL     1       8.583  23.283  20.620  0.00  0.00    +0.066 C 
ENDBRANCH  19  20
ENDBRANCH  18  19
ENDBRANCH  14  15
ENDBRANCH  12  13
TORSDOF 6
ENDMDL
MODEL 3
REMARK VINA RESULT:      -8.1      2.079     11.892
REMARK  Name = C:\Users\Docking\Desktop\test protocol\1iep_ligandH.pdb
REMARK  8 active torsions:
REMARK  status: ('A' for Active; 'I' for Inactive)
REMARK    1  A    between atoms: _5  and  _11
REMARK    2  A    between atoms: _19  and  _21
REMARK    3  A    between atoms: _22  and  _66
REMARK    4  A    between atoms: _27  and  _30
REMARK    5  A    between atoms: _32  and  _33
REMARK    6  A    between atoms: _38  and  _43
REMARK    7  A    between atoms: _43  and  _46
REMARK    8  A    between atoms: _53  and  _55
REMARK                            x       y       z     vdW  Elec       q    Type
REMARK                         _______ _______ _______ _____ _____    ______ ____
ROOT
ATOM     10  C   UNL     1      16.238  22.199  15.646  0.00  0.00    +0.038 A 
ATOM     11  C   UNL     1      17.084  23.300  15.359  0.00  0.00    +0.047 A 
ATOM     12  C   UNL     1      18.513  23.117  15.155  0.00  0.00    +0.035 A 
ATOM     32  C   UNL     1      19.046  21.799  15.249  0.00  0.00    +0.024 A 
ATOM     33  C   UNL     1      18.200  20.668  15.542  0.00  0.00    +0.007 A 
ATOM     34  C   UNL     1      16.790  20.842  15.746  0.00  0.00    -0.029 A 
ATOM     35  C   UNL     1      15.933  19.595  16.062  0.00  0.00    +0.045 C 
ENDROOT
BRANCH  10   9
ATOM      4  C   UNL     1      12.520  23.687  18.291  0.00  0.00    +0.077 A 
ATOM      5  C   UNL     1      13.364  24.004  19.407  0.00  0.00    +0.048 A 
ATOM      6  C   UNL     1      14.748  23.762  19.262  0.00  0.00    +0.116 A 
ATOM      7  N   UNL     1      15.241  23.242  18.084  0.00  0.00    -0.223 NA
ATOM      8  C   UNL     1      14.399  22.947  17.028  0.00  0.00    +0.220 A 
ATOM      9  N   UNL     1      14.873  22.431  15.832  0.00  0.00    -0.283 N 
ATOM     36  H   UNL     1      14.219  22.220  15.079  0.00  0.00    +0.155 HD
ATOM     37  N   UNL     1      13.072  23.167  17.142  0.00  0.00    -0.214 NA
BRANCH   4   3
ATOM      1  C   UNL     1       8.669  23.077  17.973  0.00  0.00    +0.020 A 
ATOM      2  C   UNL     1      10.092  22.830  17.959  0.00  0.00    +0.013 A 
ATOM      3  C   UNL     1      11.036  23.890  18.289  0.00  0.00    +0.019 A 
ATOM     38  C   UNL     1      10.503  25.199  18.633  0.00  0.00    +0.120 A 
ATOM     39  N   UNL     1       9.127  25.409  18.637  0.00  0.00    -0.263 NA
ATOM     40  C   UNL     1       8.210  24.397  18.319  0.00  0.00    +0.111 A 
ENDBRANCH   4   3
ENDBRANCH  10   9
BRANCH  12  13
ATOM     13  N   UNL     1      19.423  24.199  14.869  0.00  0.00    -0.281 N 
ATOM     14  C   UNL     1      19.153  25.389  14.214  0.00  0.00    +0.248 C 
ATOM     30  O   UNL     1      18.131  25.613  13.583  0.00  0.00    -0.270 OA
ATOM     31  H   UNL     1      20.384  24.071  15.188  0.00  0.00    +0.155 HD
BRANCH  14  15
ATOM     15  C   UNL     1      20.171  26.482  14.253  0.00  0.00    +0.037 A 
ATOM     16  C   UNL     1      20.071  27.645  13.367  0.00  0.00    +0.013 A 
ATOM     17  C   UNL     1      21.076  28.678  13.414  0.00  0.00    +0.005 A 
ATOM     18  C   UNL     1      22.189  28.552  14.352  0.00  0.00    -0.033 A 
ATOM     28  C   UNL     1      22.260  27.391  15.223  0.00  0.00    +0.005 A 
ATOM     29  C   UNL     1      21.278  26.376  15.179  0.00  0.00    +0.013 A 
BRANCH  18  19
ATOM     19  C   UNL     1      23.318  29.595  14.455  0.00  0.00    +0.119 C 
BRANCH  19  20
ATOM     20  N   UNL     1      24.401  29.334  15.449  0.00  0.00    -0.302 NA
ATOM     21  C   UNL     1      24.939  30.628  16.066  0.00  0.00    +0.066 C 
ATOM     22  C   UNL     1      26.056  30.335  17.120  0.00  0.00    -0.064 C 
ATOM     23  N   UNL     1      27.184  29.542  16.457  0.00  0.00    +0.379 N 
ATOM     24  C   UNL     1      28.262  29.315  17.430  0.00  0.00    -0.096 C 
ATOM     25  H   UNL     1      27.598  30.169  15.633  0.00  0.00    -0.082 HD
ATOM     26  C   UNL     1      26.657  28.255  15.838  0.00  0.00    -0.064 C 
ATOM     27  C   UNL     1      25.527  28.555  14.814  0.00  0.00    +0.066 C 
ENDBRANCH  19  20
ENDBRANCH  18  19
ENDBRANCH  14  15
ENDBRANCH  12  13
TORSDOF 6
ENDMDL
MODEL 4
REMARK VINA RESULT:      -8.1      1.463      2.353
REMARK  Name = C:\Users\Docking\Desktop\test protocol\1iep_ligandH.pdb
REMARK  8 active torsions:
REMARK  status: ('A' for Active; 'I' for Inactive)
REMARK    1  A    between atoms: _5  and  _11
REMARK    2  A    between atoms: _19  and  _21
REMARK    3  A    between atoms: _22  and  _66
REMARK    4  A    between atoms: _27  and  _30
REMARK    5  A    between atoms: _32  and  _33
REMARK    6  A    between atoms: _38  and  _43
REMARK    7  A    between atoms: _43  and  _46
REMARK    8  A    between atoms: _53  and  _55
REMARK                            x       y       z     vdW  Elec       q    Type
REMARK                         _______ _______ _______ _____ _____    ______ ____
ROOT
ATOM     10  C   UNL     1      18.225  23.600  15.063  0.00  0.00    +0.038 A 
ATOM     11  C   UNL     1      17.121  23.938  15.887  0.00  0.00    +0.047 A 
ATOM     12  C   UNL     1      15.831  23.287  15.722  0.00  0.00    +0.035 A 
ATOM     32  C   UNL     1      15.701  22.293  14.708  0.00  0.00    +0.024 A 
ATOM     33  C   UNL     1      16.813  21.937  13.861  0.00  0.00    +0.007 A 
ATOM     34  C   UNL     1      18.087  22.578  14.018  0.00  0.00    -0.029 A 
ATOM     35  C   UNL     1      19.242  22.162  13.078  0.00  0.00    +0.045 C 
ENDROOT
BRANCH  10   9
ATOM      4  C   UNL     1      21.148  27.364  14.495  0.00  0.00    +0.077 A 
ATOM      5  C   UNL     1      20.181  28.071  13.705  0.00  0.00    +0.048 A 
ATOM      6  C   UNL     1      18.947  27.428  13.462  0.00  0.00    +0.116 A 
ATOM      7  N   UNL     1      18.708  26.171  13.976  0.00  0.00    -0.223 NA
ATOM      8  C   UNL     1      19.663  25.517  14.733  0.00  0.00    +0.220 A 
ATOM      9  N   UNL     1      19.441  24.257  15.266  0.00  0.00    -0.283 N 
ATOM     36  H   UNL     1      20.174  23.804  15.812  0.00  0.00    +0.155 HD
ATOM     37  N   UNL     1      20.850  26.109  14.978  0.00  0.00    -0.214 NA
BRANCH   4   3
ATOM      1  C   UNL     1      24.228  29.748  14.857  0.00  0.00    +0.020 A 
ATOM      2  C   UNL     1      22.914  29.267  14.499  0.00  0.00    +0.013 A 
ATOM      3  C   UNL     1      22.498  27.913  14.842  0.00  0.00    +0.019 A 
ATOM     38  C   UNL     1      23.442  27.065  15.553  0.00  0.00    +0.120 A 
ATOM     39  N   UNL     1      24.702  27.555  15.883  0.00  0.00    -0.263 NA
ATOM     40  C   UNL     1      25.114  28.856  15.557  0.00  0.00    +0.111 A 
ENDBRANCH   4   3
ENDBRANCH  10   9
BRANCH  12  13
ATOM     13  N   UNL     1      14.673  23.595  16.523  0.00  0.00    -0.281 N 
ATOM     14  C   UNL     1      14.310  23.046  17.742  0.00  0.00    +0.248 C 
ATOM     30  O   UNL     1      14.819  22.048  18.229  0.00  0.00    -0.270 OA
ATOM     31  H   UNL     1      14.044  24.303  16.145  0.00  0.00    +0.155 HD
BRANCH  14  15
ATOM     15  C   UNL     1      13.214  23.691  18.527  0.00  0.00    +0.037 A 
ATOM     16  C   UNL     1      12.063  24.306  17.861  0.00  0.00    +0.013 A 
ATOM     17  C   UNL     1      11.028  24.937  18.641  0.00  0.00    +0.005 A 
ATOM     18  C   UNL     1      11.139  24.954  20.098  0.00  0.00    -0.033 A 
ATOM     28  C   UNL     1      12.289  24.332  20.733  0.00  0.00    +0.005 A 
ATOM     29  C   UNL     1      13.306  23.714  19.971  0.00  0.00    +0.013 A 
BRANCH  18  19
ATOM     19  C   UNL     1      10.093  25.623  21.008  0.00  0.00    +0.119 C 
BRANCH  19  20
ATOM     20  N   UNL     1       8.809  24.892  21.226  0.00  0.00    -0.302 NA
ATOM     21  C   UNL     1       8.839  23.485  20.623  0.00  0.00    +0.066 C 
ATOM     22  C   UNL     1       7.496  22.727  20.880  0.00  0.00    -0.064 C 
ATOM     23  N   UNL     1       6.337  23.539  20.301  0.00  0.00    +0.379 N 
ATOM     24  C   UNL     1       5.079  22.801  20.489  0.00  0.00    -0.096 C 
ATOM     25  H   UNL     1       6.509  23.640  19.204  0.00  0.00    -0.082 HD
ATOM     26  C   UNL     1       6.300  24.941  20.893  0.00  0.00    -0.064 C 
ATOM     27  C   UNL     1       7.650  25.675  20.659  0.00  0.00    +0.066 C 
ENDBRANCH  19  20
ENDBRANCH  18  19
ENDBRANCH  14  15
ENDBRANCH  12  13
TORSDOF 6
ENDMDL
MODEL 5
REMARK VINA RESULT:      -8.0      5.927     10.447
REMARK  Name = C:\Users\Docking\Desktop\test protocol\1iep_ligandH.pdb
REMARK  8 active torsions:
REMARK  status: ('A' for Active; 'I' for Inactive)
REMARK    1  A    between atoms: _5  and  _11
REMARK    2  A    between atoms: _19  and  _21
REMARK    3  A    between atoms: _22  and  _66
REMARK    4  A    between atoms: _27  and  _30
REMARK    5  A    between atoms: _32  and  _33
REMARK    6  A    between atoms: _38  and  _43
REMARK    7  A    between atoms: _43  and  _46
REMARK    8  A    between atoms: _53  and  _55
REMARK                            x       y       z     vdW  Elec       q    Type
REMARK                         _______ _______ _______ _____ _____    ______ ____
ROOT
ATOM     10  C   UNL     1      19.673  21.949  14.934  0.00  0.00    +0.038 A 
ATOM     11  C   UNL     1      19.665  21.192  13.735  0.00  0.00    +0.047 A 
ATOM     12  C   UNL     1      18.706  20.119  13.529  0.00  0.00    +0.035 A 
ATOM     32  C   UNL     1      17.766  19.844  14.564  0.00  0.00    +0.024 A 
ATOM     33  C   UNL     1      17.760  20.603  15.791  0.00  0.00    +0.007 A 
ATOM     34  C   UNL     1      18.706  21.661  16.001  0.00  0.00    -0.029 A 
ATOM     35  C   UNL     1      18.658  22.437  17.337  0.00  0.00    +0.045 C 
ENDROOT
BRANCH  10   9
ATOM      4  C   UNL     1      21.025  26.542  14.603  0.00  0.00    +0.077 A 
ATOM      5  C   UNL     1      19.754  26.940  14.071  0.00  0.00    +0.048 A 
ATOM      6  C   UNL     1      18.781  25.931  13.891  0.00  0.00    +0.116 A 
ATOM      7  N   UNL     1      19.070  24.625  14.223  0.00  0.00    -0.223 NA
ATOM      8  C   UNL     1      20.307  24.275  14.732  0.00  0.00    +0.220 A 
ATOM      9  N   UNL     1      20.616  22.969  15.079  0.00  0.00    -0.283 N 
ATOM     36  H   UNL     1      21.543  22.750  15.445  0.00  0.00    +0.155 HD
ATOM     37  N   UNL     1      21.253  25.220  14.912  0.00  0.00    -0.214 NA
BRANCH   4   3
ATOM      1  C   UNL     1      23.365  29.675  14.479  0.00  0.00    +0.020 A 
ATOM      2  C   UNL     1      22.254  28.793  14.202  0.00  0.00    +0.013 A 
ATOM      3  C   UNL     1      22.154  27.494  14.854  0.00  0.00    +0.019 A 
ATOM     38  C   UNL     1      23.202  27.113  15.788  0.00  0.00    +0.120 A 
ATOM     39  N   UNL     1      24.261  27.982  16.035  0.00  0.00    -0.263 NA
ATOM     40  C   UNL     1      24.368  29.235  15.412  0.00  0.00    +0.111 A 
ENDBRANCH   4   3
ENDBRANCH  10   9
BRANCH  12  13
ATOM     13  N   UNL     1      18.656  19.311  12.335  0.00  0.00    -0.281 N 
ATOM     14  C   UNL     1      19.175  18.041  12.144  0.00  0.00    +0.248 C 
ATOM     30  O   UNL     1      19.952  17.489  12.909  0.00  0.00    -0.270 OA
ATOM     31  H   UNL     1      18.180  19.726  11.534  0.00  0.00    +0.155 HD
BRANCH  14  15
ATOM     15  C   UNL     1      18.785  17.279  10.918  0.00  0.00    +0.037 A 
ATOM     16  C   UNL     1      17.851  16.153  10.988  0.00  0.00    +0.013 A 
ATOM     17  C   UNL     1      17.506  15.424   9.793  0.00  0.00    +0.005 A 
ATOM     18  C   UNL     1      18.095  15.821   8.517  0.00  0.00    -0.033 A 
ATOM     28  C   UNL     1      19.015  16.946   8.475  0.00  0.00    +0.005 A 
ATOM     29  C   UNL     1      19.357  17.662   9.644  0.00  0.00    +0.013 A 
BRANCH  18  19
ATOM     19  C   UNL     1      17.800  15.088   7.195  0.00  0.00    +0.119 C 
BRANCH  19  20
ATOM     20  N   UNL     1      17.131  15.870   6.113  0.00  0.00    -0.302 NA
ATOM     21  C   UNL     1      18.142  16.500   5.151  0.00  0.00    +0.066 C 
ATOM     22  C   UNL     1      17.425  17.297   4.013  0.00  0.00    -0.064 C 
ATOM     23  N   UNL     1      16.526  18.368   4.632  0.00  0.00    +0.379 N 
ATOM     24  C   UNL     1      15.895  19.157   3.564  0.00  0.00    -0.096 C 
ATOM     25  H   UNL     1      17.177  19.056   5.221  0.00  0.00    -0.082 HD
ATOM     26  C   UNL     1      15.520  17.751   5.592  0.00  0.00    -0.064 C 
ATOM     27  C   UNL     1      16.242  16.937   6.702  0.00  0.00    +0.066 C 
ENDBRANCH  19  20
ENDBRANCH  18  19
ENDBRANCH  14  15
ENDBRANCH  12  13
TORSDOF 6
ENDMDL
