MODEL 1
REMARK VINA RESULT:      -8.7      0.000      0.000
REMARK  Name = C:\Users\Docking\Desktop\test protocol\1iep_ligandH.pdb
REMARK  8 active torsions:
REMARK  status: ('A' for Active; 'I' for Inactive)
REMARK    1  A    between atoms: _5  and  _11
REMARK    2  A    between atoms: _19  and  _21
REMARK    3  A    between atoms: _22  and  _66
REMARK    4  A    between atoms: _27  and  _30
REMARK    5  A    between atoms: _32  and  _33
REMARK    6  A    between atoms: _38  and  _43
REMARK    7  A    between atoms: _43  and  _46
REMARK    8  A    between atoms: _53  and  _55
REMARK                            x       y       z     vdW  Elec       q    Type
REMARK                         _______ _______ _______ _____ _____    ______ ____
ROOT
ATOM     10  C   UNL     1       9.284  25.808  18.630  0.00  0.00    +0.038 A 
ATOM     11  C   UNL     1      10.605  25.684  18.128  0.00  0.00    +0.047 A 
ATOM     12  C   UNL     1      11.245  24.384  18.006  0.00  0.00    +0.035 A 
ATOM     32  C   UNL     1      10.509  23.229  18.403  0.00  0.00    +0.024 A 
ATOM     33  C   UNL     1       9.167  23.336  18.917  0.00  0.00    +0.007 A 
ATOM     34  C   UNL     1       8.531  24.617  19.041  0.00  0.00    -0.029 A 
ATOM     35  C   UNL     1       7.092  24.673  19.605  0.00  0.00    +0.045 C 
ENDROOT
BRANCH  10   9
ATOM      4  C   UNL     1       8.120  29.747  21.113  0.00  0.00    +0.077 A 
ATOM      5  C   UNL     1       8.662  29.212  22.330  0.00  0.00    +0.048 A 
ATOM      6  C   UNL     1       9.224  27.917  22.275  0.00  0.00    +0.116 A 
ATOM      7  N   UNL     1       9.239  27.218  21.087  0.00  0.00    -0.223 NA
ATOM      8  C   UNL     1       8.707  27.763  19.933  0.00  0.00    +0.220 A 
ATOM      9  N   UNL     1       8.718  27.081  18.726  0.00  0.00    -0.283 N 
ATOM     36  H   UNL     1       8.309  27.514  17.898  0.00  0.00    +0.155 HD
ATOM     37  N   UNL     1       8.163  28.997  19.959  0.00  0.00    -0.214 NA
BRANCH   4   3
ATOM      1  C   UNL     1       5.918  32.905  21.804  0.00  0.00    +0.020 A 
ATOM      2  C   UNL     1       6.490  31.586  21.948  0.00  0.00    +0.013 A 
ATOM      3  C   UNL     1       7.495  31.103  21.010  0.00  0.00    +0.019 A 
ATOM     38  C   UNL     1       7.903  31.987  19.928  0.00  0.00    +0.120 A 
ATOM     39  N   UNL     1       7.333  33.251  19.813  0.00  0.00    -0.263 NA
ATOM     40  C   UNL     1       6.364  33.726  20.709  0.00  0.00    +0.111 A 
ENDBRANCH   4   3
ENDBRANCH  10   9
BRANCH  12  13
ATOM     13  N   UNL     1      12.586  24.197  17.511  0.00  0.00    -0.281 N 
ATOM     14  C   UNL     1      12.982  23.572  16.340  0.00  0.00    +0.248 C 
ATOM     30  O   UNL     1      12.251  22.886  15.641  0.00  0.00    -0.270 OA
ATOM     31  H   UNL     1      13.334  24.572  18.094  0.00  0.00    +0.155 HD
BRANCH  14  15
ATOM     15  C   UNL     1      14.399  23.718  15.887  0.00  0.00    +0.037 A 
ATOM     16  C   UNL     1      15.504  23.759  16.848  0.00  0.00    +0.013 A 
ATOM     17  C   UNL     1      16.860  23.918  16.386  0.00  0.00    +0.005 A 
ATOM     18  C   UNL     1      17.118  24.034  14.953  0.00  0.00    -0.033 A 
ATOM     28  C   UNL     1      16.004  23.985  14.021  0.00  0.00    +0.005 A 
ATOM     29  C   UNL     1      14.674  23.831  14.470  0.00  0.00    +0.013 A 
BRANCH  18  19
ATOM     19  C   UNL     1      18.531  24.227  14.371  0.00  0.00    +0.119 C 
BRANCH  19  20
ATOM     20  N   UNL     1      19.269  25.465  14.764  0.00  0.00    -0.302 NA
ATOM     21  C   UNL     1      18.832  26.680  13.942  0.00  0.00    +0.066 C 
ATOM     22  C   UNL     1      19.598  27.970  14.381  0.00  0.00    -0.064 C 
ATOM     23  N   UNL     1      21.103  27.738  14.245  0.00  0.00    +0.379 N 
ATOM     24  C   UNL     1      21.824  28.968  14.602  0.00  0.00    -0.096 C 
ATOM     25  H   UNL     1      21.316  27.520  13.172  0.00  0.00    -0.082 HD
ATOM     26  C   UNL     1      21.547  26.529  15.057  0.00  0.00    -0.064 C 
ATOM     27  C   UNL     1      20.758  25.259  14.632  0.00  0.00    +0.066 C 
ENDBRANCH  19  20
ENDBRANCH  18  19
ENDBRANCH  14  15
ENDBRANCH  12  13
TORSDOF 6
ENDMDL
MODEL 2
REMARK VINA RESULT:      -8.6      3.717      7.618
REMARK  Name = C:\Users\Docking\Desktop\test protocol\1iep_ligandH.pdb
REMARK  8 active torsions:
REMARK  status: ('A' for Active; 'I' for Inactive)
REMARK    1  A    between atoms: _5  and  _11
REMARK    2  A    between atoms: _19  and  _21
REMARK    3  A    between atoms: _22  and  _66
REMARK    4  A    between atoms: _27  and  _30
REMARK    5  A    between atoms: _32  and  _33
REMARK    6  A    between atoms: _38  and  _43
REMARK    7  A    between atoms: _43  and  _46
REMARK    8  A    between atoms: _53  and  _55
REMARK                            x       y       z     vdW  Elec       q    Type
REMARK                         _______ _______ _______ _____ _____    ______ ____
ROOT
ATOM     10  C   UNL     1      14.994  23.662  14.208  0.00  0.00    +0.038 A 
ATOM     11  C   UNL     1      16.151  24.469  14.359  0.00  0.00    +0.047 A 
ATOM     12  C   UNL     1      17.423  24.078  13.771  0.00  0.00    +0.035 A 
ATOM     32  C   UNL     1      17.480  22.860  13.033  0.00  0.00    +0.024 A 
ATOM     33  C   UNL     1      16.315  22.028  12.870  0.00  0.00    +0.007 A 
ATOM     34  C   UNL     1      15.058  22.407  13.450  0.00  0.00    -0.029 A 
ATOM     35  C   UNL     1      13.842  21.472  13.249  0.00  0.00    +0.045 C 
ENDROOT
BRANCH  10   9
ATOM      4  C   UNL     1      11.984  23.976  17.933  0.00  0.00    +0.077 A 
ATOM      5  C   UNL     1      12.854  23.208  18.776  0.00  0.00    +0.048 A 
ATOM      6  C   UNL     1      14.064  22.745  18.211  0.00  0.00    +0.116 A 
ATOM      7  N   UNL     1      14.370  23.035  16.899  0.00  0.00    -0.223 NA
ATOM      8  C   UNL     1      13.508  23.776  16.113  0.00  0.00    +0.220 A 
ATOM      9  N   UNL     1      13.799  24.086  14.793  0.00  0.00    -0.283 N 
ATOM     36  H   UNL     1      13.133  24.629  14.244  0.00  0.00    +0.155 HD
ATOM     37  N   UNL     1      12.346  24.229  16.628  0.00  0.00    -0.214 NA
BRANCH   4   3
ATOM      1  C   UNL     1       9.050  26.441  18.719  0.00  0.00    +0.020 A 
ATOM      2  C   UNL     1      10.331  25.949  18.266  0.00  0.00    +0.013 A 
ATOM      3  C   UNL     1      10.672  24.538  18.386  0.00  0.00    +0.019 A 
ATOM     38  C   UNL     1       9.687  23.642  18.973  0.00  0.00    +0.120 A 
ATOM     39  N   UNL     1       8.462  24.144  19.401  0.00  0.00    -0.263 NA
ATOM     40  C   UNL     1       8.123  25.501  19.292  0.00  0.00    +0.111 A 
ENDBRANCH   4   3
ENDBRANCH  10   9
BRANCH  12  13
ATOM     13  N   UNL     1      18.633  24.852  13.898  0.00  0.00    -0.281 N 
ATOM     14  C   UNL     1      18.765  26.231  13.898  0.00  0.00    +0.248 C 
ATOM     30  O   UNL     1      17.882  27.011  13.573  0.00  0.00    -0.270 OA
ATOM     31  H   UNL     1      19.496  24.319  14.000  0.00  0.00    +0.155 HD
BRANCH  14  15
ATOM     15  C   UNL     1      20.073  26.831  14.304  0.00  0.00    +0.037 A 
ATOM     16  C   UNL     1      20.425  28.206  13.939  0.00  0.00    +0.013 A 
ATOM     17  C   UNL     1      21.699  28.754  14.329  0.00  0.00    +0.005 A 
ATOM     18  C   UNL     1      22.632  27.927  15.091  0.00  0.00    -0.033 A 
ATOM     28  C   UNL     1      22.255  26.568  15.445  0.00  0.00    +0.005 A 
ATOM     29  C   UNL     1      21.007  26.027  15.063  0.00  0.00    +0.013 A 
BRANCH  18  19
ATOM     19  C   UNL     1      24.022  28.422  15.531  0.00  0.00    +0.119 C 
BRANCH  19  20
ATOM     20  N   UNL     1      24.970  27.405  16.076  0.00  0.00    -0.302 NA
ATOM     21  C   UNL     1      25.363  27.705  17.525  0.00  0.00    +0.066 C 
ATOM     22  C   UNL     1      26.337  26.618  18.087  0.00  0.00    -0.064 C 
ATOM     23  N   UNL     1      27.577  26.538  17.195  0.00  0.00    +0.379 N 
ATOM     24  C   UNL     1      28.520  25.559  17.753  0.00  0.00    -0.096 C 
ATOM     25  H   UNL     1      28.073  27.537  17.216  0.00  0.00    -0.082 HD
ATOM     26  C   UNL     1      27.195  26.244  15.751  0.00  0.00    -0.064 C 
ATOM     27  C   UNL     1      26.204  27.313  15.212  0.00  0.00    +0.066 C 
ENDBRANCH  19  20
ENDBRANCH  18  19
ENDBRANCH  14  15
ENDBRANCH  12  13
TORSDOF 6
ENDMDL
MODEL 3
REMARK VINA RESULT:      -8.6      4.930     12.533
REMARK  Name = C:\Users\Docking\Desktop\test protocol\1iep_ligandH.pdb
REMARK  8 active torsions:
REMARK  status: ('A' for Active; 'I' for Inactive)
REMARK    1  A    between atoms: _5  and  _11
REMARK    2  A    between atoms: _19  and  _21
REMARK    3  A    between atoms: _22  and  _66
REMARK    4  A    between atoms: _27  and  _30
REMARK    5  A    between atoms: _32  and  _33
REMARK    6  A    between atoms: _38  and  _43
REMARK    7  A    between atoms: _43  and  _46
REMARK    8  A    between atoms: _53  and  _55
REMARK                            x       y       z     vdW  Elec       q    Type
REMARK                         _______ _______ _______ _____ _____    ______ ____
ROOT
ATOM     10  C   UNL     1      19.155  22.568  13.164  0.00  0.00    +0.038 A 
ATOM     11  C   UNL     1      17.798  22.691  13.557  0.00  0.00    +0.047 A 
ATOM     12  C   UNL     1      16.917  21.534  13.594  0.00  0.00    +0.035 A 
ATOM     32  C   UNL     1      17.453  20.265  13.228  0.00  0.00    +0.024 A 
ATOM     33  C   UNL     1      18.830  20.122  12.826  0.00  0.00    +0.007 A 
ATOM     34  C   UNL     1      19.703  21.260  12.784  0.00  0.00    -0.029 A 
ATOM     35  C   UNL     1      21.169  21.049  12.339  0.00  0.00    +0.045 C 
ENDROOT
BRANCH  10   9
ATOM      4  C   UNL     1      21.223  26.321  15.326  0.00  0.00    +0.077 A 
ATOM      5  C   UNL     1      20.637  25.990  16.593  0.00  0.00    +0.048 A 
ATOM      6  C   UNL     1      19.804  24.850  16.644  0.00  0.00    +0.116 A 
ATOM      7  N   UNL     1      19.581  24.104  15.507  0.00  0.00    -0.223 NA
ATOM      8  C   UNL     1      20.160  24.452  14.301  0.00  0.00    +0.220 A 
ATOM      9  N   UNL     1      19.956  23.712  13.146  0.00  0.00    -0.283 N 
ATOM     36  H   UNL     1      20.395  24.006  12.274  0.00  0.00    +0.155 HD
ATOM     37  N   UNL     1      20.958  25.537  14.226  0.00  0.00    -0.214 NA
BRANCH   4   3
ATOM      1  C   UNL     1      22.715  29.700  14.037  0.00  0.00    +0.020 A 
ATOM      2  C   UNL     1      21.806  28.590  14.207  0.00  0.00    +0.013 A 
ATOM      3  C   UNL     1      22.128  27.494  15.113  0.00  0.00    +0.019 A 
ATOM     38  C   UNL     1      23.389  27.553  15.838  0.00  0.00    +0.120 A 
ATOM     39  N   UNL     1      24.245  28.634  15.653  0.00  0.00    -0.263 NA
ATOM     40  C   UNL     1      23.946  29.693  14.783  0.00  0.00    +0.111 A 
ENDBRANCH   4   3
ENDBRANCH  10   9
BRANCH  12  13
ATOM     13  N   UNL     1      15.528  21.600  13.977  0.00  0.00    -0.281 N 
ATOM     14  C   UNL     1      14.414  21.457  13.166  0.00  0.00    +0.248 C 
ATOM     30  O   UNL     1      14.443  21.463  11.944  0.00  0.00    -0.270 OA
ATOM     31  H   UNL     1      15.344  21.772  14.965  0.00  0.00    +0.155 HD
BRANCH  14  15
ATOM     15  C   UNL     1      13.072  21.298  13.805  0.00  0.00    +0.037 A 
ATOM     16  C   UNL     1      12.271  20.089  13.600  0.00  0.00    +0.013 A 
ATOM     17  C   UNL     1      10.973  19.969  14.213  0.00  0.00    +0.005 A 
ATOM     18  C   UNL     1      10.467  21.062  15.040  0.00  0.00    -0.033 A 
ATOM     28  C   UNL     1      11.285  22.249  15.231  0.00  0.00    +0.005 A 
ATOM     29  C   UNL     1      12.558  22.370  14.630  0.00  0.00    +0.013 A 
BRANCH  18  19
ATOM     19  C   UNL     1       9.084  21.029  15.716  0.00  0.00    +0.119 C 
BRANCH  19  20
ATOM     20  N   UNL     1       8.954  21.707  17.041  0.00  0.00    -0.302 NA
ATOM     21  C   UNL     1       8.462  20.750  18.130  0.00  0.00    +0.066 C 
ATOM     22  C   UNL     1       8.353  21.469  19.514  0.00  0.00    -0.064 C 
ATOM     23  N   UNL     1       7.418  22.673  19.387  0.00  0.00    +0.379 N 
ATOM     24  C   UNL     1       7.268  23.317  20.700  0.00  0.00    -0.096 C 
ATOM     25  H   UNL     1       6.416  22.291  19.081  0.00  0.00    -0.082 HD
ATOM     26  C   UNL     1       7.898  23.629  18.305  0.00  0.00    -0.064 C 
ATOM     27  C   UNL     1       8.031  22.896  16.940  0.00  0.00    +0.066 C 
ENDBRANCH  19  20
ENDBRANCH  18  19
ENDBRANCH  14  15
ENDBRANCH  12  13
TORSDOF 6
ENDMDL
MODEL 4
REMARK VINA RESULT:      -8.5      3.900     12.734
REMARK  Name = C:\Users\Docking\Desktop\test protocol\1iep_ligandH.pdb
REMARK  8 active torsions:
REMARK  status: ('A' for Active; 'I' for Inactive)
REMARK    1  A    between atoms: _5  and  _11
REMARK    2  A    between atoms: _19  and  _21
REMARK    3  A    between atoms: _22  and  _66
REMARK    4  A    between atoms: _27  and  _30
REMARK    5  A    between atoms: _32  and  _33
REMARK    6  A    between atoms: _38  and  _43
REMARK    7  A    between atoms: _43  and  _46
REMARK    8  A    between atoms: _53  and  _55
REMARK                            x       y       z     vdW  Elec       q    Type
REMARK                         _______ _______ _______ _____ _____    ______ ____
ROOT
ATOM     10  C   UNL     1       8.904  25.464  19.629  0.00  0.00    +0.038 A 
ATOM     11  C   UNL     1       8.480  26.814  19.523  0.00  0.00    +0.047 A 
ATOM     12  C   UNL     1       7.865  27.500  20.648  0.00  0.00    +0.035 A 
ATOM     32  C   UNL     1       7.700  26.783  21.869  0.00  0.00    +0.024 A 
ATOM     33  C   UNL     1       8.124  25.411  21.994  0.00  0.00    +0.007 A 
ATOM     34  C   UNL     1       8.729  24.728  20.887  0.00  0.00    -0.029 A 
ATOM     35  C   UNL     1       9.159  23.254  21.076  0.00  0.00    +0.045 C 
ENDROOT
BRANCH  10   9
ATOM      4  C   UNL     1      12.701  23.728  17.261  0.00  0.00    +0.077 A 
ATOM      5  C   UNL     1      13.600  24.092  18.318  0.00  0.00    +0.048 A 
ATOM      6  C   UNL     1      13.047  24.730  19.450  0.00  0.00    +0.116 A 
ATOM      7  N   UNL     1      11.693  24.981  19.511  0.00  0.00    -0.223 NA
ATOM      8  C   UNL     1      10.854  24.619  18.474  0.00  0.00    +0.220 A 
ATOM      9  N   UNL     1       9.488  24.854  18.517  0.00  0.00    -0.283 N 
ATOM     36  H   UNL     1       8.904  24.579  17.728  0.00  0.00    +0.155 HD
ATOM     37  N   UNL     1      11.358  24.009  17.381  0.00  0.00    -0.214 NA
BRANCH   4   3
ATOM      1  C   UNL     1      12.673  21.712  13.909  0.00  0.00    +0.020 A 
ATOM      2  C   UNL     1      12.204  22.356  15.114  0.00  0.00    +0.013 A 
ATOM      3  C   UNL     1      13.133  23.044  16.002  0.00  0.00    +0.019 A 
ATOM     38  C   UNL     1      14.542  23.062  15.638  0.00  0.00    +0.120 A 
ATOM     39  N   UNL     1      14.965  22.432  14.472  0.00  0.00    -0.263 NA
ATOM     40  C   UNL     1      14.080  21.765  13.611  0.00  0.00    +0.111 A 
ENDBRANCH   4   3
ENDBRANCH  10   9
BRANCH  12  13
ATOM     13  N   UNL     1       7.407  28.867  20.596  0.00  0.00    -0.281 N 
ATOM     14  C   UNL     1       8.136  29.997  20.262  0.00  0.00    +0.248 C 
ATOM     30  O   UNL     1       9.353  30.030  20.163  0.00  0.00    -0.270 OA
ATOM     31  H   UNL     1       6.428  29.019  20.835  0.00  0.00    +0.155 HD
BRANCH  14  15
ATOM     15  C   UNL     1       7.407  31.279  20.017  0.00  0.00    +0.037 A 
ATOM     16  C   UNL     1       5.950  31.360  20.138  0.00  0.00    +0.013 A 
ATOM     17  C   UNL     1       5.270  32.605  19.879  0.00  0.00    +0.005 A 
ATOM     18  C   UNL     1       6.050  33.780  19.497  0.00  0.00    -0.033 A 
ATOM     28  C   UNL     1       7.495  33.672  19.389  0.00  0.00    +0.005 A 
ATOM     29  C   UNL     1       8.164  32.454  19.641  0.00  0.00    +0.013 A 
BRANCH  18  19
ATOM     19  C   UNL     1       5.407  35.143  19.182  0.00  0.00    +0.119 C 
BRANCH  19  20
ATOM     20  N   UNL     1       5.250  36.104  20.315  0.00  0.00    -0.302 NA
ATOM     21  C   UNL     1       3.965  35.850  21.109  0.00  0.00    +0.066 C 
ATOM     22  C   UNL     1       3.828  36.849  22.303  0.00  0.00    -0.064 C 
ATOM     23  N   UNL     1       3.863  38.283  21.772  0.00  0.00    +0.379 N 
ATOM     24  C   UNL     1       3.676  39.224  22.886  0.00  0.00    -0.096 C 
ATOM     25  H   UNL     1       3.000  38.407  21.076  0.00  0.00    -0.082 HD
ATOM     26  C   UNL     1       5.136  38.543  20.979  0.00  0.00    -0.064 C 
ATOM     27  C   UNL     1       5.277  37.526  19.812  0.00  0.00    +0.066 C 
ENDBRANCH  19  20
ENDBRANCH  18  19
ENDBRANCH  14  15
ENDBRANCH  12  13
TORSDOF 6
ENDMDL
MODEL 5
REMARK VINA RESULT:      -8.5      2.108     12.390
REMARK  Name = C:\Users\Docking\Desktop\test protocol\1iep_ligandH.pdb
REMARK  8 active torsions:
REMARK  status: ('A' for Active; 'I' for Inactive)
REMARK    1  A    between atoms: _5  and  _11
REMARK    2  A    between atoms: _19  and  _21
REMARK    3  A    between atoms: _22  and  _66
REMARK    4  A    between atoms: _27  and  _30
REMARK    5  A    between atoms: _32  and  _33
REMARK    6  A    between atoms: _38  and  _43
REMARK    7  A    between atoms: _43  and  _46
REMARK    8  A    between atoms: _53  and  _55
REMARK                            x       y       z     vdW  Elec       q    Type
REMARK                         _______ _______ _______ _____ _____    ______ ____
ROOT
ATOM     10  C   UNL     1      18.336  24.569  13.998  0.00  0.00    +0.038 A 
ATOM     11  C   UNL     1      17.304  24.614  14.970  0.00  0.00    +0.047 A 
ATOM     12  C   UNL     1      15.923  24.325  14.616  0.00  0.00    +0.035 A 
ATOM     32  C   UNL     1      15.629  23.992  13.261  0.00  0.00    +0.024 A 
ATOM     33  C   UNL     1      16.666  23.944  12.260  0.00  0.00    +0.007 A 
ATOM     34  C   UNL     1      18.029  24.230  12.604  0.00  0.00    -0.029 A 
ATOM     35  C   UNL     1      19.098  24.169  11.488  0.00  0.00    +0.045 C 
ENDROOT
BRANCH  10   9
ATOM      4  C   UNL     1      21.895  27.648  14.942  0.00  0.00    +0.077 A 
ATOM      5  C   UNL     1      21.088  28.781  14.591  0.00  0.00    +0.048 A 
ATOM      6  C   UNL     1      19.765  28.528  14.166  0.00  0.00    +0.116 A 
ATOM      7  N   UNL     1      19.294  27.234  14.101  0.00  0.00    -0.223 NA
ATOM      8  C   UNL     1      20.100  26.164  14.445  0.00  0.00    +0.220 A 
ATOM      9  N   UNL     1      19.645  24.855  14.394  0.00  0.00    -0.283 N 
ATOM     36  H   UNL     1      20.272  24.093  14.649  0.00  0.00    +0.155 HD
ATOM     37  N   UNL     1      21.368  26.379  14.853  0.00  0.00    -0.214 NA
BRANCH   4   3
ATOM      1  C   UNL     1      25.415  26.780  16.412  0.00  0.00    +0.020 A 
ATOM      2  C   UNL     1      24.047  26.626  15.972  0.00  0.00    +0.013 A 
ATOM      3  C   UNL     1      23.313  27.753  15.413  0.00  0.00    +0.019 A 
ATOM     38  C   UNL     1      23.997  29.034  15.310  0.00  0.00    +0.120 A 
ATOM     39  N   UNL     1      25.314  29.153  15.743  0.00  0.00    -0.263 NA
ATOM     40  C   UNL     1      26.030  28.075  16.285  0.00  0.00    +0.111 A 
ENDBRANCH   4   3
ENDBRANCH  10   9
BRANCH  12  13
ATOM     13  N   UNL     1      14.833  24.362  15.558  0.00  0.00    -0.281 N 
ATOM     14  C   UNL     1      14.445  23.377  16.451  0.00  0.00    +0.248 C 
ATOM     30  O   UNL     1      14.849  22.223  16.426  0.00  0.00    -0.270 OA
ATOM     31  H   UNL     1      14.279  25.219  15.567  0.00  0.00    +0.155 HD
BRANCH  14  15
ATOM     15  C   UNL     1      13.455  23.718  17.517  0.00  0.00    +0.037 A 
ATOM     16  C   UNL     1      13.889  24.155  18.846  0.00  0.00    +0.013 A 
ATOM     17  C   UNL     1      12.913  24.462  19.862  0.00  0.00    +0.005 A 
ATOM     18  C   UNL     1      11.492  24.333  19.551  0.00  0.00    -0.033 A 
ATOM     28  C   UNL     1      11.088  23.901  18.223  0.00  0.00    +0.005 A 
ATOM     29  C   UNL     1      12.042  23.599  17.225  0.00  0.00    +0.013 A 
BRANCH  18  19
ATOM     19  C   UNL     1      10.382  24.618  20.580  0.00  0.00    +0.119 C 
BRANCH  19  20
ATOM     20  N   UNL     1       9.627  25.899  20.434  0.00  0.00    -0.302 NA
ATOM     21  C   UNL     1      10.552  27.118  20.474  0.00  0.00    +0.066 C 
ATOM     22  C   UNL     1       9.749  28.448  20.297  0.00  0.00    -0.064 C 
ATOM     23  N   UNL     1       8.680  28.543  21.387  0.00  0.00    +0.379 N 
ATOM     24  C   UNL     1       7.961  29.819  21.259  0.00  0.00    -0.096 C 
ATOM     25  H   UNL     1       9.201  28.546  22.373  0.00  0.00    -0.082 HD
ATOM     26  C   UNL     1       7.757  27.333  21.356  0.00  0.00    -0.064 C 
ATOM     27  C   UNL     1       8.569  26.016  21.503  0.00  0.00    +0.066 C 
ENDBRANCH  19  20
ENDBRANCH  18  19
ENDBRANCH  14  15
ENDBRANCH  12  13
TORSDOF 6
ENDMDL
