MODEL 1
REMARK VINA RESULT:      -8.7      0.000      0.000
REMARK  Name = C:\Users\Docking\Desktop\test protocol\1iep_ligandH.pdb
REMARK  8 active torsions:
REMARK  status: ('A' for Active; 'I' for Inactive)
REMARK    1  A    between atoms: _5  and  _11
REMARK    2  A    between atoms: _19  and  _21
REMARK    3  A    between atoms: _22  and  _66
REMARK    4  A    between atoms: _27  and  _30
REMARK    5  A    between atoms: _32  and  _33
REMARK    6  A    between atoms: _38  and  _43
REMARK    7  A    between atoms: _43  and  _46
REMARK    8  A    between atoms: _53  and  _55
REMARK                            x       y       z     vdW  Elec       q    Type
REMARK                         _______ _______ _______ _____ _____    ______ ____
ROOT
ATOM     10  C   UNL     1       4.858  -1.608  22.237  0.00  0.00    +0.038 A 
ATOM     11  C   UNL     1       4.359  -1.697  20.912  0.00  0.00    +0.047 A 
ATOM     12  C   UNL     1       4.925  -2.636  19.956  0.00  0.00    +0.035 A 
ATOM     32  C   UNL     1       5.998  -3.472  20.385  0.00  0.00    +0.024 A 
ATOM     33  C   UNL     1       6.518  -3.394  21.727  0.00  0.00    +0.007 A 
ATOM     34  C   UNL     1       5.965  -2.468  22.674  0.00  0.00    -0.029 A 
ATOM     35  C   UNL     1       6.567  -2.423  24.098  0.00  0.00    +0.045 C 
ENDROOT
BRANCH  10   9
ATOM      4  C   UNL     1       4.914   2.513  24.696  0.00  0.00    +0.077 A 
ATOM      5  C   UNL     1       6.223   2.851  24.215  0.00  0.00    +0.048 A 
ATOM      6  C   UNL     1       6.851   1.934  23.343  0.00  0.00    +0.116 A 
ATOM      7  N   UNL     1       6.207   0.769  22.984  0.00  0.00    -0.223 NA
ATOM      8  C   UNL     1       4.946   0.473  23.467  0.00  0.00    +0.220 A 
ATOM      9  N   UNL     1       4.277  -0.689  23.113  0.00  0.00    -0.283 N 
ATOM     36  H   UNL     1       3.351  -0.874  23.497  0.00  0.00    +0.155 HD
ATOM     37  N   UNL     1       4.326   1.332  24.303  0.00  0.00    -0.214 NA
BRANCH   4   3
ATOM      1  C   UNL     1       3.894   4.872  27.645  0.00  0.00    +0.020 A 
ATOM      2  C   UNL     1       4.704   4.043  26.783  0.00  0.00    +0.013 A 
ATOM      3  C   UNL     1       4.121   3.382  25.622  0.00  0.00    +0.019 A 
ATOM     38  C   UNL     1       2.704   3.583  25.359  0.00  0.00    +0.120 A 
ATOM     39  N   UNL     1       1.948   4.385  26.208  0.00  0.00    -0.263 NA
ATOM     40  C   UNL     1       2.498   5.025  27.329  0.00  0.00    +0.111 A 
ENDBRANCH   4   3
ENDBRANCH  10   9
BRANCH  12  13
ATOM     13  N   UNL     1       4.466  -2.765  18.596  0.00  0.00    -0.281 N 
ATOM     14  C   UNL     1       3.725  -3.796  18.042  0.00  0.00    +0.248 C 
ATOM     30  O   UNL     1       3.526  -4.873  18.584  0.00  0.00    -0.270 OA
ATOM     31  H   UNL     1       4.717  -2.004  17.965  0.00  0.00    +0.155 HD
BRANCH  14  15
ATOM     15  C   UNL     1       3.131  -3.609  16.683  0.00  0.00    +0.037 A 
ATOM     16  C   UNL     1       3.765  -2.738  15.690  0.00  0.00    +0.013 A 
ATOM     17  C   UNL     1       3.162  -2.562  14.393  0.00  0.00    +0.005 A 
ATOM     18  C   UNL     1       1.918  -3.261  14.080  0.00  0.00    -0.033 A 
ATOM     28  C   UNL     1       1.313  -4.123  15.082  0.00  0.00    +0.005 A 
ATOM     29  C   UNL     1       1.900  -4.297  16.355  0.00  0.00    +0.013 A 
BRANCH  18  19
ATOM     19  C   UNL     1       1.193  -3.115  12.729  0.00  0.00    +0.119 C 
BRANCH  19  20
ATOM     20  N   UNL     1       1.959  -3.478  11.500  0.00  0.00    -0.302 NA
ATOM     21  C   UNL     1       1.050  -3.614  10.275  0.00  0.00    +0.066 C 
ATOM     22  C   UNL     1       1.870  -3.972   8.994  0.00  0.00    -0.064 C 
ATOM     23  N   UNL     1       2.650  -5.266   9.236  0.00  0.00    +0.379 N 
ATOM     24  C   UNL     1       3.377  -5.637   8.013  0.00  0.00    -0.096 C 
ATOM     25  H   UNL     1       1.909  -6.072   9.447  0.00  0.00    -0.082 HD
ATOM     26  C   UNL     1       3.555  -5.141  10.453  0.00  0.00    -0.064 C 
ATOM     27  C   UNL     1       2.733  -4.755  11.715  0.00  0.00    +0.066 C 
ENDBRANCH  19  20
ENDBRANCH  18  19
ENDBRANCH  14  15
ENDBRANCH  12  13
TORSDOF 6
ENDMDL
MODEL 2
REMARK VINA RESULT:      -8.5      1.832      2.950
REMARK  Name = C:\Users\Docking\Desktop\test protocol\1iep_ligandH.pdb
REMARK  8 active torsions:
REMARK  status: ('A' for Active; 'I' for Inactive)
REMARK    1  A    between atoms: _5  and  _11
REMARK    2  A    between atoms: _19  and  _21
REMARK    3  A    between atoms: _22  and  _66
REMARK    4  A    between atoms: _27  and  _30
REMARK    5  A    between atoms: _32  and  _33
REMARK    6  A    between atoms: _38  and  _43
REMARK    7  A    between atoms: _43  and  _46
REMARK    8  A    between atoms: _53  and  _55
REMARK                            x       y       z     vdW  Elec       q    Type
REMARK                         _______ _______ _______ _____ _____    ______ ____
ROOT
ATOM     10  C   UNL     1       4.968  -1.563  22.326  0.00  0.00    +0.038 A 
ATOM     11  C   UNL     1       4.616  -1.599  20.953  0.00  0.00    +0.047 A 
ATOM     12  C   UNL     1       5.242  -2.542  20.039  0.00  0.00    +0.035 A 
ATOM     32  C   UNL     1       6.222  -3.437  20.560  0.00  0.00    +0.024 A 
ATOM     33  C   UNL     1       6.592  -3.414  21.953  0.00  0.00    +0.007 A 
ATOM     34  C   UNL     1       5.980  -2.484  22.858  0.00  0.00    -0.029 A 
ATOM     35  C   UNL     1       6.421  -2.500  24.340  0.00  0.00    +0.045 C 
ENDROOT
BRANCH  10   9
ATOM      4  C   UNL     1       4.889   2.561  24.780  0.00  0.00    +0.077 A 
ATOM      5  C   UNL     1       6.232   2.885  24.394  0.00  0.00    +0.048 A 
ATOM      6  C   UNL     1       6.911   1.960  23.569  0.00  0.00    +0.116 A 
ATOM      7  N   UNL     1       6.284   0.802  23.166  0.00  0.00    -0.223 NA
ATOM      8  C   UNL     1       4.988   0.519  23.558  0.00  0.00    +0.220 A 
ATOM      9  N   UNL     1       4.335  -0.637  23.158  0.00  0.00    -0.283 N 
ATOM     36  H   UNL     1       3.382  -0.813  23.475  0.00  0.00    +0.155 HD
ATOM     37  N   UNL     1       4.319   1.385  24.347  0.00  0.00    -0.214 NA
BRANCH   4   3
ATOM      1  C   UNL     1       1.844   4.509  26.274  0.00  0.00    +0.020 A 
ATOM      2  C   UNL     1       2.618   3.651  25.407  0.00  0.00    +0.013 A 
ATOM      3  C   UNL     1       4.040   3.438  25.647  0.00  0.00    +0.019 A 
ATOM     38  C   UNL     1       4.652   4.112  26.782  0.00  0.00    +0.120 A 
ATOM     39  N   UNL     1       3.881   4.933  27.599  0.00  0.00    -0.263 NA
ATOM     40  C   UNL     1       2.513   5.147  27.377  0.00  0.00    +0.111 A 
ENDBRANCH   4   3
ENDBRANCH  10   9
BRANCH  12  13
ATOM     13  N   UNL     1       4.931  -2.619  18.634  0.00  0.00    -0.281 N 
ATOM     14  C   UNL     1       4.276  -3.637  17.961  0.00  0.00    +0.248 C 
ATOM     30  O   UNL     1       4.044  -4.740  18.432  0.00  0.00    -0.270 OA
ATOM     31  H   UNL     1       5.231  -1.826  18.065  0.00  0.00    +0.155 HD
BRANCH  14  15
ATOM     15  C   UNL     1       3.824  -3.400  16.556  0.00  0.00    +0.037 A 
ATOM     16  C   UNL     1       2.410  -3.494  16.186  0.00  0.00    +0.013 A 
ATOM     17  C   UNL     1       2.003  -3.278  14.820  0.00  0.00    +0.005 A 
ATOM     18  C   UNL     1       3.014  -2.963  13.813  0.00  0.00    -0.033 A 
ATOM     28  C   UNL     1       4.410  -2.871  14.208  0.00  0.00    +0.005 A 
ATOM     29  C   UNL     1       4.812  -3.083  15.546  0.00  0.00    +0.013 A 
BRANCH  18  19
ATOM     19  C   UNL     1       2.674  -2.738  12.328  0.00  0.00    +0.119 C 
BRANCH  19  20
ATOM     20  N   UNL     1       2.331  -1.346  11.909  0.00  0.00    -0.302 NA
ATOM     21  C   UNL     1       2.766  -0.309  12.948  0.00  0.00    +0.066 C 
ATOM     22  C   UNL     1       2.419   1.143  12.483  0.00  0.00    -0.064 C 
ATOM     23  N   UNL     1       0.917   1.244  12.213  0.00  0.00    +0.379 N 
ATOM     24  C   UNL     1       0.579   2.623  11.832  0.00  0.00    -0.096 C 
ATOM     25  H   UNL     1       0.386   1.016  13.167  0.00  0.00    -0.082 HD
ATOM     26  C   UNL     1       0.475   0.214  11.183  0.00  0.00    -0.064 C 
ATOM     27  C   UNL     1       0.851  -1.223  11.641  0.00  0.00    +0.066 C 
ENDBRANCH  19  20
ENDBRANCH  18  19
ENDBRANCH  14  15
ENDBRANCH  12  13
TORSDOF 6
ENDMDL
MODEL 3
REMARK VINA RESULT:      -8.1      5.376      8.632
REMARK  Name = C:\Users\Docking\Desktop\test protocol\1iep_ligandH.pdb
REMARK  8 active torsions:
REMARK  status: ('A' for Active; 'I' for Inactive)
REMARK    1  A    between atoms: _5  and  _11
REMARK    2  A    between atoms: _19  and  _21
REMARK    3  A    between atoms: _22  and  _66
REMARK    4  A    between atoms: _27  and  _30
REMARK    5  A    between atoms: _32  and  _33
REMARK    6  A    between atoms: _38  and  _43
REMARK    7  A    between atoms: _43  and  _46
REMARK    8  A    between atoms: _53  and  _55
REMARK                            x       y       z     vdW  Elec       q    Type
REMARK                         _______ _______ _______ _____ _____    ______ ____
ROOT
ATOM     10  C   UNL     1       3.298  -3.883  14.981  0.00  0.00    +0.038 A 
ATOM     11  C   UNL     1       2.739  -2.664  14.521  0.00  0.00    +0.047 A 
ATOM     12  C   UNL     1       2.619  -2.380  13.099  0.00  0.00    +0.035 A 
ATOM     32  C   UNL     1       3.077  -3.362  12.173  0.00  0.00    +0.024 A 
ATOM     33  C   UNL     1       3.648  -4.607  12.623  0.00  0.00    +0.007 A 
ATOM     34  C   UNL     1       3.771  -4.891  14.025  0.00  0.00    -0.029 A 
ATOM     35  C   UNL     1       4.398  -6.240  14.450  0.00  0.00    +0.045 C 
ENDROOT
BRANCH  10   9
ATOM      4  C   UNL     1       5.128  -2.916  19.311  0.00  0.00    +0.077 A 
ATOM      5  C   UNL     1       5.998  -1.904  18.783  0.00  0.00    +0.048 A 
ATOM      6  C   UNL     1       5.948  -1.669  17.390  0.00  0.00    +0.116 A 
ATOM      7  N   UNL     1       5.089  -2.396  16.595  0.00  0.00    -0.223 NA
ATOM      8  C   UNL     1       4.265  -3.366  17.137  0.00  0.00    +0.220 A 
ATOM      9  N   UNL     1       3.388  -4.104  16.357  0.00  0.00    -0.283 N 
ATOM     36  H   UNL     1       2.802  -4.815  16.793  0.00  0.00    +0.155 HD
ATOM     37  N   UNL     1       4.295  -3.611  18.463  0.00  0.00    -0.214 NA
BRANCH   4   3
ATOM      1  C   UNL     1       5.038  -4.952  22.650  0.00  0.00    +0.020 A 
ATOM      2  C   UNL     1       5.104  -4.656  21.237  0.00  0.00    +0.013 A 
ATOM      3  C   UNL     1       5.063  -3.279  20.762  0.00  0.00    +0.019 A 
ATOM     38  C   UNL     1       4.955  -2.216  21.750  0.00  0.00    +0.120 A 
ATOM     39  N   UNL     1       4.891  -2.531  23.104  0.00  0.00    -0.263 NA
ATOM     40  C   UNL     1       4.928  -3.853  23.573  0.00  0.00    +0.111 A 
ENDBRANCH   4   3
ENDBRANCH  10   9
BRANCH  12  13
ATOM     13  N   UNL     1       2.068  -1.156  12.573  0.00  0.00    -0.281 N 
ATOM     14  C   UNL     1       2.478   0.142  12.829  0.00  0.00    +0.248 C 
ATOM     30  O   UNL     1       3.251   0.460  13.721  0.00  0.00    -0.270 OA
ATOM     31  H   UNL     1       1.279  -1.259  11.934  0.00  0.00    +0.155 HD
BRANCH  14  15
ATOM     15  C   UNL     1       1.943   1.250  11.980  0.00  0.00    +0.037 A 
ATOM     16  C   UNL     1       0.582   1.201  11.437  0.00  0.00    +0.013 A 
ATOM     17  C   UNL     1       0.096   2.275  10.607  0.00  0.00    +0.005 A 
ATOM     18  C   UNL     1       0.972   3.407  10.315  0.00  0.00    -0.033 A 
ATOM     28  C   UNL     1       2.315   3.432  10.871  0.00  0.00    +0.005 A 
ATOM     29  C   UNL     1       2.795   2.381  11.684  0.00  0.00    +0.013 A 
BRANCH  18  19
ATOM     19  C   UNL     1       0.544   4.587   9.422  0.00  0.00    +0.119 C 
BRANCH  19  20
ATOM     20  N   UNL     1       0.731   4.431   7.949  0.00  0.00    -0.302 NA
ATOM     21  C   UNL     1       2.174   4.714   7.520  0.00  0.00    +0.066 C 
ATOM     22  C   UNL     1       2.357   4.525   5.979  0.00  0.00    -0.064 C 
ATOM     23  N   UNL     1       1.383   5.440   5.236  0.00  0.00    +0.379 N 
ATOM     24  C   UNL     1       1.593   5.307   3.787  0.00  0.00    -0.096 C 
ATOM     25  H   UNL     1       1.625   6.491   5.518  0.00  0.00    -0.082 HD
ATOM     26  C   UNL     1      -0.054   5.168   5.658  0.00  0.00    -0.064 C 
ATOM     27  C   UNL     1      -0.219   5.330   7.195  0.00  0.00    +0.066 C 
ENDBRANCH  19  20
ENDBRANCH  18  19
ENDBRANCH  14  15
ENDBRANCH  12  13
TORSDOF 6
ENDMDL
MODEL 4
REMARK VINA RESULT:      -8.1      4.288     12.550
REMARK  Name = C:\Users\Docking\Desktop\test protocol\1iep_ligandH.pdb
REMARK  8 active torsions:
REMARK  status: ('A' for Active; 'I' for Inactive)
REMARK    1  A    between atoms: _5  and  _11
REMARK    2  A    between atoms: _19  and  _21
REMARK    3  A    between atoms: _22  and  _66
REMARK    4  A    between atoms: _27  and  _30
REMARK    5  A    between atoms: _32  and  _33
REMARK    6  A    between atoms: _38  and  _43
REMARK    7  A    between atoms: _43  and  _46
REMARK    8  A    between atoms: _53  and  _55
REMARK                            x       y       z     vdW  Elec       q    Type
REMARK                         _______ _______ _______ _____ _____    ______ ____
ROOT
ATOM     10  C   UNL     1       2.129  -1.571  12.491  0.00  0.00    +0.038 A 
ATOM     11  C   UNL     1       2.750  -1.523  13.765  0.00  0.00    +0.047 A 
ATOM     12  C   UNL     1       2.486  -2.541  14.770  0.00  0.00    +0.035 A 
ATOM     32  C   UNL     1       1.584  -3.595  14.443  0.00  0.00    +0.024 A 
ATOM     33  C   UNL     1       0.943  -3.659  13.153  0.00  0.00    +0.007 A 
ATOM     34  C   UNL     1       1.198  -2.656  12.159  0.00  0.00    -0.029 A 
ATOM     35  C   UNL     1       0.477  -2.771  10.795  0.00  0.00    +0.045 C 
ENDROOT
BRANCH  10   9
ATOM      4  C   UNL     1       1.308   2.718  10.500  0.00  0.00    +0.077 A 
ATOM      5  C   UNL     1       0.190   2.970  11.361  0.00  0.00    +0.048 A 
ATOM      6  C   UNL     1      -0.146   1.968  12.299  0.00  0.00    +0.116 A 
ATOM      7  N   UNL     1       0.589   0.804  12.361  0.00  0.00    -0.223 NA
ATOM      8  C   UNL     1       1.661   0.592  11.513  0.00  0.00    +0.220 A 
ATOM      9  N   UNL     1       2.419  -0.568  11.564  0.00  0.00    -0.283 N 
ATOM     36  H   UNL     1       3.198  -0.689  10.917  0.00  0.00    +0.155 HD
ATOM     37  N   UNL     1       2.001   1.533  10.609  0.00  0.00    -0.214 NA
BRANCH   4   3
ATOM      1  C   UNL     1       1.400   5.402   7.656  0.00  0.00    +0.020 A 
ATOM      2  C   UNL     1       0.884   4.485   8.646  0.00  0.00    +0.013 A 
ATOM      3  C   UNL     1       1.788   3.683   9.460  0.00  0.00    +0.019 A 
ATOM     38  C   UNL     1       3.220   3.834   9.246  0.00  0.00    +0.120 A 
ATOM     39  N   UNL     1       3.687   4.724   8.284  0.00  0.00    -0.263 NA
ATOM     40  C   UNL     1       2.826   5.500   7.493  0.00  0.00    +0.111 A 
ENDBRANCH   4   3
ENDBRANCH  10   9
BRANCH  12  13
ATOM     13  N   UNL     1       3.081  -2.540  16.083  0.00  0.00    -0.281 N 
ATOM     14  C   UNL     1       4.261  -3.146  16.484  0.00  0.00    +0.248 C 
ATOM     30  O   UNL     1       4.878  -3.964  15.819  0.00  0.00    -0.270 OA
ATOM     31  H   UNL     1       2.571  -2.030  16.805  0.00  0.00    +0.155 HD
BRANCH  14  15
ATOM     15  C   UNL     1       4.830  -2.803  17.823  0.00  0.00    +0.037 A 
ATOM     16  C   UNL     1       5.975  -1.899  17.953  0.00  0.00    +0.013 A 
ATOM     17  C   UNL     1       6.515  -1.599  19.256  0.00  0.00    +0.005 A 
ATOM     18  C   UNL     1       5.908  -2.203  20.439  0.00  0.00    -0.033 A 
ATOM     28  C   UNL     1       4.769  -3.093  20.282  0.00  0.00    +0.005 A 
ATOM     29  C   UNL     1       4.238  -3.390  19.007  0.00  0.00    +0.013 A 
BRANCH  18  19
ATOM     19  C   UNL     1       6.432  -1.956  21.867  0.00  0.00    +0.119 C 
BRANCH  19  20
ATOM     20  N   UNL     1       6.354  -0.560  22.391  0.00  0.00    -0.302 NA
ATOM     21  C   UNL     1       6.764  -0.476  23.864  0.00  0.00    +0.066 C 
ATOM     22  C   UNL     1       6.698   0.995  24.391  0.00  0.00    -0.064 C 
ATOM     23  N   UNL     1       5.284   1.543  24.190  0.00  0.00    +0.379 N 
ATOM     24  C   UNL     1       5.204   2.905  24.736  0.00  0.00    -0.096 C 
ATOM     25  H   UNL     1       4.587   0.901  24.776  0.00  0.00    -0.082 HD
ATOM     26  C   UNL     1       4.868   1.460  22.728  0.00  0.00    -0.064 C 
ATOM     27  C   UNL     1       4.965  -0.001  22.207  0.00  0.00    +0.066 C 
ENDBRANCH  19  20
ENDBRANCH  18  19
ENDBRANCH  14  15
ENDBRANCH  12  13
TORSDOF 6
ENDMDL
MODEL 5
REMARK VINA RESULT:      -8.1      4.690     12.214
REMARK  Name = C:\Users\Docking\Desktop\test protocol\1iep_ligandH.pdb
REMARK  8 active torsions:
REMARK  status: ('A' for Active; 'I' for Inactive)
REMARK    1  A    between atoms: _5  and  _11
REMARK    2  A    between atoms: _19  and  _21
REMARK    3  A    between atoms: _22  and  _66
REMARK    4  A    between atoms: _27  and  _30
REMARK    5  A    between atoms: _32  and  _33
REMARK    6  A    between atoms: _38  and  _43
REMARK    7  A    between atoms: _43  and  _46
REMARK    8  A    between atoms: _53  and  _55
REMARK                            x       y       z     vdW  Elec       q    Type
REMARK                         _______ _______ _______ _____ _____    ______ ____
ROOT
ATOM     10  C   UNL     1       6.002  -0.451  14.817  0.00  0.00    +0.038 A 
ATOM     11  C   UNL     1       5.673  -0.651  16.182  0.00  0.00    +0.047 A 
ATOM     12  C   UNL     1       6.440  -1.562  17.016  0.00  0.00    +0.035 A 
ATOM     32  C   UNL     1       7.540  -2.253  16.428  0.00  0.00    +0.024 A 
ATOM     33  C   UNL     1       7.888  -2.063  15.042  0.00  0.00    +0.007 A 
ATOM     34  C   UNL     1       7.133  -1.167  14.214  0.00  0.00    -0.029 A 
ATOM     35  C   UNL     1       7.548  -1.007  12.733  0.00  0.00    +0.045 C 
ENDROOT
BRANCH  10   9
ATOM      4  C   UNL     1       2.148   0.601  12.158  0.00  0.00    +0.077 A 
ATOM      5  C   UNL     1       1.640  -0.737  12.258  0.00  0.00    +0.048 A 
ATOM      6  C   UNL     1       2.405  -1.668  12.997  0.00  0.00    +0.116 A 
ATOM      7  N   UNL     1       3.587  -1.278  13.588  0.00  0.00    -0.223 NA
ATOM      8  C   UNL     1       4.049   0.020  13.470  0.00  0.00    +0.220 A 
ATOM      9  N   UNL     1       5.232   0.436  14.062  0.00  0.00    -0.283 N 
ATOM     36  H   UNL     1       5.542   1.400  13.946  0.00  0.00    +0.155 HD
ATOM     37  N   UNL     1       3.338   0.927  12.768  0.00  0.00    -0.214 NA
BRANCH   4   3
ATOM      1  C   UNL     1      -0.590   2.744  10.366  0.00  0.00    +0.020 A 
ATOM      2  C   UNL     1       0.033   1.658  11.086  0.00  0.00    +0.013 A 
ATOM      3  C   UNL     1       1.453   1.698  11.414  0.00  0.00    +0.019 A 
ATOM     38  C   UNL     1       2.219   2.862  10.996  0.00  0.00    +0.120 A 
ATOM     39  N   UNL     1       1.593   3.893  10.302  0.00  0.00    -0.263 NA
ATOM     40  C   UNL     1       0.228   3.864   9.980  0.00  0.00    +0.111 A 
ENDBRANCH   4   3
ENDBRANCH  10   9
BRANCH  12  13
ATOM     13  N   UNL     1       6.147  -1.811  18.406  0.00  0.00    -0.281 N 
ATOM     14  C   UNL     1       5.228  -2.701  18.937  0.00  0.00    +0.248 C 
ATOM     30  O   UNL     1       4.362  -3.269  18.288  0.00  0.00    -0.270 OA
ATOM     31  H   UNL     1       6.682  -1.264  19.081  0.00  0.00    +0.155 HD
BRANCH  14  15
ATOM     15  C   UNL     1       5.267  -2.992  20.402  0.00  0.00    +0.037 A 
ATOM     16  C   UNL     1       4.892  -1.976  21.389  0.00  0.00    +0.013 A 
ATOM     17  C   UNL     1       4.955  -2.278  22.797  0.00  0.00    +0.005 A 
ATOM     18  C   UNL     1       5.395  -3.603  23.227  0.00  0.00    -0.033 A 
ATOM     28  C   UNL     1       5.756  -4.594  22.226  0.00  0.00    +0.005 A 
ATOM     29  C   UNL     1       5.696  -4.302  20.845  0.00  0.00    +0.013 A 
BRANCH  18  19
ATOM     19  C   UNL     1       5.513  -4.005  24.709  0.00  0.00    +0.119 C 
BRANCH  19  20
ATOM     20  N   UNL     1       6.863  -4.409  25.202  0.00  0.00    -0.302 NA
ATOM     21  C   UNL     1       6.783  -5.217  26.501  0.00  0.00    +0.066 C 
ATOM     22  C   UNL     1       8.203  -5.649  26.991  0.00  0.00    -0.064 C 
ATOM     23  N   UNL     1       9.075  -4.407  27.179  0.00  0.00    +0.379 N 
ATOM     24  C   UNL     1      10.392  -4.806  27.695  0.00  0.00    -0.096 C 
ATOM     25  H   UNL     1       8.588  -3.767  27.952  0.00  0.00    -0.082 HD
ATOM     26  C   UNL     1       9.158  -3.596  25.894  0.00  0.00    -0.064 C 
ATOM     27  C   UNL     1       7.740  -3.196  25.400  0.00  0.00    +0.066 C 
ENDBRANCH  19  20
ENDBRANCH  18  19
ENDBRANCH  14  15
ENDBRANCH  12  13
TORSDOF 6
ENDMDL
