MODEL 1
REMARK VINA RESULT:      -7.8      0.000      0.000
REMARK  Name = C:\Users\Docking\Desktop\test protocol\1iep_ligandH.pdb
REMARK  8 active torsions:
REMARK  status: ('A' for Active; 'I' for Inactive)
REMARK    1  A    between atoms: _5  and  _11
REMARK    2  A    between atoms: _19  and  _21
REMARK    3  A    between atoms: _22  and  _66
REMARK    4  A    between atoms: _27  and  _30
REMARK    5  A    between atoms: _32  and  _33
REMARK    6  A    between atoms: _38  and  _43
REMARK    7  A    between atoms: _43  and  _46
REMARK    8  A    between atoms: _53  and  _55
REMARK                            x       y       z     vdW  Elec       q    Type
REMARK                         _______ _______ _______ _____ _____    ______ ____
ROOT
ATOM     10  C   UNL     1      13.100  -1.890  30.312  0.00  0.00    +0.038 A 
ATOM     11  C   UNL     1      13.400  -3.081  31.022  0.00  0.00    +0.047 A 
ATOM     12  C   UNL     1      14.004  -3.036  32.345  0.00  0.00    +0.035 A 
ATOM     32  C   UNL     1      14.287  -1.761  32.915  0.00  0.00    +0.024 A 
ATOM     33  C   UNL     1      13.990  -0.541  32.207  0.00  0.00    +0.007 A 
ATOM     34  C   UNL     1      13.397  -0.579  30.901  0.00  0.00    -0.029 A 
ATOM     35  C   UNL     1      13.106   0.761  30.185  0.00  0.00    +0.045 C 
ENDROOT
BRANCH  10   9
ATOM      4  C   UNL     1      13.355  -1.791  25.520  0.00  0.00    +0.077 A 
ATOM      5  C   UNL     1      14.756  -1.485  25.542  0.00  0.00    +0.048 A 
ATOM      6  C   UNL     1      15.372  -1.354  26.807  0.00  0.00    +0.116 A 
ATOM      7  N   UNL     1      14.632  -1.520  27.957  0.00  0.00    -0.223 NA
ATOM      8  C   UNL     1      13.282  -1.813  27.901  0.00  0.00    +0.220 A 
ATOM      9  N   UNL     1      12.520  -1.992  29.045  0.00  0.00    -0.283 N 
ATOM     36  H   UNL     1      11.526  -2.200  28.961  0.00  0.00    +0.155 HD
ATOM     37  N   UNL     1      12.670  -1.941  26.705  0.00  0.00    -0.214 NA
BRANCH   4   3
ATOM      1  C   UNL     1      12.084  -3.096  22.059  0.00  0.00    +0.020 A 
ATOM      2  C   UNL     1      12.881  -2.971  23.257  0.00  0.00    +0.013 A 
ATOM      3  C   UNL     1      12.563  -1.963  24.261  0.00  0.00    +0.019 A 
ATOM     38  C   UNL     1      11.422  -1.092  24.021  0.00  0.00    +0.120 A 
ATOM     39  N   UNL     1      10.673  -1.235  22.857  0.00  0.00    -0.263 NA
ATOM     40  C   UNL     1      10.971  -2.200  21.883  0.00  0.00    +0.111 A 
ENDBRANCH   4   3
ENDBRANCH  10   9
BRANCH  12  13
ATOM     13  N   UNL     1      14.338  -4.212  33.110  0.00  0.00    -0.281 N 
ATOM     14  C   UNL     1      13.481  -5.040  33.816  0.00  0.00    +0.248 C 
ATOM     30  O   UNL     1      12.317  -4.773  34.073  0.00  0.00    -0.270 OA
ATOM     31  H   UNL     1      15.326  -4.464  33.134  0.00  0.00    +0.155 HD
BRANCH  14  15
ATOM     15  C   UNL     1      13.996  -6.349  34.321  0.00  0.00    +0.037 A 
ATOM     16  C   UNL     1      14.840  -6.423  35.516  0.00  0.00    +0.013 A 
ATOM     17  C   UNL     1      15.338  -7.697  35.973  0.00  0.00    +0.005 A 
ATOM     18  C   UNL     1      14.990  -8.908  35.233  0.00  0.00    -0.033 A 
ATOM     28  C   UNL     1      14.147  -8.806  34.054  0.00  0.00    +0.005 A 
ATOM     29  C   UNL     1      13.658  -7.560  33.603  0.00  0.00    +0.013 A 
BRANCH  18  19
ATOM     19  C   UNL     1      15.493 -10.307  35.636  0.00  0.00    +0.119 C 
BRANCH  19  20
ATOM     20  N   UNL     1      16.893 -10.666  35.256  0.00  0.00    -0.302 NA
ATOM     21  C   UNL     1      16.942 -11.884  34.330  0.00  0.00    +0.066 C 
ATOM     22  C   UNL     1      18.411 -12.232  33.925  0.00  0.00    -0.064 C 
ATOM     23  N   UNL     1      19.241 -12.476  35.186  0.00  0.00    +0.379 N 
ATOM     24  C   UNL     1      20.609 -12.860  34.807  0.00  0.00    -0.096 C 
ATOM     25  H   UNL     1      18.786 -13.338  35.728  0.00  0.00    -0.082 HD
ATOM     26  C   UNL     1      19.195 -11.271  36.114  0.00  0.00    -0.064 C 
ATOM     27  C   UNL     1      17.729 -10.916  36.487  0.00  0.00    +0.066 C 
ENDBRANCH  19  20
ENDBRANCH  18  19
ENDBRANCH  14  15
ENDBRANCH  12  13
TORSDOF 6
ENDMDL
MODEL 2
REMARK VINA RESULT:      -7.5      5.926     14.225
REMARK  Name = C:\Users\Docking\Desktop\test protocol\1iep_ligandH.pdb
REMARK  8 active torsions:
REMARK  status: ('A' for Active; 'I' for Inactive)
REMARK    1  A    between atoms: _5  and  _11
REMARK    2  A    between atoms: _19  and  _21
REMARK    3  A    between atoms: _22  and  _66
REMARK    4  A    between atoms: _27  and  _30
REMARK    5  A    between atoms: _32  and  _33
REMARK    6  A    between atoms: _38  and  _43
REMARK    7  A    between atoms: _43  and  _46
REMARK    8  A    between atoms: _53  and  _55
REMARK                            x       y       z     vdW  Elec       q    Type
REMARK                         _______ _______ _______ _____ _____    ______ ____
ROOT
ATOM     10  C   UNL     1      12.724  -1.794  27.887  0.00  0.00    +0.038 A 
ATOM     11  C   UNL     1      12.182  -0.486  27.967  0.00  0.00    +0.047 A 
ATOM     12  C   UNL     1      12.229   0.418  26.828  0.00  0.00    +0.035 A 
ATOM     32  C   UNL     1      12.833  -0.043  25.623  0.00  0.00    +0.024 A 
ATOM     33  C   UNL     1      13.390  -1.369  25.524  0.00  0.00    +0.007 A 
ATOM     34  C   UNL     1      13.349  -2.265  26.645  0.00  0.00    -0.029 A 
ATOM     35  C   UNL     1      13.968  -3.674  26.484  0.00  0.00    +0.045 C 
ENDROOT
BRANCH  10   9
ATOM      4  C   UNL     1      13.806  -2.849  32.442  0.00  0.00    +0.077 A 
ATOM      5  C   UNL     1      14.605  -1.667  32.589  0.00  0.00    +0.048 A 
ATOM      6  C   UNL     1      14.718  -0.817  31.465  0.00  0.00    +0.116 A 
ATOM      7  N   UNL     1      14.075  -1.136  30.289  0.00  0.00    -0.223 NA
ATOM      8  C   UNL     1      13.314  -2.285  30.181  0.00  0.00    +0.220 A 
ATOM      9  N   UNL     1      12.652  -2.621  29.010  0.00  0.00    -0.283 N 
ATOM     36  H   UNL     1      12.107  -3.482  28.968  0.00  0.00    +0.155 HD
ATOM     37  N   UNL     1      13.192  -3.114  31.239  0.00  0.00    -0.214 NA
BRANCH   4   3
ATOM      1  C   UNL     1      14.129  -5.989  34.753  0.00  0.00    +0.020 A 
ATOM      2  C   UNL     1      14.380  -5.061  33.674  0.00  0.00    +0.013 A 
ATOM      3  C   UNL     1      13.589  -3.844  33.540  0.00  0.00    +0.019 A 
ATOM     38  C   UNL     1      12.544  -3.594  34.521  0.00  0.00    +0.120 A 
ATOM     39  N   UNL     1      12.325  -4.507  35.548  0.00  0.00    -0.263 NA
ATOM     40  C   UNL     1      13.078  -5.682  35.687  0.00  0.00    +0.111 A 
ENDBRANCH   4   3
ENDBRANCH  10   9
BRANCH  12  13
ATOM     13  N   UNL     1      11.702   1.760  26.853  0.00  0.00    -0.281 N 
ATOM     14  C   UNL     1      10.386   2.156  27.028  0.00  0.00    +0.248 C 
ATOM     30  O   UNL     1       9.425   1.402  26.977  0.00  0.00    -0.270 OA
ATOM     31  H   UNL     1      12.382   2.510  26.726  0.00  0.00    +0.155 HD
BRANCH  14  15
ATOM     15  C   UNL     1      10.093   3.599  27.283  0.00  0.00    +0.037 A 
ATOM     16  C   UNL     1       9.235   4.016  28.395  0.00  0.00    +0.013 A 
ATOM     17  C   UNL     1       8.955   5.414  28.608  0.00  0.00    +0.005 A 
ATOM     18  C   UNL     1       9.536   6.406  27.707  0.00  0.00    -0.033 A 
ATOM     28  C   UNL     1      10.388   5.965  26.615  0.00  0.00    +0.005 A 
ATOM     29  C   UNL     1      10.664   4.596  26.402  0.00  0.00    +0.013 A 
BRANCH  18  19
ATOM     19  C   UNL     1       9.274   7.917  27.846  0.00  0.00    +0.119 C 
BRANCH  19  20
ATOM     20  N   UNL     1       8.932   8.429  29.206  0.00  0.00    -0.302 NA
ATOM     21  C   UNL     1       7.901   9.560  29.152  0.00  0.00    +0.066 C 
ATOM     22  C   UNL     1       7.538  10.069  30.585  0.00  0.00    -0.064 C 
ATOM     23  N   UNL     1       8.811  10.530  31.297  0.00  0.00    +0.379 N 
ATOM     24  C   UNL     1       8.466  11.063  32.623  0.00  0.00    -0.096 C 
ATOM     25  H   UNL     1       9.248  11.364  30.701  0.00  0.00    -0.082 HD
ATOM     26  C   UNL     1       9.843   9.413  31.353  0.00  0.00    -0.064 C 
ATOM     27  C   UNL     1      10.174   8.894  29.926  0.00  0.00    +0.066 C 
ENDBRANCH  19  20
ENDBRANCH  18  19
ENDBRANCH  14  15
ENDBRANCH  12  13
TORSDOF 6
ENDMDL
MODEL 3
REMARK VINA RESULT:      -7.5      1.711     12.140
REMARK  Name = C:\Users\Docking\Desktop\test protocol\1iep_ligandH.pdb
REMARK  8 active torsions:
REMARK  status: ('A' for Active; 'I' for Inactive)
REMARK    1  A    between atoms: _5  and  _11
REMARK    2  A    between atoms: _19  and  _21
REMARK    3  A    between atoms: _22  and  _66
REMARK    4  A    between atoms: _27  and  _30
REMARK    5  A    between atoms: _32  and  _33
REMARK    6  A    between atoms: _38  and  _43
REMARK    7  A    between atoms: _43  and  _46
REMARK    8  A    between atoms: _53  and  _55
REMARK                            x       y       z     vdW  Elec       q    Type
REMARK                         _______ _______ _______ _____ _____    ______ ____
ROOT
ATOM     10  C   UNL     1      14.116  -6.388  35.081  0.00  0.00    +0.038 A 
ATOM     11  C   UNL     1      14.115  -5.619  33.889  0.00  0.00    +0.047 A 
ATOM     12  C   UNL     1      13.136  -4.565  33.675  0.00  0.00    +0.035 A 
ATOM     32  C   UNL     1      12.174  -4.318  34.698  0.00  0.00    +0.024 A 
ATOM     33  C   UNL     1      12.160  -5.090  35.915  0.00  0.00    +0.007 A 
ATOM     34  C   UNL     1      13.122  -6.133  36.131  0.00  0.00    -0.029 A 
ATOM     35  C   UNL     1      13.057  -6.933  37.452  0.00  0.00    +0.045 C 
ENDROOT
BRANCH  10   9
ATOM      4  C   UNL     1      15.587 -10.941  34.704  0.00  0.00    +0.077 A 
ATOM      5  C   UNL     1      14.321 -11.369  34.182  0.00  0.00    +0.048 A 
ATOM      6  C   UNL     1      13.315 -10.387  34.033  0.00  0.00    +0.116 A 
ATOM      7  N   UNL     1      13.569  -9.078  34.382  0.00  0.00    -0.223 NA
ATOM      8  C   UNL     1      14.800  -8.700  34.884  0.00  0.00    +0.220 A 
ATOM      9  N   UNL     1      15.079  -7.388  35.234  0.00  0.00    -0.283 N 
ATOM     36  H   UNL     1      15.998  -7.150  35.608  0.00  0.00    +0.155 HD
ATOM     37  N   UNL     1      15.776  -9.618  35.037  0.00  0.00    -0.214 NA
BRANCH   4   3
ATOM      1  C   UNL     1      19.009 -12.789  34.286  0.00  0.00    +0.020 A 
ATOM      2  C   UNL     1      17.912 -11.883  34.036  0.00  0.00    +0.013 A 
ATOM      3  C   UNL     1      16.750 -11.859  34.916  0.00  0.00    +0.019 A 
ATOM     38  C   UNL     1      16.730 -12.772  36.049  0.00  0.00    +0.120 A 
ATOM     39  N   UNL     1      17.800 -13.635  36.263  0.00  0.00    -0.263 NA
ATOM     40  C   UNL     1      18.923 -13.668  35.423  0.00  0.00    +0.111 A 
ENDBRANCH   4   3
ENDBRANCH  10   9
BRANCH  12  13
ATOM     13  N   UNL     1      13.080  -3.757  32.482  0.00  0.00    -0.281 N 
ATOM     14  C   UNL     1      13.695  -2.538  32.249  0.00  0.00    +0.248 C 
ATOM     30  O   UNL     1      14.216  -1.850  33.115  0.00  0.00    -0.270 OA
ATOM     31  H   UNL     1      12.519  -4.130  31.715  0.00  0.00    +0.155 HD
BRANCH  14  15
ATOM     15  C   UNL     1      13.722  -1.997  30.856  0.00  0.00    +0.037 A 
ATOM     16  C   UNL     1      14.072  -0.599  30.590  0.00  0.00    +0.013 A 
ATOM     17  C   UNL     1      14.074  -0.099  29.238  0.00  0.00    +0.005 A 
ATOM     18  C   UNL     1      13.726  -0.999  28.141  0.00  0.00    -0.033 A 
ATOM     28  C   UNL     1      13.388  -2.382  28.433  0.00  0.00    +0.005 A 
ATOM     29  C   UNL     1      13.383  -2.875  29.757  0.00  0.00    +0.013 A 
BRANCH  18  19
ATOM     19  C   UNL     1      13.682  -0.545  26.670  0.00  0.00    +0.119 C 
BRANCH  19  20
ATOM     20  N   UNL     1      12.904  -1.391  25.717  0.00  0.00    -0.302 NA
ATOM     21  C   UNL     1      13.816  -2.222  24.809  0.00  0.00    +0.066 C 
ATOM     22  C   UNL     1      12.985  -3.118  23.834  0.00  0.00    -0.064 C 
ATOM     23  N   UNL     1      12.053  -2.234  23.003  0.00  0.00    +0.379 N 
ATOM     24  C   UNL     1      11.313  -3.068  22.044  0.00  0.00    -0.096 C 
ATOM     25  H   UNL     1      12.688  -1.529  22.418  0.00  0.00    -0.082 HD
ATOM     26  C   UNL     1      11.144  -1.403  23.897  0.00  0.00    -0.064 C 
ATOM     27  C   UNL     1      11.979  -0.539  24.883  0.00  0.00    +0.066 C 
ENDBRANCH  19  20
ENDBRANCH  18  19
ENDBRANCH  14  15
ENDBRANCH  12  13
TORSDOF 6
ENDMDL
MODEL 4
REMARK VINA RESULT:      -7.5      1.011      1.596
REMARK  Name = C:\Users\Docking\Desktop\test protocol\1iep_ligandH.pdb
REMARK  8 active torsions:
REMARK  status: ('A' for Active; 'I' for Inactive)
REMARK    1  A    between atoms: _5  and  _11
REMARK    2  A    between atoms: _19  and  _21
REMARK    3  A    between atoms: _22  and  _66
REMARK    4  A    between atoms: _27  and  _30
REMARK    5  A    between atoms: _32  and  _33
REMARK    6  A    between atoms: _38  and  _43
REMARK    7  A    between atoms: _43  and  _46
REMARK    8  A    between atoms: _53  and  _55
REMARK                            x       y       z     vdW  Elec       q    Type
REMARK                         _______ _______ _______ _____ _____    ______ ____
ROOT
ATOM     10  C   UNL     1      13.137  -1.893  30.333  0.00  0.00    +0.038 A 
ATOM     11  C   UNL     1      13.364  -3.128  30.991  0.00  0.00    +0.047 A 
ATOM     12  C   UNL     1      14.029  -3.180  32.284  0.00  0.00    +0.035 A 
ATOM     32  C   UNL     1      14.447  -1.954  32.879  0.00  0.00    +0.024 A 
ATOM     33  C   UNL     1      14.225  -0.690  32.223  0.00  0.00    +0.007 A 
ATOM     34  C   UNL     1      13.572  -0.632  30.946  0.00  0.00    -0.029 A 
ATOM     35  C   UNL     1      13.366   0.751  30.286  0.00  0.00    +0.045 C 
ENDROOT
BRANCH  10   9
ATOM      4  C   UNL     1      13.179  -1.609  25.541  0.00  0.00    +0.077 A 
ATOM      5  C   UNL     1      14.598  -1.401  25.507  0.00  0.00    +0.048 A 
ATOM      6  C   UNL     1      15.279  -1.366  26.745  0.00  0.00    +0.116 A 
ATOM      7  N   UNL     1      14.582  -1.529  27.923  0.00  0.00    -0.223 NA
ATOM      8  C   UNL     1      13.214  -1.727  27.920  0.00  0.00    +0.220 A 
ATOM      9  N   UNL     1      12.494  -1.901  29.093  0.00  0.00    -0.283 N 
ATOM     36  H   UNL     1      11.485  -2.036  29.049  0.00  0.00    +0.155 HD
ATOM     37  N   UNL     1      12.540  -1.762  26.752  0.00  0.00    -0.214 NA
BRANCH   4   3
ATOM      1  C   UNL     1      10.407  -0.870  22.882  0.00  0.00    +0.020 A 
ATOM      2  C   UNL     1      11.205  -0.765  24.082  0.00  0.00    +0.013 A 
ATOM      3  C   UNL     1      12.320  -1.674  24.317  0.00  0.00    +0.019 A 
ATOM     38  C   UNL     1      12.603  -2.686  23.310  0.00  0.00    +0.120 A 
ATOM     39  N   UNL     1      11.816  -2.764  22.165  0.00  0.00    -0.263 NA
ATOM     40  C   UNL     1      10.740  -1.896  21.929  0.00  0.00    +0.111 A 
ENDBRANCH   4   3
ENDBRANCH  10   9
BRANCH  12  13
ATOM     13  N   UNL     1      14.294  -4.406  32.997  0.00  0.00    -0.281 N 
ATOM     14  C   UNL     1      13.463  -5.074  33.881  0.00  0.00    +0.248 C 
ATOM     30  O   UNL     1      12.442  -4.603  34.359  0.00  0.00    -0.270 OA
ATOM     31  H   UNL     1      15.205  -4.832  32.829  0.00  0.00    +0.155 HD
BRANCH  14  15
ATOM     15  C   UNL     1      13.826  -6.460  34.306  0.00  0.00    +0.037 A 
ATOM     16  C   UNL     1      13.226  -7.633  33.665  0.00  0.00    +0.013 A 
ATOM     17  C   UNL     1      13.581  -8.959  34.106  0.00  0.00    +0.005 A 
ATOM     18  C   UNL     1      14.543  -9.118  35.194  0.00  0.00    -0.033 A 
ATOM     28  C   UNL     1      15.126  -7.937  35.809  0.00  0.00    +0.005 A 
ATOM     29  C   UNL     1      14.780  -6.636  35.380  0.00  0.00    +0.013 A 
BRANCH  18  19
ATOM     19  C   UNL     1      14.964 -10.494  35.743  0.00  0.00    +0.119 C 
BRANCH  19  20
ATOM     20  N   UNL     1      15.634 -11.432  34.795  0.00  0.00    -0.302 NA
ATOM     21  C   UNL     1      15.516 -12.890  35.249  0.00  0.00    +0.066 C 
ATOM     22  C   UNL     1      16.203 -13.860  34.234  0.00  0.00    -0.064 C 
ATOM     23  N   UNL     1      17.671 -13.463  34.067  0.00  0.00    +0.379 N 
ATOM     24  C   UNL     1      18.335 -14.408  33.158  0.00  0.00    -0.096 C 
ATOM     25  H   UNL     1      18.160 -13.552  35.065  0.00  0.00    -0.082 HD
ATOM     26  C   UNL     1      17.798 -12.014  33.618  0.00  0.00    -0.064 C 
ATOM     27  C   UNL     1      17.086 -11.061  34.619  0.00  0.00    +0.066 C 
ENDBRANCH  19  20
ENDBRANCH  18  19
ENDBRANCH  14  15
ENDBRANCH  12  13
TORSDOF 6
ENDMDL
MODEL 5
REMARK VINA RESULT:      -7.4      8.207     16.456
REMARK  Name = C:\Users\Docking\Desktop\test protocol\1iep_ligandH.pdb
REMARK  8 active torsions:
REMARK  status: ('A' for Active; 'I' for Inactive)
REMARK    1  A    between atoms: _5  and  _11
REMARK    2  A    between atoms: _19  and  _21
REMARK    3  A    between atoms: _22  and  _66
REMARK    4  A    between atoms: _27  and  _30
REMARK    5  A    between atoms: _32  and  _33
REMARK    6  A    between atoms: _38  and  _43
REMARK    7  A    between atoms: _43  and  _46
REMARK    8  A    between atoms: _53  and  _55
REMARK                            x       y       z     vdW  Elec       q    Type
REMARK                         _______ _______ _______ _____ _____    ______ ____
ROOT
ATOM     10  C   UNL     1      11.252   0.841  28.242  0.00  0.00    +0.038 A 
ATOM     11  C   UNL     1      10.923   2.211  28.406  0.00  0.00    +0.047 A 
ATOM     12  C   UNL     1      11.109   3.164  27.323  0.00  0.00    +0.035 A 
ATOM     32  C   UNL     1      11.630   2.687  26.085  0.00  0.00    +0.024 A 
ATOM     33  C   UNL     1      11.971   1.298  25.902  0.00  0.00    +0.007 A 
ATOM     34  C   UNL     1      11.792   0.353  26.967  0.00  0.00    -0.029 A 
ATOM     35  C   UNL     1      12.180  -1.122  26.716  0.00  0.00    +0.045 C 
ENDROOT
BRANCH  10   9
ATOM      4  C   UNL     1      12.773  -1.439  32.183  0.00  0.00    +0.077 A 
ATOM      5  C   UNL     1      14.084  -0.865  32.080  0.00  0.00    +0.048 A 
ATOM      6  C   UNL     1      14.328   0.005  30.994  0.00  0.00    +0.116 A 
ATOM      7  N   UNL     1      13.328   0.276  30.085  0.00  0.00    -0.223 NA
ATOM      8  C   UNL     1      12.075  -0.295  30.213  0.00  0.00    +0.220 A 
ATOM      9  N   UNL     1      11.052  -0.031  29.315  0.00  0.00    -0.283 N 
ATOM     36  H   UNL     1      10.144  -0.478  29.439  0.00  0.00    +0.155 HD
ATOM     37  N   UNL     1      11.817  -1.131  31.240  0.00  0.00    -0.214 NA
BRANCH   4   3
ATOM      1  C   UNL     1      10.694  -3.262  34.949  0.00  0.00    +0.020 A 
ATOM      2  C   UNL     1      11.042  -2.335  33.897  0.00  0.00    +0.013 A 
ATOM      3  C   UNL     1      12.360  -2.375  33.276  0.00  0.00    +0.019 A 
ATOM     38  C   UNL     1      13.309  -3.374  33.744  0.00  0.00    +0.120 A 
ATOM     39  N   UNL     1      12.945  -4.253  34.760  0.00  0.00    -0.263 NA
ATOM     40  C   UNL     1      11.681  -4.222  35.367  0.00  0.00    +0.111 A 
ENDBRANCH   4   3
ENDBRANCH  10   9
BRANCH  12  13
ATOM     13  N   UNL     1      10.801   4.568  27.434  0.00  0.00    -0.281 N 
ATOM     14  C   UNL     1       9.748   5.257  26.853  0.00  0.00    +0.248 C 
ATOM     30  O   UNL     1       9.030   4.808  25.973  0.00  0.00    -0.270 OA
ATOM     31  H   UNL     1      11.435   5.121  28.010  0.00  0.00    +0.155 HD
BRANCH  14  15
ATOM     15  C   UNL     1       9.461   6.652  27.307  0.00  0.00    +0.037 A 
ATOM     16  C   UNL     1       9.816   7.101  28.656  0.00  0.00    +0.013 A 
ATOM     17  C   UNL     1       9.512   8.447  29.073  0.00  0.00    +0.005 A 
ATOM     18  C   UNL     1       8.852   9.355  28.138  0.00  0.00    -0.033 A 
ATOM     28  C   UNL     1       8.516   8.885  26.804  0.00  0.00    +0.005 A 
ATOM     29  C   UNL     1       8.811   7.566  26.392  0.00  0.00    +0.013 A 
BRANCH  18  19
ATOM     19  C   UNL     1       8.471  10.802  28.505  0.00  0.00    +0.119 C 
BRANCH  19  20
ATOM     20  N   UNL     1       7.500  11.501  27.612  0.00  0.00    -0.302 NA
ATOM     21  C   UNL     1       8.160  12.634  26.821  0.00  0.00    +0.066 C 
ATOM     22  C   UNL     1       7.135  13.340  25.875  0.00  0.00    -0.064 C 
ATOM     23  N   UNL     1       5.962  13.868  26.702  0.00  0.00    +0.379 N 
ATOM     24  C   UNL     1       5.025  14.583  25.823  0.00  0.00    -0.096 C 
ATOM     25  H   UNL     1       6.369  14.605  27.433  0.00  0.00    -0.082 HD
ATOM     26  C   UNL     1       5.301  12.748  27.493  0.00  0.00    -0.064 C 
ATOM     27  C   UNL     1       6.335  12.034  28.408  0.00  0.00    +0.066 C 
ENDBRANCH  19  20
ENDBRANCH  18  19
ENDBRANCH  14  15
ENDBRANCH  12  13
TORSDOF 6
ENDMDL
