MODEL 1
REMARK VINA RESULT:      -8.0      0.000      0.000
REMARK  Name = C:\Users\Docking\Desktop\test protocol\1iep_ligandH.pdb
REMARK  8 active torsions:
REMARK  status: ('A' for Active; 'I' for Inactive)
REMARK    1  A    between atoms: _5  and  _11
REMARK    2  A    between atoms: _19  and  _21
REMARK    3  A    between atoms: _22  and  _66
REMARK    4  A    between atoms: _27  and  _30
REMARK    5  A    between atoms: _32  and  _33
REMARK    6  A    between atoms: _38  and  _43
REMARK    7  A    between atoms: _43  and  _46
REMARK    8  A    between atoms: _53  and  _55
REMARK                            x       y       z     vdW  Elec       q    Type
REMARK                         _______ _______ _______ _____ _____    ______ ____
ROOT
ATOM     10  C   UNL     1      20.067  25.793   4.034  0.00  0.00    +0.038 A 
ATOM     11  C   UNL     1      18.749  25.588   4.517  0.00  0.00    +0.047 A 
ATOM     12  C   UNL     1      18.155  24.260   4.542  0.00  0.00    +0.035 A 
ATOM     32  C   UNL     1      18.932  23.163   4.071  0.00  0.00    +0.024 A 
ATOM     33  C   UNL     1      20.273  23.353   3.575  0.00  0.00    +0.007 A 
ATOM     34  C   UNL     1      20.864  24.661   3.545  0.00  0.00    -0.029 A 
ATOM     35  C   UNL     1      22.303  24.806   2.998  0.00  0.00    +0.045 C 
ENDROOT
BRANCH  10   9
ATOM      4  C   UNL     1      21.149  29.917   1.830  0.00  0.00    +0.077 A 
ATOM      5  C   UNL     1      20.659  29.440   0.569  0.00  0.00    +0.048 A 
ATOM      6  C   UNL     1      20.143  28.125   0.528  0.00  0.00    +0.116 A 
ATOM      7  N   UNL     1      20.123  27.354   1.670  0.00  0.00    -0.223 NA
ATOM      8  C   UNL     1      20.605  27.844   2.870  0.00  0.00    +0.220 A 
ATOM      9  N   UNL     1      20.588  27.088   4.032  0.00  0.00    -0.283 N 
ATOM     36  H   UNL     1      20.960  27.483   4.896  0.00  0.00    +0.155 HD
ATOM     37  N   UNL     1      21.104  29.096   2.935  0.00  0.00    -0.214 NA
BRANCH   4   3
ATOM      1  C   UNL     1      22.042  33.398   3.375  0.00  0.00    +0.020 A 
ATOM      2  C   UNL     1      21.464  32.081   3.227  0.00  0.00    +0.013 A 
ATOM      3  C   UNL     1      21.721  31.285   2.034  0.00  0.00    +0.019 A 
ATOM     38  C   UNL     1      22.574  31.854   1.001  0.00  0.00    +0.120 A 
ATOM     39  N   UNL     1      23.115  33.124   1.171  0.00  0.00    -0.263 NA
ATOM     40  C   UNL     1      22.873  33.901   2.314  0.00  0.00    +0.111 A 
ENDBRANCH   4   3
ENDBRANCH  10   9
BRANCH  12  13
ATOM     13  N   UNL     1      16.819  23.993   5.014  0.00  0.00    -0.281 N 
ATOM     14  C   UNL     1      16.440  23.394   6.204  0.00  0.00    +0.248 C 
ATOM     30  O   UNL     1      17.202  22.802   6.954  0.00  0.00    -0.270 OA
ATOM     31  H   UNL     1      16.060  24.279   4.395  0.00  0.00    +0.155 HD
BRANCH  14  15
ATOM     15  C   UNL     1      15.004  23.450   6.615  0.00  0.00    +0.037 A 
ATOM     16  C   UNL     1      13.974  23.968   5.710  0.00  0.00    +0.013 A 
ATOM     17  C   UNL     1      12.598  24.026   6.138  0.00  0.00    +0.005 A 
ATOM     18  C   UNL     1      12.245  23.562   7.477  0.00  0.00    -0.033 A 
ATOM     28  C   UNL     1      13.285  23.048   8.352  0.00  0.00    +0.005 A 
ATOM     29  C   UNL     1      14.635  22.991   7.937  0.00  0.00    +0.013 A 
BRANCH  18  19
ATOM     19  C   UNL     1      10.806  23.607   8.025  0.00  0.00    +0.119 C 
BRANCH  19  20
ATOM     20  N   UNL     1      10.079  24.908   7.931  0.00  0.00    -0.302 NA
ATOM     21  C   UNL     1      10.810  26.030   8.673  0.00  0.00    +0.066 C 
ATOM     22  C   UNL     1      10.047  27.389   8.545  0.00  0.00    -0.064 C 
ATOM     23  N   UNL     1       8.624  27.223   9.081  0.00  0.00    +0.379 N 
ATOM     24  C   UNL     1       7.922  28.514   9.016  0.00  0.00    -0.096 C 
ATOM     25  H   UNL     1       8.698  26.932  10.154  0.00  0.00    -0.082 HD
ATOM     26  C   UNL     1       7.890  26.108   8.350  0.00  0.00    -0.064 C 
ATOM     27  C   UNL     1       8.672  24.768   8.458  0.00  0.00    +0.066 C 
ENDBRANCH  19  20
ENDBRANCH  18  19
ENDBRANCH  14  15
ENDBRANCH  12  13
TORSDOF 6
ENDMDL
MODEL 2
REMARK VINA RESULT:      -8.0      1.485      2.252
REMARK  Name = C:\Users\Docking\Desktop\test protocol\1iep_ligandH.pdb
REMARK  8 active torsions:
REMARK  status: ('A' for Active; 'I' for Inactive)
REMARK    1  A    between atoms: _5  and  _11
REMARK    2  A    between atoms: _19  and  _21
REMARK    3  A    between atoms: _22  and  _66
REMARK    4  A    between atoms: _27  and  _30
REMARK    5  A    between atoms: _32  and  _33
REMARK    6  A    between atoms: _38  and  _43
REMARK    7  A    between atoms: _43  and  _46
REMARK    8  A    between atoms: _53  and  _55
REMARK                            x       y       z     vdW  Elec       q    Type
REMARK                         _______ _______ _______ _____ _____    ______ ____
ROOT
ATOM     10  C   UNL     1      20.007  26.091   3.513  0.00  0.00    +0.038 A 
ATOM     11  C   UNL     1      18.670  25.965   3.968  0.00  0.00    +0.047 A 
ATOM     12  C   UNL     1      17.951  24.706   3.853  0.00  0.00    +0.035 A 
ATOM     32  C   UNL     1      18.626  23.593   3.271  0.00  0.00    +0.024 A 
ATOM     33  C   UNL     1      19.985  23.704   2.802  0.00  0.00    +0.007 A 
ATOM     34  C   UNL     1      20.698  24.944   2.911  0.00  0.00    -0.029 A 
ATOM     35  C   UNL     1      22.151  25.007   2.386  0.00  0.00    +0.045 C 
ENDROOT
BRANCH  10   9
ATOM      4  C   UNL     1      21.475  30.314   1.766  0.00  0.00    +0.077 A 
ATOM      5  C   UNL     1      20.940  30.028   0.466  0.00  0.00    +0.048 A 
ATOM      6  C   UNL     1      20.301  28.781   0.286  0.00  0.00    +0.116 A 
ATOM      7  N   UNL     1      20.209  27.893   1.336  0.00  0.00    -0.223 NA
ATOM      8  C   UNL     1      20.737  28.199   2.577  0.00  0.00    +0.220 A 
ATOM      9  N   UNL     1      20.649  27.324   3.649  0.00  0.00    -0.283 N 
ATOM     36  H   UNL     1      21.058  27.583   4.546  0.00  0.00    +0.155 HD
ATOM     37  N   UNL     1      21.354  29.383   2.773  0.00  0.00    -0.214 NA
BRANCH   4   3
ATOM      1  C   UNL     1      22.934  33.350   3.754  0.00  0.00    +0.020 A 
ATOM      2  C   UNL     1      22.244  32.112   3.472  0.00  0.00    +0.013 A 
ATOM      3  C   UNL     1      22.175  31.590   2.113  0.00  0.00    +0.019 A 
ATOM     38  C   UNL     1      22.821  32.351   1.054  0.00  0.00    +0.120 A 
ATOM     39  N   UNL     1      23.476  33.541   1.355  0.00  0.00    -0.263 NA
ATOM     40  C   UNL     1      23.548  34.053   2.659  0.00  0.00    +0.111 A 
ENDBRANCH   4   3
ENDBRANCH  10   9
BRANCH  12  13
ATOM     13  N   UNL     1      16.589  24.521   4.290  0.00  0.00    -0.281 N 
ATOM     14  C   UNL     1      16.135  23.789   5.375  0.00  0.00    +0.248 C 
ATOM     30  O   UNL     1      16.819  23.003   6.014  0.00  0.00    -0.270 OA
ATOM     31  H   UNL     1      15.873  24.985   3.731  0.00  0.00    +0.155 HD
BRANCH  14  15
ATOM     15  C   UNL     1      14.711  23.942   5.804  0.00  0.00    +0.037 A 
ATOM     16  C   UNL     1      13.627  24.031   4.822  0.00  0.00    +0.013 A 
ATOM     17  C   UNL     1      12.265  24.195   5.262  0.00  0.00    +0.005 A 
ATOM     18  C   UNL     1      11.978  24.269   6.693  0.00  0.00    -0.033 A 
ATOM     28  C   UNL     1      13.072  24.173   7.645  0.00  0.00    +0.005 A 
ATOM     29  C   UNL     1      14.409  24.013   7.217  0.00  0.00    +0.013 A 
BRANCH  18  19
ATOM     19  C   UNL     1      10.556  24.465   7.252  0.00  0.00    +0.119 C 
BRANCH  19  20
ATOM     20  N   UNL     1      10.140  23.584   8.384  0.00  0.00    -0.302 NA
ATOM     21  C   UNL     1      10.174  22.102   8.001  0.00  0.00    +0.066 C 
ATOM     22  C   UNL     1       9.757  21.194   9.204  0.00  0.00    -0.064 C 
ATOM     23  N   UNL     1       8.362  21.597   9.684  0.00  0.00    +0.379 N 
ATOM     24  C   UNL     1       7.943  20.708  10.777  0.00  0.00    -0.096 C 
ATOM     25  H   UNL     1       7.656  21.446   8.835  0.00  0.00    -0.082 HD
ATOM     26  C   UNL     1       8.318  23.071  10.064  0.00  0.00    -0.064 C 
ATOM     27  C   UNL     1       8.763  23.962   8.871  0.00  0.00    +0.066 C 
ENDBRANCH  19  20
ENDBRANCH  18  19
ENDBRANCH  14  15
ENDBRANCH  12  13
TORSDOF 6
ENDMDL
MODEL 3
REMARK VINA RESULT:      -7.9      4.769     13.293
REMARK  Name = C:\Users\Docking\Desktop\test protocol\1iep_ligandH.pdb
REMARK  8 active torsions:
REMARK  status: ('A' for Active; 'I' for Inactive)
REMARK    1  A    between atoms: _5  and  _11
REMARK    2  A    between atoms: _19  and  _21
REMARK    3  A    between atoms: _22  and  _66
REMARK    4  A    between atoms: _27  and  _30
REMARK    5  A    between atoms: _32  and  _33
REMARK    6  A    between atoms: _38  and  _43
REMARK    7  A    between atoms: _43  and  _46
REMARK    8  A    between atoms: _53  and  _55
REMARK                            x       y       z     vdW  Elec       q    Type
REMARK                         _______ _______ _______ _____ _____    ______ ____
ROOT
ATOM     10  C   UNL     1      19.426  27.650   1.192  0.00  0.00    +0.038 A 
ATOM     11  C   UNL     1      20.044  28.857   1.609  0.00  0.00    +0.047 A 
ATOM     12  C   UNL     1      20.692  29.741   0.652  0.00  0.00    +0.035 A 
ATOM     32  C   UNL     1      20.689  29.366  -0.723  0.00  0.00    +0.024 A 
ATOM     33  C   UNL     1      20.066  28.143  -1.165  0.00  0.00    +0.007 A 
ATOM     34  C   UNL     1      19.428  27.266  -0.225  0.00  0.00    -0.029 A 
ATOM     35  C   UNL     1      18.782  25.964  -0.754  0.00  0.00    +0.045 C 
ENDROOT
BRANCH  10   9
ATOM      4  C   UNL     1      19.598  24.288   4.613  0.00  0.00    +0.077 A 
ATOM      5  C   UNL     1      21.013  24.113   4.453  0.00  0.00    +0.048 A 
ATOM      6  C   UNL     1      21.657  24.903   3.474  0.00  0.00    +0.116 A 
ATOM      7  N   UNL     1      20.931  25.798   2.718  0.00  0.00    -0.223 NA
ATOM      8  C   UNL     1      19.568  25.940   2.897  0.00  0.00    +0.220 A 
ATOM      9  N   UNL     1      18.819  26.839   2.153  0.00  0.00    -0.283 N 
ATOM     36  H   UNL     1      17.814  26.909   2.310  0.00  0.00    +0.155 HD
ATOM     37  N   UNL     1      18.928  25.196   3.824  0.00  0.00    -0.214 NA
BRANCH   4   3
ATOM      1  C   UNL     1      18.465  21.713   7.330  0.00  0.00    +0.020 A 
ATOM      2  C   UNL     1      19.301  22.412   6.382  0.00  0.00    +0.013 A 
ATOM      3  C   UNL     1      18.775  23.529   5.607  0.00  0.00    +0.019 A 
ATOM     38  C   UNL     1      17.388  23.916   5.817  0.00  0.00    +0.120 A 
ATOM     39  N   UNL     1      16.606  23.223   6.736  0.00  0.00    -0.263 NA
ATOM     40  C   UNL     1      17.101  22.146   7.486  0.00  0.00    +0.111 A 
ENDBRANCH   4   3
ENDBRANCH  10   9
BRANCH  12  13
ATOM     13  N   UNL     1      21.342  30.974   1.018  0.00  0.00    -0.281 N 
ATOM     14  C   UNL     1      21.994  31.274   2.204  0.00  0.00    +0.248 C 
ATOM     30  O   UNL     1      21.930  30.596   3.218  0.00  0.00    -0.270 OA
ATOM     31  H   UNL     1      21.320  31.716   0.319  0.00  0.00    +0.155 HD
BRANCH  14  15
ATOM     15  C   UNL     1      22.824  32.515   2.277  0.00  0.00    +0.037 A 
ATOM     16  C   UNL     1      23.421  33.102   1.075  0.00  0.00    +0.013 A 
ATOM     17  C   UNL     1      24.232  34.290   1.176  0.00  0.00    +0.005 A 
ATOM     18  C   UNL     1      24.449  34.899   2.486  0.00  0.00    -0.033 A 
ATOM     28  C   UNL     1      23.841  34.299   3.661  0.00  0.00    +0.005 A 
ATOM     29  C   UNL     1      23.046  33.134   3.566  0.00  0.00    +0.013 A 
BRANCH  18  19
ATOM     19  C   UNL     1      25.317  36.155   2.690  0.00  0.00    +0.119 C 
BRANCH  19  20
ATOM     20  N   UNL     1      24.834  37.427   2.076  0.00  0.00    -0.302 NA
ATOM     21  C   UNL     1      25.775  37.927   0.976  0.00  0.00    +0.066 C 
ATOM     22  C   UNL     1      25.243  39.247   0.329  0.00  0.00    -0.064 C 
ATOM     23  N   UNL     1      25.067  40.310   1.415  0.00  0.00    +0.379 N 
ATOM     24  C   UNL     1      24.622  41.570   0.801  0.00  0.00    -0.096 C 
ATOM     25  H   UNL     1      26.066  40.492   1.875  0.00  0.00    -0.082 HD
ATOM     26  C   UNL     1      24.135  39.820   2.514  0.00  0.00    -0.064 C 
ATOM     27  C   UNL     1      24.657  38.492   3.130  0.00  0.00    +0.066 C 
ENDBRANCH  19  20
ENDBRANCH  18  19
ENDBRANCH  14  15
ENDBRANCH  12  13
TORSDOF 6
ENDMDL
MODEL 4
REMARK VINA RESULT:      -7.8      3.721     13.065
REMARK  Name = C:\Users\Docking\Desktop\test protocol\1iep_ligandH.pdb
REMARK  8 active torsions:
REMARK  status: ('A' for Active; 'I' for Inactive)
REMARK    1  A    between atoms: _5  and  _11
REMARK    2  A    between atoms: _19  and  _21
REMARK    3  A    between atoms: _22  and  _66
REMARK    4  A    between atoms: _27  and  _30
REMARK    5  A    between atoms: _32  and  _33
REMARK    6  A    between atoms: _38  and  _43
REMARK    7  A    between atoms: _43  and  _46
REMARK    8  A    between atoms: _53  and  _55
REMARK                            x       y       z     vdW  Elec       q    Type
REMARK                         _______ _______ _______ _____ _____    ______ ____
ROOT
ATOM     10  C   UNL     1      18.568  26.071   2.510  0.00  0.00    +0.038 A 
ATOM     11  C   UNL     1      19.362  27.212   2.793  0.00  0.00    +0.047 A 
ATOM     12  C   UNL     1      20.327  27.715   1.828  0.00  0.00    +0.035 A 
ATOM     32  C   UNL     1      20.456  27.033   0.583  0.00  0.00    +0.024 A 
ATOM     33  C   UNL     1      19.658  25.871   0.279  0.00  0.00    +0.007 A 
ATOM     34  C   UNL     1      18.706  25.369   1.229  0.00  0.00    -0.029 A 
ATOM     35  C   UNL     1      17.882  24.116   0.852  0.00  0.00    +0.045 C 
ENDROOT
BRANCH  10   9
ATOM      4  C   UNL     1      17.360  23.305   6.242  0.00  0.00    +0.077 A 
ATOM      5  C   UNL     1      18.643  22.662   6.257  0.00  0.00    +0.048 A 
ATOM      6  C   UNL     1      19.583  23.068   5.283  0.00  0.00    +0.116 A 
ATOM      7  N   UNL     1      19.254  24.044   4.368  0.00  0.00    -0.223 NA
ATOM      8  C   UNL     1      18.007  24.642   4.380  0.00  0.00    +0.220 A 
ATOM      9  N   UNL     1      17.658  25.631   3.473  0.00  0.00    -0.283 N 
ATOM     36  H   UNL     1      16.725  26.042   3.511  0.00  0.00    +0.155 HD
ATOM     37  N   UNL     1      17.091  24.271   5.299  0.00  0.00    -0.214 NA
BRANCH   4   3
ATOM      1  C   UNL     1      13.828  22.823   7.853  0.00  0.00    +0.020 A 
ATOM      2  C   UNL     1      14.850  23.143   6.883  0.00  0.00    +0.013 A 
ATOM      3  C   UNL     1      16.262  22.987   7.209  0.00  0.00    +0.019 A 
ATOM     38  C   UNL     1      16.609  22.500   8.535  0.00  0.00    +0.120 A 
ATOM     39  N   UNL     1      15.604  22.200   9.449  0.00  0.00    -0.263 NA
ATOM     40  C   UNL     1      14.242  22.348   9.148  0.00  0.00    +0.111 A 
ENDBRANCH   4   3
ENDBRANCH  10   9
BRANCH  12  13
ATOM     13  N   UNL     1      21.167  28.864   2.063  0.00  0.00    -0.281 N 
ATOM     14  C   UNL     1      21.203  30.052   1.351  0.00  0.00    +0.248 C 
ATOM     30  O   UNL     1      20.665  30.225   0.267  0.00  0.00    -0.270 OA
ATOM     31  H   UNL     1      21.813  28.792   2.849  0.00  0.00    +0.155 HD
BRANCH  14  15
ATOM     15  C   UNL     1      21.957  31.211   1.918  0.00  0.00    +0.037 A 
ATOM     16  C   UNL     1      21.856  31.562   3.337  0.00  0.00    +0.013 A 
ATOM     17  C   UNL     1      22.581  32.695   3.855  0.00  0.00    +0.005 A 
ATOM     18  C   UNL     1      23.415  33.485   2.952  0.00  0.00    -0.033 A 
ATOM     28  C   UNL     1      23.501  33.111   1.550  0.00  0.00    +0.005 A 
ATOM     29  C   UNL     1      22.791  32.001   1.039  0.00  0.00    +0.013 A 
BRANCH  18  19
ATOM     19  C   UNL     1      24.207  34.723   3.413  0.00  0.00    +0.119 C 
BRANCH  19  20
ATOM     20  N   UNL     1      24.481  35.778   2.393  0.00  0.00    -0.302 NA
ATOM     21  C   UNL     1      25.693  35.434   1.523  0.00  0.00    +0.066 C 
ATOM     22  C   UNL     1      25.952  36.538   0.446  0.00  0.00    -0.064 C 
ATOM     23  N   UNL     1      26.149  37.887   1.140  0.00  0.00    +0.379 N 
ATOM     24  C   UNL     1      26.450  38.917   0.135  0.00  0.00    -0.096 C 
ATOM     25  H   UNL     1      27.037  37.797   1.809  0.00  0.00    -0.082 HD
ATOM     26  C   UNL     1      24.949  38.235   2.010  0.00  0.00    -0.064 C 
ATOM     27  C   UNL     1      24.683  37.118   3.057  0.00  0.00    +0.066 C 
ENDBRANCH  19  20
ENDBRANCH  18  19
ENDBRANCH  14  15
ENDBRANCH  12  13
TORSDOF 6
ENDMDL
MODEL 5
REMARK VINA RESULT:      -7.8      2.447     12.518
REMARK  Name = C:\Users\Docking\Desktop\test protocol\1iep_ligandH.pdb
REMARK  8 active torsions:
REMARK  status: ('A' for Active; 'I' for Inactive)
REMARK    1  A    between atoms: _5  and  _11
REMARK    2  A    between atoms: _19  and  _21
REMARK    3  A    between atoms: _22  and  _66
REMARK    4  A    between atoms: _27  and  _30
REMARK    5  A    between atoms: _32  and  _33
REMARK    6  A    between atoms: _38  and  _43
REMARK    7  A    between atoms: _43  and  _46
REMARK    8  A    between atoms: _53  and  _55
REMARK                            x       y       z     vdW  Elec       q    Type
REMARK                         _______ _______ _______ _____ _____    ______ ____
ROOT
ATOM     10  C   UNL     1       9.812  23.898   8.383  0.00  0.00    +0.038 A 
ATOM     11  C   UNL     1      11.011  24.005   7.633  0.00  0.00    +0.047 A 
ATOM     12  C   UNL     1      12.241  23.375   8.086  0.00  0.00    +0.035 A 
ATOM     32  C   UNL     1      12.213  22.639   9.307  0.00  0.00    +0.024 A 
ATOM     33  C   UNL     1      11.004  22.520  10.082  0.00  0.00    +0.007 A 
ATOM     34  C   UNL     1       9.788  23.142   9.641  0.00  0.00    -0.029 A 
ATOM     35  C   UNL     1       8.522  22.987  10.516  0.00  0.00    +0.045 C 
ENDROOT
BRANCH  10   9
ATOM      4  C   UNL     1       6.975  27.736   7.882  0.00  0.00    +0.077 A 
ATOM      5  C   UNL     1       7.848  28.558   8.669  0.00  0.00    +0.048 A 
ATOM      6  C   UNL     1       9.013  27.953   9.191  0.00  0.00    +0.116 A 
ATOM      7  N   UNL     1       9.276  26.624   8.937  0.00  0.00    -0.223 NA
ATOM      8  C   UNL     1       8.412  25.859   8.175  0.00  0.00    +0.220 A 
ATOM      9  N   UNL     1       8.660  24.523   7.901  0.00  0.00    -0.283 N 
ATOM     36  H   UNL     1       7.994  23.991   7.341  0.00  0.00    +0.155 HD
ATOM     37  N   UNL     1       7.291  26.413   7.667  0.00  0.00    -0.214 NA
BRANCH   4   3
ATOM      1  C   UNL     1       4.354  29.956   6.010  0.00  0.00    +0.020 A 
ATOM      2  C   UNL     1       5.603  29.525   6.595  0.00  0.00    +0.013 A 
ATOM      3  C   UNL     1       5.706  28.232   7.260  0.00  0.00    +0.019 A 
ATOM     38  C   UNL     1       4.519  27.392   7.314  0.00  0.00    +0.120 A 
ATOM     39  N   UNL     1       3.330  27.834   6.743  0.00  0.00    -0.263 NA
ATOM     40  C   UNL     1       3.218  29.077   6.102  0.00  0.00    +0.111 A 
ENDBRANCH   4   3
ENDBRANCH  10   9
BRANCH  12  13
ATOM     13  N   UNL     1      13.491  23.456   7.371  0.00  0.00    -0.281 N 
ATOM     14  C   UNL     1      13.704  23.313   6.010  0.00  0.00    +0.248 C 
ATOM     30  O   UNL     1      12.876  22.879   5.222  0.00  0.00    -0.270 OA
ATOM     31  H   UNL     1      14.319  23.642   7.937  0.00  0.00    +0.155 HD
BRANCH  14  15
ATOM     15  C   UNL     1      15.033  23.694   5.443  0.00  0.00    +0.037 A 
ATOM     16  C   UNL     1      15.167  24.146   4.056  0.00  0.00    +0.013 A 
ATOM     17  C   UNL     1      16.464  24.491   3.529  0.00  0.00    +0.005 A 
ATOM     18  C   UNL     1      17.638  24.387   4.392  0.00  0.00    -0.033 A 
ATOM     28  C   UNL     1      17.476  23.941   5.766  0.00  0.00    +0.005 A 
ATOM     29  C   UNL     1      16.207  23.601   6.285  0.00  0.00    +0.013 A 
BRANCH  18  19
ATOM     19  C   UNL     1      19.063  24.714   3.909  0.00  0.00    +0.119 C 
BRANCH  19  20
ATOM     20  N   UNL     1      19.213  25.828   2.925  0.00  0.00    -0.302 NA
ATOM     21  C   UNL     1      20.541  25.751   2.167  0.00  0.00    +0.066 C 
ATOM     22  C   UNL     1      20.671  26.911   1.127  0.00  0.00    -0.064 C 
ATOM     23  N   UNL     1      20.535  28.254   1.846  0.00  0.00    +0.379 N 
ATOM     24  C   UNL     1      20.714  29.348   0.880  0.00  0.00    -0.096 C 
ATOM     25  H   UNL     1      21.360  28.323   2.592  0.00  0.00    -0.082 HD
ATOM     26  C   UNL     1      19.218  28.339   2.604  0.00  0.00    -0.064 C 
ATOM     27  C   UNL     1      19.086  27.165   3.615  0.00  0.00    +0.066 C 
ENDBRANCH  19  20
ENDBRANCH  18  19
ENDBRANCH  14  15
ENDBRANCH  12  13
TORSDOF 6
ENDMDL
