MODEL 1
REMARK VINA RESULT:      -8.0      0.000      0.000
REMARK  Name = C:\Users\Docking\Desktop\test protocol\1iep_ligandH.pdb
REMARK  8 active torsions:
REMARK  status: ('A' for Active; 'I' for Inactive)
REMARK    1  A    between atoms: _5  and  _11
REMARK    2  A    between atoms: _19  and  _21
REMARK    3  A    between atoms: _22  and  _66
REMARK    4  A    between atoms: _27  and  _30
REMARK    5  A    between atoms: _32  and  _33
REMARK    6  A    between atoms: _38  and  _43
REMARK    7  A    between atoms: _43  and  _46
REMARK    8  A    between atoms: _53  and  _55
REMARK                            x       y       z     vdW  Elec       q    Type
REMARK                         _______ _______ _______ _____ _____    ______ ____
ROOT
ATOM     10  C   UNL     1      19.961  26.424   4.191  0.00  0.00    +0.038 A 
ATOM     11  C   UNL     1      18.608  26.294   4.594  0.00  0.00    +0.047 A 
ATOM     12  C   UNL     1      17.968  24.990   4.673  0.00  0.00    +0.035 A 
ATOM     32  C   UNL     1      18.738  23.838   4.337  0.00  0.00    +0.024 A 
ATOM     33  C   UNL     1      20.115  23.953   3.924  0.00  0.00    +0.007 A 
ATOM     34  C   UNL     1      20.750  25.237   3.842  0.00  0.00    -0.029 A 
ATOM     35  C   UNL     1      22.227  25.300   3.387  0.00  0.00    +0.045 C 
ENDROOT
BRANCH  10   9
ATOM      4  C   UNL     1      21.100  30.444   1.828  0.00  0.00    +0.077 A 
ATOM      5  C   UNL     1      20.550  29.948   0.599  0.00  0.00    +0.048 A 
ATOM      6  C   UNL     1      19.990  28.651   0.616  0.00  0.00    +0.116 A 
ATOM      7  N   UNL     1      19.985  27.914   1.780  0.00  0.00    -0.223 NA
ATOM      8  C   UNL     1      20.526  28.421   2.948  0.00  0.00    +0.220 A 
ATOM      9  N   UNL     1      20.524  27.701   4.132  0.00  0.00    -0.283 N 
ATOM     36  H   UNL     1      20.939  28.108   4.970  0.00  0.00    +0.155 HD
ATOM     37  N   UNL     1      21.068  29.657   2.957  0.00  0.00    -0.214 NA
BRANCH   4   3
ATOM      1  C   UNL     1      22.126  33.954   3.216  0.00  0.00    +0.020 A 
ATOM      2  C   UNL     1      21.498  32.656   3.127  0.00  0.00    +0.013 A 
ATOM      3  C   UNL     1      21.724  31.797   1.971  0.00  0.00    +0.019 A 
ATOM     38  C   UNL     1      22.599  32.285   0.915  0.00  0.00    +0.120 A 
ATOM     39  N   UNL     1      23.188  33.541   1.028  0.00  0.00    -0.263 NA
ATOM     40  C   UNL     1      22.976  34.377   2.134  0.00  0.00    +0.111 A 
ENDBRANCH   4   3
ENDBRANCH  10   9
BRANCH  12  13
ATOM     13  N   UNL     1      16.595  24.796   5.068  0.00  0.00    -0.281 N 
ATOM     14  C   UNL     1      16.115  24.113   6.174  0.00  0.00    +0.248 C 
ATOM     30  O   UNL     1      16.791  23.378   6.879  0.00  0.00    -0.270 OA
ATOM     31  H   UNL     1      15.891  25.214   4.459  0.00  0.00    +0.155 HD
BRANCH  14  15
ATOM     15  C   UNL     1      14.673  24.254   6.540  0.00  0.00    +0.037 A 
ATOM     16  C   UNL     1      14.161  23.752   7.818  0.00  0.00    +0.013 A 
ATOM     17  C   UNL     1      12.762  23.886   8.139  0.00  0.00    +0.005 A 
ATOM     18  C   UNL     1      11.865  24.528   7.180  0.00  0.00    -0.033 A 
ATOM     28  C   UNL     1      12.401  25.022   5.923  0.00  0.00    +0.005 A 
ATOM     29  C   UNL     1      13.771  24.891   5.604  0.00  0.00    +0.013 A 
BRANCH  18  19
ATOM     19  C   UNL     1      10.355  24.695   7.430  0.00  0.00    +0.119 C 
BRANCH  19  20
ATOM     20  N   UNL     1       9.831  26.089   7.544  0.00  0.00    -0.302 NA
ATOM     21  C   UNL     1      10.547  26.884   8.639  0.00  0.00    +0.066 C 
ATOM     22  C   UNL     1      10.002  28.347   8.729  0.00  0.00    -0.064 C 
ATOM     23  N   UNL     1       8.494  28.312   8.983  0.00  0.00    +0.379 N 
ATOM     24  C   UNL     1       7.988  29.685   9.126  0.00  0.00    -0.096 C 
ATOM     25  H   UNL     1       8.327  27.787   9.953  0.00  0.00    -0.082 HD
ATOM     26  C   UNL     1       7.774  27.520   7.901  0.00  0.00    -0.064 C 
ATOM     27  C   UNL     1       8.344  26.077   7.800  0.00  0.00    +0.066 C 
ENDBRANCH  19  20
ENDBRANCH  18  19
ENDBRANCH  14  15
ENDBRANCH  12  13
TORSDOF 6
ENDMDL
MODEL 2
REMARK VINA RESULT:      -7.9     12.929     15.388
REMARK  Name = C:\Users\Docking\Desktop\test protocol\1iep_ligandH.pdb
REMARK  8 active torsions:
REMARK  status: ('A' for Active; 'I' for Inactive)
REMARK    1  A    between atoms: _5  and  _11
REMARK    2  A    between atoms: _19  and  _21
REMARK    3  A    between atoms: _22  and  _66
REMARK    4  A    between atoms: _27  and  _30
REMARK    5  A    between atoms: _32  and  _33
REMARK    6  A    between atoms: _38  and  _43
REMARK    7  A    between atoms: _43  and  _46
REMARK    8  A    between atoms: _53  and  _55
REMARK                            x       y       z     vdW  Elec       q    Type
REMARK                         _______ _______ _______ _____ _____    ______ ____
ROOT
ATOM     10  C   UNL     1      26.819  31.969  -3.580  0.00  0.00    +0.038 A 
ATOM     11  C   UNL     1      26.457  32.678  -2.406  0.00  0.00    +0.047 A 
ATOM     12  C   UNL     1      26.762  34.092  -2.257  0.00  0.00    +0.035 A 
ATOM     32  C   UNL     1      27.435  34.754  -3.325  0.00  0.00    +0.024 A 
ATOM     33  C   UNL     1      27.811  34.049  -4.524  0.00  0.00    +0.007 A 
ATOM     34  C   UNL     1      27.515  32.653  -4.676  0.00  0.00    -0.029 A 
ATOM     35  C   UNL     1      27.948  31.946  -5.982  0.00  0.00    +0.045 C 
ENDROOT
BRANCH  10   9
ATOM      4  C   UNL     1      27.993  27.321  -3.337  0.00  0.00    +0.077 A 
ATOM      5  C   UNL     1      29.361  27.622  -3.031  0.00  0.00    +0.048 A 
ATOM      6  C   UNL     1      29.724  28.986  -2.952  0.00  0.00    +0.116 A 
ATOM      7  N   UNL     1      28.780  29.966  -3.165  0.00  0.00    -0.223 NA
ATOM      8  C   UNL     1      27.469  29.642  -3.460  0.00  0.00    +0.220 A 
ATOM      9  N   UNL     1      26.501  30.612  -3.670  0.00  0.00    -0.283 N 
ATOM     36  H   UNL     1      25.546  30.332  -3.893  0.00  0.00    +0.155 HD
ATOM     37  N   UNL     1      27.097  28.347  -3.542  0.00  0.00    -0.214 NA
BRANCH   4   3
ATOM      1  C   UNL     1      27.640  23.430  -3.162  0.00  0.00    +0.020 A 
ATOM      2  C   UNL     1      28.205  24.753  -3.030  0.00  0.00    +0.013 A 
ATOM      3  C   UNL     1      27.455  25.929  -3.452  0.00  0.00    +0.019 A 
ATOM     38  C   UNL     1      26.124  25.730  -4.006  0.00  0.00    +0.120 A 
ATOM     39  N   UNL     1      25.606  24.444  -4.123  0.00  0.00    -0.263 NA
ATOM     40  C   UNL     1      26.320  23.305  -3.722  0.00  0.00    +0.111 A 
ENDBRANCH   4   3
ENDBRANCH  10   9
BRANCH  12  13
ATOM     13  N   UNL     1      26.427  34.862  -1.085  0.00  0.00    -0.281 N 
ATOM     14  C   UNL     1      25.166  35.164  -0.596  0.00  0.00    +0.248 C 
ATOM     30  O   UNL     1      24.126  34.995  -1.216  0.00  0.00    -0.270 OA
ATOM     31  H   UNL     1      27.214  35.229  -0.550  0.00  0.00    +0.155 HD
BRANCH  14  15
ATOM     15  C   UNL     1      25.043  35.750   0.773  0.00  0.00    +0.037 A 
ATOM     16  C   UNL     1      24.221  35.111   1.803  0.00  0.00    +0.013 A 
ATOM     17  C   UNL     1      24.106  35.707   3.111  0.00  0.00    +0.005 A 
ATOM     18  C   UNL     1      24.819  36.950   3.396  0.00  0.00    -0.033 A 
ATOM     28  C   UNL     1      25.632  37.560   2.357  0.00  0.00    +0.005 A 
ATOM     29  C   UNL     1      25.746  36.980   1.074  0.00  0.00    +0.013 A 
BRANCH  18  19
ATOM     19  C   UNL     1      24.737  37.668   4.756  0.00  0.00    +0.119 C 
BRANCH  19  20
ATOM     20  N   UNL     1      24.550  39.149   4.738  0.00  0.00    -0.302 NA
ATOM     21  C   UNL     1      25.886  39.897   4.779  0.00  0.00    +0.066 C 
ATOM     22  C   UNL     1      25.673  41.445   4.737  0.00  0.00    -0.064 C 
ATOM     23  N   UNL     1      24.780  41.867   5.904  0.00  0.00    +0.379 N 
ATOM     24  C   UNL     1      24.625  43.329   5.901  0.00  0.00    -0.096 C 
ATOM     25  H   UNL     1      25.302  41.584   6.848  0.00  0.00    -0.082 HD
ATOM     26  C   UNL     1      23.451  41.126   5.872  0.00  0.00    -0.064 C 
ATOM     27  C   UNL     1      23.675  39.588   5.885  0.00  0.00    +0.066 C 
ENDBRANCH  19  20
ENDBRANCH  18  19
ENDBRANCH  14  15
ENDBRANCH  12  13
TORSDOF 6
ENDMDL
MODEL 3
REMARK VINA RESULT:      -7.8      2.797     12.333
REMARK  Name = C:\Users\Docking\Desktop\test protocol\1iep_ligandH.pdb
REMARK  8 active torsions:
REMARK  status: ('A' for Active; 'I' for Inactive)
REMARK    1  A    between atoms: _5  and  _11
REMARK    2  A    between atoms: _19  and  _21
REMARK    3  A    between atoms: _22  and  _66
REMARK    4  A    between atoms: _27  and  _30
REMARK    5  A    between atoms: _32  and  _33
REMARK    6  A    between atoms: _38  and  _43
REMARK    7  A    between atoms: _43  and  _46
REMARK    8  A    between atoms: _53  and  _55
REMARK                            x       y       z     vdW  Elec       q    Type
REMARK                         _______ _______ _______ _____ _____    ______ ____
ROOT
ATOM     10  C   UNL     1      12.802  24.135   7.662  0.00  0.00    +0.038 A 
ATOM     11  C   UNL     1      13.860  24.668   6.882  0.00  0.00    +0.047 A 
ATOM     12  C   UNL     1      15.240  24.273   7.114  0.00  0.00    +0.035 A 
ATOM     32  C   UNL     1      15.507  23.329   8.149  0.00  0.00    +0.024 A 
ATOM     33  C   UNL     1      14.445  22.777   8.952  0.00  0.00    +0.007 A 
ATOM     34  C   UNL     1      13.081  23.166   8.729  0.00  0.00    -0.029 A 
ATOM     35  C   UNL     1      11.983  22.548   9.625  0.00  0.00    +0.045 C 
ENDROOT
BRANCH  10   9
ATOM      4  C   UNL     1       9.183  27.259   8.090  0.00  0.00    +0.077 A 
ATOM      5  C   UNL     1       9.952  28.124   8.938  0.00  0.00    +0.048 A 
ATOM      6  C   UNL     1      11.272  27.725   9.245  0.00  0.00    +0.116 A 
ATOM      7  N   UNL     1      11.776  26.547   8.738  0.00  0.00    -0.223 NA
ATOM      8  C   UNL     1      11.007  25.735   7.924  0.00  0.00    +0.220 A 
ATOM      9  N   UNL     1      11.496  24.550   7.396  0.00  0.00    -0.283 N 
ATOM     36  H   UNL     1      10.894  23.975   6.806  0.00  0.00    +0.155 HD
ATOM     37  N   UNL     1       9.743  26.093   7.617  0.00  0.00    -0.214 NA
BRANCH   4   3
ATOM      1  C   UNL     1       5.557  26.870   6.677  0.00  0.00    +0.020 A 
ATOM      2  C   UNL     1       6.911  26.542   7.061  0.00  0.00    +0.013 A 
ATOM      3  C   UNL     1       7.774  27.545   7.672  0.00  0.00    +0.019 A 
ATOM     38  C   UNL     1       7.234  28.879   7.883  0.00  0.00    +0.120 A 
ATOM     39  N   UNL     1       5.927  29.166   7.500  0.00  0.00    -0.263 NA
ATOM     40  C   UNL     1       5.087  28.210   6.910  0.00  0.00    +0.111 A 
ENDBRANCH   4   3
ENDBRANCH  10   9
BRANCH  12  13
ATOM     13  N   UNL     1      16.356  24.786   6.359  0.00  0.00    -0.281 N 
ATOM     14  C   UNL     1      16.617  24.624   5.009  0.00  0.00    +0.248 C 
ATOM     30  O   UNL     1      16.039  23.829   4.283  0.00  0.00    -0.270 OA
ATOM     31  H   UNL     1      17.036  25.336   6.885  0.00  0.00    +0.155 HD
BRANCH  14  15
ATOM     15  C   UNL     1      17.685  25.456   4.375  0.00  0.00    +0.037 A 
ATOM     16  C   UNL     1      17.751  25.630   2.922  0.00  0.00    +0.013 A 
ATOM     17  C   UNL     1      18.802  26.423   2.335  0.00  0.00    +0.005 A 
ATOM     18  C   UNL     1      19.795  27.051   3.203  0.00  0.00    -0.033 A 
ATOM     28  C   UNL     1      19.703  26.866   4.642  0.00  0.00    +0.005 A 
ATOM     29  C   UNL     1      18.676  26.088   5.220  0.00  0.00    +0.013 A 
BRANCH  18  19
ATOM     19  C   UNL     1      20.963  27.897   2.663  0.00  0.00    +0.119 C 
BRANCH  19  20
ATOM     20  N   UNL     1      22.035  27.180   1.909  0.00  0.00    -0.302 NA
ATOM     21  C   UNL     1      21.648  26.945   0.446  0.00  0.00    +0.066 C 
ATOM     22  C   UNL     1      22.790  26.214  -0.334  0.00  0.00    -0.064 C 
ATOM     23  N   UNL     1      23.113  24.890   0.361  0.00  0.00    +0.379 N 
ATOM     24  C   UNL     1      24.145  24.174  -0.402  0.00  0.00    -0.096 C 
ATOM     25  H   UNL     1      22.188  24.267   0.347  0.00  0.00    -0.082 HD
ATOM     26  C   UNL     1      23.495  25.116   1.817  0.00  0.00    -0.064 C 
ATOM     27  C   UNL     1      22.366  25.868   2.575  0.00  0.00    +0.066 C 
ENDBRANCH  19  20
ENDBRANCH  18  19
ENDBRANCH  14  15
ENDBRANCH  12  13
TORSDOF 6
ENDMDL
MODEL 4
REMARK VINA RESULT:      -7.8      9.353     12.861
REMARK  Name = C:\Users\Docking\Desktop\test protocol\1iep_ligandH.pdb
REMARK  8 active torsions:
REMARK  status: ('A' for Active; 'I' for Inactive)
REMARK    1  A    between atoms: _5  and  _11
REMARK    2  A    between atoms: _19  and  _21
REMARK    3  A    between atoms: _22  and  _66
REMARK    4  A    between atoms: _27  and  _30
REMARK    5  A    between atoms: _32  and  _33
REMARK    6  A    between atoms: _38  and  _43
REMARK    7  A    between atoms: _43  and  _46
REMARK    8  A    between atoms: _53  and  _55
REMARK                            x       y       z     vdW  Elec       q    Type
REMARK                         _______ _______ _______ _____ _____    ______ ____
ROOT
ATOM     10  C   UNL     1      10.036  22.728   8.150  0.00  0.00    +0.038 A 
ATOM     11  C   UNL     1      10.131  22.056   9.396  0.00  0.00    +0.047 A 
ATOM     12  C   UNL     1      11.052  20.946   9.584  0.00  0.00    +0.035 A 
ATOM     32  C   UNL     1      11.864  20.548   8.482  0.00  0.00    +0.024 A 
ATOM     33  C   UNL     1      11.780  21.219   7.209  0.00  0.00    +0.007 A 
ATOM     34  C   UNL     1      10.872  22.313   7.017  0.00  0.00    -0.029 A 
ATOM     35  C   UNL     1      10.819  22.991   5.628  0.00  0.00    +0.045 C 
ENDROOT
BRANCH  10   9
ATOM      4  C   UNL     1       8.897  27.378   8.493  0.00  0.00    +0.077 A 
ATOM      5  C   UNL     1      10.199  27.721   8.989  0.00  0.00    +0.048 A 
ATOM      6  C   UNL     1      11.130  26.671   9.148  0.00  0.00    +0.116 A 
ATOM      7  N   UNL     1      10.775  25.377   8.831  0.00  0.00    -0.223 NA
ATOM      8  C   UNL     1       9.511  25.080   8.357  0.00  0.00    +0.220 A 
ATOM      9  N   UNL     1       9.135  23.788   8.025  0.00  0.00    -0.283 N 
ATOM     36  H   UNL     1       8.190  23.609   7.686  0.00  0.00    +0.155 HD
ATOM     37  N   UNL     1       8.603  26.065   8.198  0.00  0.00    -0.214 NA
BRANCH   4   3
ATOM      1  C   UNL     1       6.606  30.535   8.789  0.00  0.00    +0.020 A 
ATOM      2  C   UNL     1       7.679  29.603   9.047  0.00  0.00    +0.013 A 
ATOM      3  C   UNL     1       7.805  28.377   8.268  0.00  0.00    +0.019 A 
ATOM     38  C   UNL     1       6.820  28.123   7.228  0.00  0.00    +0.120 A 
ATOM     39  N   UNL     1       5.796  29.038   7.003  0.00  0.00    -0.263 NA
ATOM     40  C   UNL     1       5.665  30.220   7.747  0.00  0.00    +0.111 A 
ENDBRANCH   4   3
ENDBRANCH  10   9
BRANCH  12  13
ATOM     13  N   UNL     1      11.185  20.221  10.823  0.00  0.00    -0.281 N 
ATOM     14  C   UNL     1      10.457  19.122  11.250  0.00  0.00    +0.248 C 
ATOM     30  O   UNL     1       9.430  18.726  10.720  0.00  0.00    -0.270 OA
ATOM     31  H   UNL     1      11.904  20.558  11.463  0.00  0.00    +0.155 HD
BRANCH  14  15
ATOM     15  C   UNL     1      10.930  18.363  12.447  0.00  0.00    +0.037 A 
ATOM     16  C   UNL     1      11.956  17.323  12.332  0.00  0.00    +0.013 A 
ATOM     17  C   UNL     1      12.382  16.595  13.500  0.00  0.00    +0.005 A 
ATOM     18  C   UNL     1      11.782  16.905  14.796  0.00  0.00    -0.033 A 
ATOM     28  C   UNL     1      10.771  17.945  14.883  0.00  0.00    +0.005 A 
ATOM     29  C   UNL     1      10.350  18.661  13.740  0.00  0.00    +0.013 A 
BRANCH  18  19
ATOM     19  C   UNL     1      12.161  16.164  16.091  0.00  0.00    +0.119 C 
BRANCH  19  20
ATOM     20  N   UNL     1      12.707  16.984  17.214  0.00  0.00    -0.302 NA
ATOM     21  C   UNL     1      11.601  17.497  18.141  0.00  0.00    +0.066 C 
ATOM     22  C   UNL     1      12.192  18.334  19.322  0.00  0.00    -0.064 C 
ATOM     23  N   UNL     1      13.011  19.497  18.760  0.00  0.00    +0.379 N 
ATOM     24  C   UNL     1      13.519  20.319  19.867  0.00  0.00    -0.096 C 
ATOM     25  H   UNL     1      12.324  20.133  18.154  0.00  0.00    -0.082 HD
ATOM     26  C   UNL     1      14.111  18.995  17.835  0.00  0.00    -0.064 C 
ATOM     27  C   UNL     1      13.516  18.140  16.681  0.00  0.00    +0.066 C 
ENDBRANCH  19  20
ENDBRANCH  18  19
ENDBRANCH  14  15
ENDBRANCH  12  13
TORSDOF 6
ENDMDL
MODEL 5
REMARK VINA RESULT:      -7.8      2.029     12.063
REMARK  Name = C:\Users\Docking\Desktop\test protocol\1iep_ligandH.pdb
REMARK  8 active torsions:
REMARK  status: ('A' for Active; 'I' for Inactive)
REMARK    1  A    between atoms: _5  and  _11
REMARK    2  A    between atoms: _19  and  _21
REMARK    3  A    between atoms: _22  and  _66
REMARK    4  A    between atoms: _27  and  _30
REMARK    5  A    between atoms: _32  and  _33
REMARK    6  A    between atoms: _38  and  _43
REMARK    7  A    between atoms: _43  and  _46
REMARK    8  A    between atoms: _53  and  _55
REMARK                            x       y       z     vdW  Elec       q    Type
REMARK                         _______ _______ _______ _____ _____    ______ ____
ROOT
ATOM     10  C   UNL     1      10.780  24.403   8.500  0.00  0.00    +0.038 A 
ATOM     11  C   UNL     1      11.919  24.567   7.670  0.00  0.00    +0.047 A 
ATOM     12  C   UNL     1      13.164  23.873   7.955  0.00  0.00    +0.035 A 
ATOM     32  C   UNL     1      13.215  23.016   9.093  0.00  0.00    +0.024 A 
ATOM     33  C   UNL     1      12.067  22.838   9.948  0.00  0.00    +0.007 A 
ATOM     34  C   UNL     1      10.836  23.522   9.673  0.00  0.00    -0.029 A 
ATOM     35  C   UNL     1       9.640  23.299  10.627  0.00  0.00    +0.045 C 
ENDROOT
BRANCH  10   9
ATOM      4  C   UNL     1       8.178  28.428   8.240  0.00  0.00    +0.077 A 
ATOM      5  C   UNL     1       9.229  29.215   8.817  0.00  0.00    +0.048 A 
ATOM      6  C   UNL     1      10.421  28.545   9.173  0.00  0.00    +0.116 A 
ATOM      7  N   UNL     1      10.541  27.188   8.963  0.00  0.00    -0.223 NA
ATOM      8  C   UNL     1       9.507  26.458   8.406  0.00  0.00    +0.220 A 
ATOM      9  N   UNL     1       9.610  25.094   8.179  0.00  0.00    -0.283 N 
ATOM     36  H   UNL     1       8.822  24.590   7.773  0.00  0.00    +0.155 HD
ATOM     37  N   UNL     1       8.359  27.075   8.059  0.00  0.00    -0.214 NA
BRANCH   4   3
ATOM      1  C   UNL     1       5.166  30.856   7.659  0.00  0.00    +0.020 A 
ATOM      2  C   UNL     1       6.450  30.360   8.099  0.00  0.00    +0.013 A 
ATOM      3  C   UNL     1       6.860  28.992   7.808  0.00  0.00    +0.019 A 
ATOM     38  C   UNL     1       5.940  28.145   7.063  0.00  0.00    +0.120 A 
ATOM     39  N   UNL     1       4.710  28.650   6.653  0.00  0.00    -0.263 NA
ATOM     40  C   UNL     1       4.304  29.964   6.929  0.00  0.00    +0.111 A 
ENDBRANCH   4   3
ENDBRANCH  10   9
BRANCH  12  13
ATOM     13  N   UNL     1      14.355  24.007   7.153  0.00  0.00    -0.281 N 
ATOM     14  C   UNL     1      14.468  23.920   5.776  0.00  0.00    +0.248 C 
ATOM     30  O   UNL     1      13.592  23.500   5.035  0.00  0.00    -0.270 OA
ATOM     31  H   UNL     1      15.220  24.187   7.664  0.00  0.00    +0.155 HD
BRANCH  14  15
ATOM     15  C   UNL     1      15.745  24.349   5.128  0.00  0.00    +0.037 A 
ATOM     16  C   UNL     1      15.778  24.791   3.731  0.00  0.00    +0.013 A 
ATOM     17  C   UNL     1      17.025  25.183   3.125  0.00  0.00    +0.005 A 
ATOM     18  C   UNL     1      18.252  25.137   3.918  0.00  0.00    -0.033 A 
ATOM     28  C   UNL     1      18.190  24.700   5.302  0.00  0.00    +0.005 A 
ATOM     29  C   UNL     1      16.969  24.313   5.899  0.00  0.00    +0.013 A 
BRANCH  18  19
ATOM     19  C   UNL     1      19.631  25.517   3.347  0.00  0.00    +0.119 C 
BRANCH  19  20
ATOM     20  N   UNL     1      19.705  26.743   2.498  0.00  0.00    -0.302 NA
ATOM     21  C   UNL     1      21.068  26.887   1.815  0.00  0.00    +0.066 C 
ATOM     22  C   UNL     1      21.121  28.163   0.913  0.00  0.00    -0.064 C 
ATOM     23  N   UNL     1      20.808  29.397   1.762  0.00  0.00    +0.379 N 
ATOM     24  C   UNL     1      20.913  30.604   0.930  0.00  0.00    -0.096 C 
ATOM     25  H   UNL     1      21.585  29.466   2.558  0.00  0.00    -0.082 HD
ATOM     26  C   UNL     1      19.455  29.261   2.447  0.00  0.00    -0.064 C 
ATOM     27  C   UNL     1      19.403  27.974   3.317  0.00  0.00    +0.066 C 
ENDBRANCH  19  20
ENDBRANCH  18  19
ENDBRANCH  14  15
ENDBRANCH  12  13
TORSDOF 6
ENDMDL
