MODEL 1
REMARK VINA RESULT:      -7.7      0.000      0.000
REMARK  Name = C:\Users\Docking\Desktop\test protocol\1iep_ligandH.pdb
REMARK  8 active torsions:
REMARK  status: ('A' for Active; 'I' for Inactive)
REMARK    1  A    between atoms: _5  and  _11
REMARK    2  A    between atoms: _19  and  _21
REMARK    3  A    between atoms: _22  and  _66
REMARK    4  A    between atoms: _27  and  _30
REMARK    5  A    between atoms: _32  and  _33
REMARK    6  A    between atoms: _38  and  _43
REMARK    7  A    between atoms: _43  and  _46
REMARK    8  A    between atoms: _53  and  _55
REMARK                            x       y       z     vdW  Elec       q    Type
REMARK                         _______ _______ _______ _____ _____    ______ ____
ROOT
ATOM     10  C   UNL     1       0.815  10.797  31.275  0.00  0.00    +0.038 A 
ATOM     11  C   UNL     1       1.188   9.824  30.313  0.00  0.00    +0.047 A 
ATOM     12  C   UNL     1       2.118   8.756  30.645  0.00  0.00    +0.035 A 
ATOM     32  C   UNL     1       2.647   8.708  31.968  0.00  0.00    +0.024 A 
ATOM     33  C   UNL     1       2.279   9.690  32.958  0.00  0.00    +0.007 A 
ATOM     34  C   UNL     1       1.364  10.747  32.635  0.00  0.00    -0.029 A 
ATOM     35  C   UNL     1       1.009  11.776  33.734  0.00  0.00    +0.045 C 
ENDROOT
BRANCH  10   9
ATOM      4  C   UNL     1      -3.636  12.435  30.534  0.00  0.00    +0.077 A 
ATOM      5  C   UNL     1      -4.223  11.177  30.896  0.00  0.00    +0.048 A 
ATOM      6  C   UNL     1      -3.344  10.132  31.260  0.00  0.00    +0.116 A 
ATOM      7  N   UNL     1      -1.982  10.341  31.258  0.00  0.00    -0.223 NA
ATOM      8  C   UNL     1      -1.449  11.566  30.902  0.00  0.00    +0.220 A 
ATOM      9  N   UNL     1      -0.082  11.801  30.902  0.00  0.00    -0.283 N 
ATOM     36  H   UNL     1       0.272  12.716  30.626  0.00  0.00    +0.155 HD
ATOM     37  N   UNL     1      -2.267  12.579  30.550  0.00  0.00    -0.214 NA
BRANCH   4   3
ATOM      1  C   UNL     1      -6.612  14.839  29.719  0.00  0.00    +0.020 A 
ATOM      2  C   UNL     1      -5.890  13.653  30.118  0.00  0.00    +0.013 A 
ATOM      3  C   UNL     1      -4.433  13.636  30.130  0.00  0.00    +0.019 A 
ATOM     38  C   UNL     1      -3.730  14.846  29.731  0.00  0.00    +0.120 A 
ATOM     39  N   UNL     1      -4.452  15.973  29.350  0.00  0.00    -0.263 NA
ATOM     40  C   UNL     1      -5.854  16.001  29.333  0.00  0.00    +0.111 A 
ENDBRANCH   4   3
ENDBRANCH  10   9
BRANCH  12  13
ATOM     13  N   UNL     1       2.541   7.745  29.708  0.00  0.00    -0.281 N 
ATOM     14  C   UNL     1       1.934   6.530  29.436  0.00  0.00    +0.248 C 
ATOM     30  O   UNL     1       1.049   6.032  30.115  0.00  0.00    -0.270 OA
ATOM     31  H   UNL     1       3.390   7.950  29.182  0.00  0.00    +0.155 HD
BRANCH  14  15
ATOM     15  C   UNL     1       2.386   5.748  28.245  0.00  0.00    +0.037 A 
ATOM     16  C   UNL     1       3.095   6.393  27.137  0.00  0.00    +0.013 A 
ATOM     17  C   UNL     1       3.505   5.619  25.992  0.00  0.00    +0.005 A 
ATOM     18  C   UNL     1       3.208   4.189  25.951  0.00  0.00    -0.033 A 
ATOM     28  C   UNL     1       2.509   3.573  27.067  0.00  0.00    +0.005 A 
ATOM     29  C   UNL     1       2.104   4.329  28.190  0.00  0.00    +0.013 A 
BRANCH  18  19
ATOM     19  C   UNL     1       3.590   3.289  24.761  0.00  0.00    +0.119 C 
BRANCH  19  20
ATOM     20  N   UNL     1       4.992   2.778  24.711  0.00  0.00    -0.302 NA
ATOM     21  C   UNL     1       5.960   3.812  24.129  0.00  0.00    +0.066 C 
ATOM     22  C   UNL     1       7.426   3.270  24.106  0.00  0.00    -0.064 C 
ATOM     23  N   UNL     1       7.473   1.970  23.300  0.00  0.00    +0.379 N 
ATOM     24  C   UNL     1       8.860   1.488  23.228  0.00  0.00    -0.096 C 
ATOM     25  H   UNL     1       7.141   2.204  22.262  0.00  0.00    -0.082 HD
ATOM     26  C   UNL     1       6.512   0.937  23.871  0.00  0.00    -0.064 C 
ATOM     27  C   UNL     1       5.062   1.497  23.917  0.00  0.00    +0.066 C 
ENDBRANCH  19  20
ENDBRANCH  18  19
ENDBRANCH  14  15
ENDBRANCH  12  13
TORSDOF 6
ENDMDL
MODEL 2
REMARK VINA RESULT:      -7.6     11.538     18.388
REMARK  Name = C:\Users\Docking\Desktop\test protocol\1iep_ligandH.pdb
REMARK  8 active torsions:
REMARK  status: ('A' for Active; 'I' for Inactive)
REMARK    1  A    between atoms: _5  and  _11
REMARK    2  A    between atoms: _19  and  _21
REMARK    3  A    between atoms: _22  and  _66
REMARK    4  A    between atoms: _27  and  _30
REMARK    5  A    between atoms: _32  and  _33
REMARK    6  A    between atoms: _38  and  _43
REMARK    7  A    between atoms: _43  and  _46
REMARK    8  A    between atoms: _53  and  _55
REMARK                            x       y       z     vdW  Elec       q    Type
REMARK                         _______ _______ _______ _____ _____    ______ ____
ROOT
ATOM     10  C   UNL     1       2.171  -2.810  13.199  0.00  0.00    +0.038 A 
ATOM     11  C   UNL     1       2.672  -2.617  14.512  0.00  0.00    +0.047 A 
ATOM     12  C   UNL     1       2.487  -3.626  15.543  0.00  0.00    +0.035 A 
ATOM     32  C   UNL     1       1.788  -4.821  15.202  0.00  0.00    +0.024 A 
ATOM     33  C   UNL     1       1.271  -5.033  13.873  0.00  0.00    +0.007 A 
ATOM     34  C   UNL     1       1.449  -4.040  12.852  0.00  0.00    -0.029 A 
ATOM     35  C   UNL     1       0.867  -4.317  11.446  0.00  0.00    +0.045 C 
ENDROOT
BRANCH  10   9
ATOM      4  C   UNL     1       1.046   1.387  11.159  0.00  0.00    +0.077 A 
ATOM      5  C   UNL     1      -0.063   1.588  12.047  0.00  0.00    +0.048 A 
ATOM      6  C   UNL     1      -0.315   0.585  13.009  0.00  0.00    +0.116 A 
ATOM      7  N   UNL     1       0.490  -0.532  13.071  0.00  0.00    -0.223 NA
ATOM      8  C   UNL     1       1.550  -0.696  12.198  0.00  0.00    +0.220 A 
ATOM      9  N   UNL     1       2.377  -1.808  12.247  0.00  0.00    -0.283 N 
ATOM     36  H   UNL     1       3.144  -1.896  11.582  0.00  0.00    +0.155 HD
ATOM     37  N   UNL     1       1.810   0.247  11.269  0.00  0.00    -0.214 NA
BRANCH   4   3
ATOM      1  C   UNL     1       1.159   3.423   7.821  0.00  0.00    +0.020 A 
ATOM      2  C   UNL     1       0.737   2.468   8.819  0.00  0.00    +0.013 A 
ATOM      3  C   UNL     1       1.441   2.359  10.091  0.00  0.00    +0.019 A 
ATOM     38  C   UNL     1       2.576   3.239  10.323  0.00  0.00    +0.120 A 
ATOM     39  N   UNL     1       2.960   4.149   9.343  0.00  0.00    -0.263 NA
ATOM     40  C   UNL     1       2.291   4.261   8.115  0.00  0.00    +0.111 A 
ENDBRANCH   4   3
ENDBRANCH  10   9
BRANCH  12  13
ATOM     13  N   UNL     1       2.966  -3.482  16.895  0.00  0.00    -0.281 N 
ATOM     14  C   UNL     1       4.203  -3.844  17.403  0.00  0.00    +0.248 C 
ATOM     30  O   UNL     1       5.013  -4.545  16.816  0.00  0.00    -0.270 OA
ATOM     31  H   UNL     1       2.314  -3.064  17.559  0.00  0.00    +0.155 HD
BRANCH  14  15
ATOM     15  C   UNL     1       4.591  -3.370  18.767  0.00  0.00    +0.037 A 
ATOM     16  C   UNL     1       4.872  -4.316  19.849  0.00  0.00    +0.013 A 
ATOM     17  C   UNL     1       5.227  -3.832  21.159  0.00  0.00    +0.005 A 
ATOM     18  C   UNL     1       5.304  -2.392  21.394  0.00  0.00    -0.033 A 
ATOM     28  C   UNL     1       5.025  -1.475  20.301  0.00  0.00    +0.005 A 
ATOM     29  C   UNL     1       4.676  -1.947  19.016  0.00  0.00    +0.013 A 
BRANCH  18  19
ATOM     19  C   UNL     1       5.655  -1.786  22.766  0.00  0.00    +0.119 C 
BRANCH  19  20
ATOM     20  N   UNL     1       6.109  -0.364  22.789  0.00  0.00    -0.302 NA
ATOM     21  C   UNL     1       7.348  -0.171  23.668  0.00  0.00    +0.066 C 
ATOM     22  C   UNL     1       7.823   1.319  23.663  0.00  0.00    -0.064 C 
ATOM     23  N   UNL     1       6.679   2.218  24.134  0.00  0.00    +0.379 N 
ATOM     24  C   UNL     1       7.141   3.613  24.185  0.00  0.00    -0.096 C 
ATOM     25  H   UNL     1       6.414   1.911  25.172  0.00  0.00    -0.082 HD
ATOM     26  C   UNL     1       5.443   2.031  23.267  0.00  0.00    -0.064 C 
ATOM     27  C   UNL     1       4.996   0.542  23.255  0.00  0.00    +0.066 C 
ENDBRANCH  19  20
ENDBRANCH  18  19
ENDBRANCH  14  15
ENDBRANCH  12  13
TORSDOF 6
ENDMDL
MODEL 3
REMARK VINA RESULT:      -7.5      8.806     14.947
REMARK  Name = C:\Users\Docking\Desktop\test protocol\1iep_ligandH.pdb
REMARK  8 active torsions:
REMARK  status: ('A' for Active; 'I' for Inactive)
REMARK    1  A    between atoms: _5  and  _11
REMARK    2  A    between atoms: _19  and  _21
REMARK    3  A    between atoms: _22  and  _66
REMARK    4  A    between atoms: _27  and  _30
REMARK    5  A    between atoms: _32  and  _33
REMARK    6  A    between atoms: _38  and  _43
REMARK    7  A    between atoms: _43  and  _46
REMARK    8  A    between atoms: _53  and  _55
REMARK                            x       y       z     vdW  Elec       q    Type
REMARK                         _______ _______ _______ _____ _____    ______ ____
ROOT
ATOM     10  C   UNL     1       5.314  -0.777  22.132  0.00  0.00    +0.038 A 
ATOM     11  C   UNL     1       4.911  -0.804  20.772  0.00  0.00    +0.047 A 
ATOM     12  C   UNL     1       5.585  -1.655  19.804  0.00  0.00    +0.035 A 
ATOM     32  C   UNL     1       6.665  -2.468  20.256  0.00  0.00    +0.024 A 
ATOM     33  C   UNL     1       7.089  -2.452  21.634  0.00  0.00    +0.007 A 
ATOM     34  C   UNL     1       6.429  -1.613  22.593  0.00  0.00    -0.029 A 
ATOM     35  C   UNL     1       6.930  -1.632  24.056  0.00  0.00    +0.045 C 
ENDROOT
BRANCH  10   9
ATOM      4  C   UNL     1       4.929   3.262  24.696  0.00  0.00    +0.077 A 
ATOM      5  C   UNL     1       6.209   3.736  24.252  0.00  0.00    +0.048 A 
ATOM      6  C   UNL     1       6.937   2.907  23.369  0.00  0.00    +0.116 A 
ATOM      7  N   UNL     1       6.415   1.696  22.968  0.00  0.00    -0.223 NA
ATOM      8  C   UNL     1       5.179   1.268  23.416  0.00  0.00    +0.220 A 
ATOM      9  N   UNL     1       4.631   0.058  23.019  0.00  0.00    -0.283 N 
ATOM     36  H   UNL     1       3.720  -0.225  23.378  0.00  0.00    +0.155 HD
ATOM     37  N   UNL     1       4.464   2.041  24.260  0.00  0.00    -0.214 NA
BRANCH   4   3
ATOM      1  C   UNL     1       1.781   4.863  26.376  0.00  0.00    +0.020 A 
ATOM      2  C   UNL     1       2.595   4.113  25.448  0.00  0.00    +0.013 A 
ATOM      3  C   UNL     1       4.039   4.026  25.626  0.00  0.00    +0.019 A 
ATOM     38  C   UNL     1       4.632   4.714  26.763  0.00  0.00    +0.120 A 
ATOM     39  N   UNL     1       3.823   5.430  27.640  0.00  0.00    -0.263 NA
ATOM     40  C   UNL     1       2.433   5.522  27.477  0.00  0.00    +0.111 A 
ENDBRANCH   4   3
ENDBRANCH  10   9
BRANCH  12  13
ATOM     13  N   UNL     1       5.225  -1.718  18.409  0.00  0.00    -0.281 N 
ATOM     14  C   UNL     1       4.490  -2.698  17.763  0.00  0.00    +0.248 C 
ATOM     30  O   UNL     1       4.210  -3.784  18.248  0.00  0.00    -0.270 OA
ATOM     31  H   UNL     1       5.551  -0.946  17.828  0.00  0.00    +0.155 HD
BRANCH  14  15
ATOM     15  C   UNL     1       4.008  -2.440  16.372  0.00  0.00    +0.037 A 
ATOM     16  C   UNL     1       4.752  -1.569  15.459  0.00  0.00    +0.013 A 
ATOM     17  C   UNL     1       4.256  -1.323  14.128  0.00  0.00    +0.005 A 
ATOM     18  C   UNL     1       3.008  -1.951  13.701  0.00  0.00    -0.033 A 
ATOM     28  C   UNL     1       2.293  -2.815  14.626  0.00  0.00    +0.005 A 
ATOM     29  C   UNL     1       2.775  -3.058  15.931  0.00  0.00    +0.013 A 
BRANCH  18  19
ATOM     19  C   UNL     1       2.394  -1.729  12.307  0.00  0.00    +0.119 C 
BRANCH  19  20
ATOM     20  N   UNL     1       2.197  -2.933  11.446  0.00  0.00    -0.302 NA
ATOM     21  C   UNL     1       3.440  -3.827  11.416  0.00  0.00    +0.066 C 
ATOM     22  C   UNL     1       3.209  -5.093  10.529  0.00  0.00    -0.064 C 
ATOM     23  N   UNL     1       2.821  -4.658   9.115  0.00  0.00    +0.379 N 
ATOM     24  C   UNL     1       2.660  -5.846   8.263  0.00  0.00    -0.096 C 
ATOM     25  H   UNL     1       3.665  -4.058   8.703  0.00  0.00    -0.082 HD
ATOM     26  C   UNL     1       1.588  -3.767   9.136  0.00  0.00    -0.064 C 
ATOM     27  C   UNL     1       1.817  -2.526  10.043  0.00  0.00    +0.066 C 
ENDBRANCH  19  20
ENDBRANCH  18  19
ENDBRANCH  14  15
ENDBRANCH  12  13
TORSDOF 6
ENDMDL
MODEL 4
REMARK VINA RESULT:      -7.5      8.204     14.564
REMARK  Name = C:\Users\Docking\Desktop\test protocol\1iep_ligandH.pdb
REMARK  8 active torsions:
REMARK  status: ('A' for Active; 'I' for Inactive)
REMARK    1  A    between atoms: _5  and  _11
REMARK    2  A    between atoms: _19  and  _21
REMARK    3  A    between atoms: _22  and  _66
REMARK    4  A    between atoms: _27  and  _30
REMARK    5  A    between atoms: _32  and  _33
REMARK    6  A    between atoms: _38  and  _43
REMARK    7  A    between atoms: _43  and  _46
REMARK    8  A    between atoms: _53  and  _55
REMARK                            x       y       z     vdW  Elec       q    Type
REMARK                         _______ _______ _______ _____ _____    ______ ____
ROOT
ATOM     10  C   UNL     1       5.040  -0.846  22.220  0.00  0.00    +0.038 A 
ATOM     11  C   UNL     1       4.692  -0.801  20.846  0.00  0.00    +0.047 A 
ATOM     12  C   UNL     1       5.306  -1.702  19.883  0.00  0.00    +0.035 A 
ATOM     32  C   UNL     1       6.271  -2.639  20.356  0.00  0.00    +0.024 A 
ATOM     33  C   UNL     1       6.639  -2.697  21.749  0.00  0.00    +0.007 A 
ATOM     34  C   UNL     1       6.037  -1.810  22.702  0.00  0.00    -0.029 A 
ATOM     35  C   UNL     1       6.474  -1.913  24.182  0.00  0.00    +0.045 C 
ENDROOT
BRANCH  10   9
ATOM      4  C   UNL     1       4.927   3.246  24.727  0.00  0.00    +0.077 A 
ATOM      5  C   UNL     1       6.229   3.634  24.264  0.00  0.00    +0.048 A 
ATOM      6  C   UNL     1       6.897   2.749  23.388  0.00  0.00    +0.116 A 
ATOM      7  N   UNL     1       6.298   1.567  23.009  0.00  0.00    -0.223 NA
ATOM      8  C   UNL     1       5.043   1.222  23.475  0.00  0.00    +0.220 A 
ATOM      9  N   UNL     1       4.419   0.042  23.100  0.00  0.00    -0.283 N 
ATOM     36  H   UNL     1       3.495  -0.180  23.472  0.00  0.00    +0.155 HD
ATOM     37  N   UNL     1       4.385   2.049  24.313  0.00  0.00    -0.214 NA
BRANCH   4   3
ATOM      1  C   UNL     1       1.914   5.124  26.367  0.00  0.00    +0.020 A 
ATOM      2  C   UNL     1       2.673   4.315  25.441  0.00  0.00    +0.013 A 
ATOM      3  C   UNL     1       4.095   4.075  25.654  0.00  0.00    +0.019 A 
ATOM     38  C   UNL     1       4.723   4.672  26.822  0.00  0.00    +0.120 A 
ATOM     39  N   UNL     1       3.967   5.448  27.696  0.00  0.00    -0.263 NA
ATOM     40  C   UNL     1       2.599   5.687  27.501  0.00  0.00    +0.111 A 
ENDBRANCH   4   3
ENDBRANCH  10   9
BRANCH  12  13
ATOM     13  N   UNL     1       4.998  -1.697  18.475  0.00  0.00    -0.281 N 
ATOM     14  C   UNL     1       4.327  -2.666  17.747  0.00  0.00    +0.248 C 
ATOM     30  O   UNL     1       4.076  -3.789  18.157  0.00  0.00    -0.270 OA
ATOM     31  H   UNL     1       5.313  -0.880  17.951  0.00  0.00    +0.155 HD
BRANCH  14  15
ATOM     15  C   UNL     1       3.884  -2.345  16.356  0.00  0.00    +0.037 A 
ATOM     16  C   UNL     1       2.729  -3.016  15.753  0.00  0.00    +0.013 A 
ATOM     17  C   UNL     1       2.333  -2.700  14.403  0.00  0.00    +0.005 A 
ATOM     18  C   UNL     1       3.093  -1.707  13.647  0.00  0.00    -0.033 A 
ATOM     28  C   UNL     1       4.231  -1.054  14.272  0.00  0.00    +0.005 A 
ATOM     29  C   UNL     1       4.623  -1.361  15.594  0.00  0.00    +0.013 A 
BRANCH  18  19
ATOM     19  C   UNL     1       2.755  -1.324  12.194  0.00  0.00    +0.119 C 
BRANCH  19  20
ATOM     20  N   UNL     1       2.450   0.112  11.919  0.00  0.00    -0.302 NA
ATOM     21  C   UNL     1       1.342   0.274  10.874  0.00  0.00    +0.066 C 
ATOM     22  C   UNL     1       1.020   1.782  10.615  0.00  0.00    -0.064 C 
ATOM     23  N   UNL     1       2.294   2.503  10.171  0.00  0.00    +0.379 N 
ATOM     24  C   UNL     1       1.982   3.908   9.871  0.00  0.00    -0.096 C 
ATOM     25  H   UNL     1       2.642   2.024   9.226  0.00  0.00    -0.082 HD
ATOM     26  C   UNL     1       3.401   2.345  11.204  0.00  0.00    -0.064 C 
ATOM     27  C   UNL     1       3.693   0.843  11.475  0.00  0.00    +0.066 C 
ENDBRANCH  19  20
ENDBRANCH  18  19
ENDBRANCH  14  15
ENDBRANCH  12  13
TORSDOF 6
ENDMDL
MODEL 5
REMARK VINA RESULT:      -7.5     13.507     18.096
REMARK  Name = C:\Users\Docking\Desktop\test protocol\1iep_ligandH.pdb
REMARK  8 active torsions:
REMARK  status: ('A' for Active; 'I' for Inactive)
REMARK    1  A    between atoms: _5  and  _11
REMARK    2  A    between atoms: _19  and  _21
REMARK    3  A    between atoms: _22  and  _66
REMARK    4  A    between atoms: _27  and  _30
REMARK    5  A    between atoms: _32  and  _33
REMARK    6  A    between atoms: _38  and  _43
REMARK    7  A    between atoms: _43  and  _46
REMARK    8  A    between atoms: _53  and  _55
REMARK                            x       y       z     vdW  Elec       q    Type
REMARK                         _______ _______ _______ _____ _____    ______ ____
ROOT
ATOM     10  C   UNL     1       2.553  -2.539  13.801  0.00  0.00    +0.038 A 
ATOM     11  C   UNL     1       2.993  -2.283  15.125  0.00  0.00    +0.047 A 
ATOM     12  C   UNL     1       2.810  -3.266  16.182  0.00  0.00    +0.035 A 
ATOM     32  C   UNL     1       2.177  -4.500  15.854  0.00  0.00    +0.024 A 
ATOM     33  C   UNL     1       1.723  -4.776  14.514  0.00  0.00    +0.007 A 
ATOM     34  C   UNL     1       1.898  -3.809  13.468  0.00  0.00    -0.029 A 
ATOM     35  C   UNL     1       1.386  -4.156  12.051  0.00  0.00    +0.045 C 
ENDROOT
BRANCH  10   9
ATOM      4  C   UNL     1       1.181   1.376  11.386  0.00  0.00    +0.077 A 
ATOM      5  C   UNL     1      -0.054   1.462  12.111  0.00  0.00    +0.048 A 
ATOM      6  C   UNL     1      -0.301   0.476  13.092  0.00  0.00    +0.116 A 
ATOM      7  N   UNL     1       0.625  -0.518  13.323  0.00  0.00    -0.223 NA
ATOM      8  C   UNL     1       1.806  -0.574  12.605  0.00  0.00    +0.220 A 
ATOM      9  N   UNL     1       2.755  -1.560  12.826  0.00  0.00    -0.283 N 
ATOM     36  H   UNL     1       3.610  -1.570  12.270  0.00  0.00    +0.155 HD
ATOM     37  N   UNL     1       2.065   0.356  11.661  0.00  0.00    -0.214 NA
BRANCH   4   3
ATOM      1  C   UNL     1       1.278   3.470   8.084  0.00  0.00    +0.020 A 
ATOM      2  C   UNL     1       0.843   2.518   9.080  0.00  0.00    +0.013 A 
ATOM      3  C   UNL     1       1.588   2.346  10.321  0.00  0.00    +0.019 A 
ATOM     38  C   UNL     1       2.777   3.159  10.525  0.00  0.00    +0.120 A 
ATOM     39  N   UNL     1       3.173   4.066   9.547  0.00  0.00    -0.263 NA
ATOM     40  C   UNL     1       2.465   4.239   8.348  0.00  0.00    +0.111 A 
ENDBRANCH   4   3
ENDBRANCH  10   9
BRANCH  12  13
ATOM     13  N   UNL     1       3.229  -3.059  17.546  0.00  0.00    -0.281 N 
ATOM     14  C   UNL     1       4.447  -3.383  18.121  0.00  0.00    +0.248 C 
ATOM     30  O   UNL     1       5.289  -4.097  17.599  0.00  0.00    -0.270 OA
ATOM     31  H   UNL     1       2.544  -2.621  18.162  0.00  0.00    +0.155 HD
BRANCH  14  15
ATOM     15  C   UNL     1       4.769  -2.846  19.478  0.00  0.00    +0.037 A 
ATOM     16  C   UNL     1       4.991  -3.742  20.616  0.00  0.00    +0.013 A 
ATOM     17  C   UNL     1       5.284  -3.198  21.919  0.00  0.00    +0.005 A 
ATOM     18  C   UNL     1       5.358  -1.748  22.089  0.00  0.00    -0.033 A 
ATOM     28  C   UNL     1       5.139  -0.883  20.942  0.00  0.00    +0.005 A 
ATOM     29  C   UNL     1       4.851  -1.413  19.664  0.00  0.00    +0.013 A 
BRANCH  18  19
ATOM     19  C   UNL     1       5.645  -1.080  23.447  0.00  0.00    +0.119 C 
BRANCH  19  20
ATOM     20  N   UNL     1       6.987  -1.317  24.056  0.00  0.00    -0.302 NA
ATOM     21  C   UNL     1       6.977  -2.501  25.027  0.00  0.00    +0.066 C 
ATOM     22  C   UNL     1       8.394  -2.749  25.638  0.00  0.00    -0.064 C 
ATOM     23  N   UNL     1       8.873  -1.477  26.340  0.00  0.00    +0.379 N 
ATOM     24  C   UNL     1      10.180  -1.725  26.966  0.00  0.00    -0.096 C 
ATOM     25  H   UNL     1       8.147  -1.247  27.154  0.00  0.00    -0.082 HD
ATOM     26  C   UNL     1       8.884  -0.294  25.383  0.00  0.00    -0.064 C 
ATOM     27  C   UNL     1       7.478  -0.075  24.759  0.00  0.00    +0.066 C 
ENDBRANCH  19  20
ENDBRANCH  18  19
ENDBRANCH  14  15
ENDBRANCH  12  13
TORSDOF 6
ENDMDL
