MODEL 1
REMARK VINA RESULT:      -7.8      0.000      0.000
REMARK  Name = C:\Users\Docking\Desktop\test protocol\1iep_ligandH.pdb
REMARK  8 active torsions:
REMARK  status: ('A' for Active; 'I' for Inactive)
REMARK    1  A    between atoms: _5  and  _11
REMARK    2  A    between atoms: _19  and  _21
REMARK    3  A    between atoms: _22  and  _66
REMARK    4  A    between atoms: _27  and  _30
REMARK    5  A    between atoms: _32  and  _33
REMARK    6  A    between atoms: _38  and  _43
REMARK    7  A    between atoms: _43  and  _46
REMARK    8  A    between atoms: _53  and  _55
REMARK                            x       y       z     vdW  Elec       q    Type
REMARK                         _______ _______ _______ _____ _____    ______ ____
ROOT
ATOM     10  C   UNL     1     -10.487  23.806  25.158  0.00  0.00    +0.038 A 
ATOM     11  C   UNL     1     -10.243  22.722  26.040  0.00  0.00    +0.047 A 
ATOM     12  C   UNL     1      -9.817  21.425  25.539  0.00  0.00    +0.035 A 
ATOM     32  C   UNL     1      -9.647  21.267  24.132  0.00  0.00    +0.024 A 
ATOM     33  C   UNL     1      -9.892  22.357  23.221  0.00  0.00    +0.007 A 
ATOM     34  C   UNL     1     -10.315  23.639  23.710  0.00  0.00    -0.029 A 
ATOM     35  C   UNL     1     -10.569  24.770  22.687  0.00  0.00    +0.045 C 
ENDROOT
BRANCH  10   9
ATOM      4  C   UNL     1     -13.868  27.033  26.251  0.00  0.00    +0.077 A 
ATOM      5  C   UNL     1     -14.907  26.225  25.681  0.00  0.00    +0.048 A 
ATOM      6  C   UNL     1     -14.529  24.989  25.111  0.00  0.00    +0.116 A 
ATOM      7  N   UNL     1     -13.207  24.600  25.116  0.00  0.00    -0.223 NA
ATOM      8  C   UNL     1     -12.229  25.404  25.672  0.00  0.00    +0.220 A 
ATOM      9  N   UNL     1     -10.894  25.029  25.694  0.00  0.00    -0.283 N 
ATOM     36  H   UNL     1     -10.202  25.654  26.107  0.00  0.00    +0.155 HD
ATOM     37  N   UNL     1     -12.564  26.590  26.221  0.00  0.00    -0.214 NA
BRANCH   4   3
ATOM      1  C   UNL     1     -15.062  30.699  26.909  0.00  0.00    +0.020 A 
ATOM      2  C   UNL     1     -14.857  29.433  26.244  0.00  0.00    +0.013 A 
ATOM      3  C   UNL     1     -14.109  28.363  26.894  0.00  0.00    +0.019 A 
ATOM     38  C   UNL     1     -13.579  28.609  28.226  0.00  0.00    +0.120 A 
ATOM     39  N   UNL     1     -13.792  29.839  28.841  0.00  0.00    -0.263 NA
ATOM     40  C   UNL     1     -14.508  30.876  28.226  0.00  0.00    +0.111 A 
ENDBRANCH   4   3
ENDBRANCH  10   9
BRANCH  12  13
ATOM     13  N   UNL     1      -9.561  20.286  26.385  0.00  0.00    -0.281 N 
ATOM     14  C   UNL     1     -10.261  19.091  26.440  0.00  0.00    +0.248 C 
ATOM     30  O   UNL     1     -11.349  18.903  25.916  0.00  0.00    -0.270 OA
ATOM     31  H   UNL     1      -8.769  20.371  27.022  0.00  0.00    +0.155 HD
BRANCH  14  15
ATOM     15  C   UNL     1      -9.674  17.945  27.198  0.00  0.00    +0.037 A 
ATOM     16  C   UNL     1      -8.251  17.913  27.545  0.00  0.00    +0.013 A 
ATOM     17  C   UNL     1      -7.707  16.786  28.262  0.00  0.00    +0.005 A 
ATOM     18  C   UNL     1      -8.588  15.683  28.638  0.00  0.00    -0.033 A 
ATOM     28  C   UNL     1      -9.996  15.744  28.285  0.00  0.00    +0.005 A 
ATOM     29  C   UNL     1     -10.533  16.845  27.582  0.00  0.00    +0.013 A 
BRANCH  18  19
ATOM     19  C   UNL     1      -8.089  14.432  29.385  0.00  0.00    +0.119 C 
BRANCH  19  20
ATOM     20  N   UNL     1      -6.631  14.358  29.698  0.00  0.00    -0.302 NA
ATOM     21  C   UNL     1      -5.877  13.459  28.714  0.00  0.00    +0.066 C 
ATOM     22  C   UNL     1      -4.349  13.411  29.042  0.00  0.00    -0.064 C 
ATOM     23  N   UNL     1      -4.154  12.925  30.479  0.00  0.00    +0.379 N 
ATOM     24  C   UNL     1      -2.717  12.823  30.772  0.00  0.00    -0.096 C 
ATOM     25  H   UNL     1      -4.588  11.900  30.551  0.00  0.00    -0.082 HD
ATOM     26  C   UNL     1      -4.903  13.812  31.464  0.00  0.00    -0.064 C 
ATOM     27  C   UNL     1      -6.415  13.876  31.111  0.00  0.00    +0.066 C 
ENDBRANCH  19  20
ENDBRANCH  18  19
ENDBRANCH  14  15
ENDBRANCH  12  13
TORSDOF 6
ENDMDL
MODEL 2
REMARK VINA RESULT:      -7.8      2.575      3.376
REMARK  Name = C:\Users\Docking\Desktop\test protocol\1iep_ligandH.pdb
REMARK  8 active torsions:
REMARK  status: ('A' for Active; 'I' for Inactive)
REMARK    1  A    between atoms: _5  and  _11
REMARK    2  A    between atoms: _19  and  _21
REMARK    3  A    between atoms: _22  and  _66
REMARK    4  A    between atoms: _27  and  _30
REMARK    5  A    between atoms: _32  and  _33
REMARK    6  A    between atoms: _38  and  _43
REMARK    7  A    between atoms: _43  and  _46
REMARK    8  A    between atoms: _53  and  _55
REMARK                            x       y       z     vdW  Elec       q    Type
REMARK                         _______ _______ _______ _____ _____    ______ ____
ROOT
ATOM     10  C   UNL     1     -10.915  23.751  25.189  0.00  0.00    +0.038 A 
ATOM     11  C   UNL     1     -10.996  22.642  26.070  0.00  0.00    +0.047 A 
ATOM     12  C   UNL     1     -10.791  21.284  25.591  0.00  0.00    +0.035 A 
ATOM     32  C   UNL     1     -10.502  21.092  24.209  0.00  0.00    +0.024 A 
ATOM     33  C   UNL     1     -10.417  22.207  23.299  0.00  0.00    +0.007 A 
ATOM     34  C   UNL     1     -10.620  23.549  23.765  0.00  0.00    -0.029 A 
ATOM     35  C   UNL     1     -10.523  24.706  22.744  0.00  0.00    +0.045 C 
ENDROOT
BRANCH  10   9
ATOM      4  C   UNL     1     -13.754  27.450  26.325  0.00  0.00    +0.077 A 
ATOM      5  C   UNL     1     -14.922  26.782  25.829  0.00  0.00    +0.048 A 
ATOM      6  C   UNL     1     -14.749  25.491  25.283  0.00  0.00    +0.116 A 
ATOM      7  N   UNL     1     -13.496  24.920  25.242  0.00  0.00    -0.223 NA
ATOM      8  C   UNL     1     -12.389  25.592  25.727  0.00  0.00    +0.220 A 
ATOM      9  N   UNL     1     -11.120  25.033  25.702  0.00  0.00    -0.283 N 
ATOM     36  H   UNL     1     -10.328  25.565  26.064  0.00  0.00    +0.155 HD
ATOM     37  N   UNL     1     -12.528  26.827  26.252  0.00  0.00    -0.214 NA
BRANCH   4   3
ATOM      1  C   UNL     1     -12.987  30.532  28.609  0.00  0.00    +0.020 A 
ATOM      2  C   UNL     1     -12.928  29.198  28.058  0.00  0.00    +0.013 A 
ATOM      3  C   UNL     1     -13.776  28.818  26.935  0.00  0.00    +0.019 A 
ATOM     38  C   UNL     1     -14.679  29.819  26.388  0.00  0.00    +0.120 A 
ATOM     39  N   UNL     1     -14.716  31.095  26.940  0.00  0.00    -0.263 NA
ATOM     40  C   UNL     1     -13.906  31.473  28.022  0.00  0.00    +0.111 A 
ENDBRANCH   4   3
ENDBRANCH  10   9
BRANCH  12  13
ATOM     13  N   UNL     1     -10.870  20.119  26.437  0.00  0.00    -0.281 N 
ATOM     14  C   UNL     1     -11.932  19.242  26.582  0.00  0.00    +0.248 C 
ATOM     30  O   UNL     1     -13.062  19.450  26.164  0.00  0.00    -0.270 OA
ATOM     31  H   UNL     1     -10.041  19.916  26.996  0.00  0.00    +0.155 HD
BRANCH  14  15
ATOM     15  C   UNL     1     -11.712  17.955  27.310  0.00  0.00    +0.037 A 
ATOM     16  C   UNL     1     -12.790  16.975  27.463  0.00  0.00    +0.013 A 
ATOM     17  C   UNL     1     -12.555  15.749  28.184  0.00  0.00    +0.005 A 
ATOM     18  C   UNL     1     -11.235  15.496  28.757  0.00  0.00    -0.033 A 
ATOM     28  C   UNL     1     -10.182  16.483  28.585  0.00  0.00    +0.005 A 
ATOM     29  C   UNL     1     -10.409  17.687  27.880  0.00  0.00    +0.013 A 
BRANCH  18  19
ATOM     19  C   UNL     1     -10.901  14.225  29.560  0.00  0.00    +0.119 C 
BRANCH  19  20
ATOM     20  N   UNL     1     -10.809  14.359  31.044  0.00  0.00    -0.302 NA
ATOM     21  C   UNL     1     -11.825  15.363  31.595  0.00  0.00    +0.066 C 
ATOM     22  C   UNL     1     -11.729  15.474  33.152  0.00  0.00    -0.064 C 
ATOM     23  N   UNL     1     -10.306  15.872  33.545  0.00  0.00    +0.379 N 
ATOM     24  C   UNL     1     -10.227  16.034  35.005  0.00  0.00    -0.096 C 
ATOM     25  H   UNL     1     -10.093  16.864  33.083  0.00  0.00    -0.082 HD
ATOM     26  C   UNL     1      -9.289  14.880  32.999  0.00  0.00    -0.064 C 
ATOM     27  C   UNL     1      -9.412  14.756  31.455  0.00  0.00    +0.066 C 
ENDBRANCH  19  20
ENDBRANCH  18  19
ENDBRANCH  14  15
ENDBRANCH  12  13
TORSDOF 6
ENDMDL
MODEL 3
REMARK VINA RESULT:      -7.8      3.678     12.496
REMARK  Name = C:\Users\Docking\Desktop\test protocol\1iep_ligandH.pdb
REMARK  8 active torsions:
REMARK  status: ('A' for Active; 'I' for Inactive)
REMARK    1  A    between atoms: _5  and  _11
REMARK    2  A    between atoms: _19  and  _21
REMARK    3  A    between atoms: _22  and  _66
REMARK    4  A    between atoms: _27  and  _30
REMARK    5  A    between atoms: _32  and  _33
REMARK    6  A    between atoms: _38  and  _43
REMARK    7  A    between atoms: _43  and  _46
REMARK    8  A    between atoms: _53  and  _55
REMARK                            x       y       z     vdW  Elec       q    Type
REMARK                         _______ _______ _______ _____ _____    ______ ____
ROOT
ATOM     10  C   UNL     1      -7.766  15.863  29.561  0.00  0.00    +0.038 A 
ATOM     11  C   UNL     1      -8.171  17.031  28.866  0.00  0.00    +0.047 A 
ATOM     12  C   UNL     1      -7.238  17.770  28.030  0.00  0.00    +0.035 A 
ATOM     32  C   UNL     1      -5.901  17.290  27.923  0.00  0.00    +0.024 A 
ATOM     33  C   UNL     1      -5.472  16.106  28.624  0.00  0.00    +0.007 A 
ATOM     34  C   UNL     1      -6.387  15.374  29.452  0.00  0.00    -0.029 A 
ATOM     35  C   UNL     1      -5.870  14.114  30.185  0.00  0.00    +0.045 C 
ENDROOT
BRANCH  10   9
ATOM      4  C   UNL     1     -10.219  15.279  33.646  0.00  0.00    +0.077 A 
ATOM      5  C   UNL     1      -9.557  16.388  34.271  0.00  0.00    +0.048 A 
ATOM      6  C   UNL     1      -8.587  17.078  33.509  0.00  0.00    +0.116 A 
ATOM      7  N   UNL     1      -8.308  16.680  32.220  0.00  0.00    -0.223 NA
ATOM      8  C   UNL     1      -8.963  15.605  31.648  0.00  0.00    +0.220 A 
ATOM      9  N   UNL     1      -8.704  15.192  30.350  0.00  0.00    -0.283 N 
ATOM     36  H   UNL     1      -9.203  14.390  29.967  0.00  0.00    +0.155 HD
ATOM     37  N   UNL     1      -9.892  14.929  32.355  0.00  0.00    -0.214 NA
BRANCH   4   3
ATOM      1  C   UNL     1     -12.214  13.228  36.313  0.00  0.00    +0.020 A 
ATOM      2  C   UNL     1     -11.170  14.025  35.710  0.00  0.00    +0.013 A 
ATOM      3  C   UNL     1     -11.269  14.453  34.320  0.00  0.00    +0.019 A 
ATOM     38  C   UNL     1     -12.447  14.055  33.563  0.00  0.00    +0.120 A 
ATOM     39  N   UNL     1     -13.435  13.286  34.170  0.00  0.00    -0.263 NA
ATOM     40  C   UNL     1     -13.349  12.867  35.506  0.00  0.00    +0.111 A 
ENDBRANCH   4   3
ENDBRANCH  10   9
BRANCH  12  13
ATOM     13  N   UNL     1      -7.590  18.967  27.306  0.00  0.00    -0.281 N 
ATOM     14  C   UNL     1      -7.795  19.109  25.944  0.00  0.00    +0.248 C 
ATOM     30  O   UNL     1      -7.497  18.268  25.108  0.00  0.00    -0.270 OA
ATOM     31  H   UNL     1      -7.701  19.812  27.867  0.00  0.00    +0.155 HD
BRANCH  14  15
ATOM     15  C   UNL     1      -8.407  20.373  25.433  0.00  0.00    +0.037 A 
ATOM     16  C   UNL     1      -7.707  21.220  24.464  0.00  0.00    +0.013 A 
ATOM     17  C   UNL     1      -8.313  22.443  24.001  0.00  0.00    +0.005 A 
ATOM     18  C   UNL     1      -9.628  22.827  24.507  0.00  0.00    -0.033 A 
ATOM     28  C   UNL     1     -10.303  21.966  25.464  0.00  0.00    +0.005 A 
ATOM     29  C   UNL     1      -9.712  20.767  25.921  0.00  0.00    +0.013 A 
BRANCH  18  19
ATOM     19  C   UNL     1     -10.341  24.125  24.084  0.00  0.00    +0.119 C 
BRANCH  19  20
ATOM     20  N   UNL     1     -11.800  24.233  24.384  0.00  0.00    -0.302 NA
ATOM     21  C   UNL     1     -12.640  24.368  23.110  0.00  0.00    +0.066 C 
ATOM     22  C   UNL     1     -14.165  24.457  23.441  0.00  0.00    -0.064 C 
ATOM     23  N   UNL     1     -14.412  25.639  24.380  0.00  0.00    +0.379 N 
ATOM     24  C   UNL     1     -15.853  25.761  24.647  0.00  0.00    -0.096 C 
ATOM     25  H   UNL     1     -14.086  26.565  23.851  0.00  0.00    -0.082 HD
ATOM     26  C   UNL     1     -13.579  25.514  25.648  0.00  0.00    -0.064 C 
ATOM     27  C   UNL     1     -12.067  25.397  25.307  0.00  0.00    +0.066 C 
ENDBRANCH  19  20
ENDBRANCH  18  19
ENDBRANCH  14  15
ENDBRANCH  12  13
TORSDOF 6
ENDMDL
MODEL 4
REMARK VINA RESULT:      -7.7      3.883     12.470
REMARK  Name = C:\Users\Docking\Desktop\test protocol\1iep_ligandH.pdb
REMARK  8 active torsions:
REMARK  status: ('A' for Active; 'I' for Inactive)
REMARK    1  A    between atoms: _5  and  _11
REMARK    2  A    between atoms: _19  and  _21
REMARK    3  A    between atoms: _22  and  _66
REMARK    4  A    between atoms: _27  and  _30
REMARK    5  A    between atoms: _32  and  _33
REMARK    6  A    between atoms: _38  and  _43
REMARK    7  A    between atoms: _43  and  _46
REMARK    8  A    between atoms: _53  and  _55
REMARK                            x       y       z     vdW  Elec       q    Type
REMARK                         _______ _______ _______ _____ _____    ______ ____
ROOT
ATOM     10  C   UNL     1      -6.899  15.006  30.442  0.00  0.00    +0.038 A 
ATOM     11  C   UNL     1      -7.197  16.045  29.524  0.00  0.00    +0.047 A 
ATOM     12  C   UNL     1      -6.148  16.684  28.744  0.00  0.00    +0.035 A 
ATOM     32  C   UNL     1      -4.807  16.238  28.923  0.00  0.00    +0.024 A 
ATOM     33  C   UNL     1      -4.486  15.183  29.853  0.00  0.00    +0.007 A 
ATOM     34  C   UNL     1      -5.516  14.551  30.626  0.00  0.00    -0.029 A 
ATOM     35  C   UNL     1      -5.113  13.430  31.613  0.00  0.00    +0.045 C 
ENDROOT
BRANCH  10   9
ATOM      4  C   UNL     1     -10.129  15.062  33.992  0.00  0.00    +0.077 A 
ATOM      5  C   UNL     1      -9.677  16.339  34.463  0.00  0.00    +0.048 A 
ATOM      6  C   UNL     1      -8.606  16.945  33.769  0.00  0.00    +0.116 A 
ATOM      7  N   UNL     1      -8.037  16.312  32.685  0.00  0.00    -0.223 NA
ATOM      8  C   UNL     1      -8.497  15.079  32.257  0.00  0.00    +0.220 A 
ATOM      9  N   UNL     1      -7.945  14.428  31.165  0.00  0.00    -0.283 N 
ATOM     36  H   UNL     1      -8.308  13.517  30.885  0.00  0.00    +0.155 HD
ATOM     37  N   UNL     1      -9.518  14.480  32.904  0.00  0.00    -0.214 NA
BRANCH   4   3
ATOM      1  C   UNL     1     -12.377  13.180  36.581  0.00  0.00    +0.020 A 
ATOM      2  C   UNL     1     -11.266  13.918  36.026  0.00  0.00    +0.013 A 
ATOM      3  C   UNL     1     -11.254  14.297  34.618  0.00  0.00    +0.019 A 
ATOM     38  C   UNL     1     -12.389  13.912  33.794  0.00  0.00    +0.120 A 
ATOM     39  N   UNL     1     -13.444  13.200  34.357  0.00  0.00    -0.263 NA
ATOM     40  C   UNL     1     -13.467  12.828  35.709  0.00  0.00    +0.111 A 
ENDBRANCH   4   3
ENDBRANCH  10   9
BRANCH  12  13
ATOM     13  N   UNL     1      -6.390  17.749  27.803  0.00  0.00    -0.281 N 
ATOM     14  C   UNL     1      -6.957  17.660  26.542  0.00  0.00    +0.248 C 
ATOM     30  O   UNL     1      -7.150  16.612  25.944  0.00  0.00    -0.270 OA
ATOM     31  H   UNL     1      -6.107  18.683  28.102  0.00  0.00    +0.155 HD
BRANCH  14  15
ATOM     15  C   UNL     1      -7.355  18.917  25.839  0.00  0.00    +0.037 A 
ATOM     16  C   UNL     1      -6.433  19.605  24.932  0.00  0.00    +0.013 A 
ATOM     17  C   UNL     1      -6.836  20.826  24.280  0.00  0.00    +0.005 A 
ATOM     18  C   UNL     1      -8.170  21.365  24.530  0.00  0.00    -0.033 A 
ATOM     28  C   UNL     1      -9.067  20.659  25.430  0.00  0.00    +0.005 A 
ATOM     29  C   UNL     1      -8.675  19.463  26.073  0.00  0.00    +0.013 A 
BRANCH  18  19
ATOM     19  C   UNL     1      -8.677  22.672  23.894  0.00  0.00    +0.119 C 
BRANCH  19  20
ATOM     20  N   UNL     1     -10.076  23.089  24.209  0.00  0.00    -0.302 NA
ATOM     21  C   UNL     1     -10.900  23.342  22.943  0.00  0.00    +0.066 C 
ATOM     22  C   UNL     1     -12.367  23.755  23.291  0.00  0.00    -0.064 C 
ATOM     23  N   UNL     1     -12.346  24.999  24.181  0.00  0.00    +0.379 N 
ATOM     24  C   UNL     1     -13.725  25.424  24.463  0.00  0.00    -0.096 C 
ATOM     25  H   UNL     1     -11.850  25.817  23.608  0.00  0.00    -0.082 HD
ATOM     26  C   UNL     1     -11.527  24.757  25.441  0.00  0.00    -0.064 C 
ATOM     27  C   UNL     1     -10.079  24.318  25.084  0.00  0.00    +0.066 C 
ENDBRANCH  19  20
ENDBRANCH  18  19
ENDBRANCH  14  15
ENDBRANCH  12  13
TORSDOF 6
ENDMDL
MODEL 5
REMARK VINA RESULT:      -7.6      3.780     12.634
REMARK  Name = C:\Users\Docking\Desktop\test protocol\1iep_ligandH.pdb
REMARK  8 active torsions:
REMARK  status: ('A' for Active; 'I' for Inactive)
REMARK    1  A    between atoms: _5  and  _11
REMARK    2  A    between atoms: _19  and  _21
REMARK    3  A    between atoms: _22  and  _66
REMARK    4  A    between atoms: _27  and  _30
REMARK    5  A    between atoms: _32  and  _33
REMARK    6  A    between atoms: _38  and  _43
REMARK    7  A    between atoms: _43  and  _46
REMARK    8  A    between atoms: _53  and  _55
REMARK                            x       y       z     vdW  Elec       q    Type
REMARK                         _______ _______ _______ _____ _____    ______ ____
ROOT
ATOM     10  C   UNL     1      -7.766  16.080  29.333  0.00  0.00    +0.038 A 
ATOM     11  C   UNL     1      -8.158  17.261  28.651  0.00  0.00    +0.047 A 
ATOM     12  C   UNL     1      -7.203  18.028  27.865  0.00  0.00    +0.035 A 
ATOM     32  C   UNL     1      -5.858  17.562  27.794  0.00  0.00    +0.024 A 
ATOM     33  C   UNL     1      -5.443  16.365  28.482  0.00  0.00    +0.007 A 
ATOM     34  C   UNL     1      -6.379  15.606  29.260  0.00  0.00    -0.029 A 
ATOM     35  C   UNL     1      -5.877  14.334  29.982  0.00  0.00    +0.045 C 
ENDROOT
BRANCH  10   9
ATOM      4  C   UNL     1     -10.232  15.271  33.370  0.00  0.00    +0.077 A 
ATOM      5  C   UNL     1      -9.534  16.308  34.074  0.00  0.00    +0.048 A 
ATOM      6  C   UNL     1      -8.543  17.021  33.364  0.00  0.00    +0.116 A 
ATOM      7  N   UNL     1      -8.278  16.712  32.047  0.00  0.00    -0.223 NA
ATOM      8  C   UNL     1      -8.969  15.705  31.398  0.00  0.00    +0.220 A 
ATOM      9  N   UNL     1      -8.724  15.383  30.072  0.00  0.00    -0.283 N 
ATOM     36  H   UNL     1      -9.250  14.628  29.632  0.00  0.00    +0.155 HD
ATOM     37  N   UNL     1      -9.919  15.008  32.055  0.00  0.00    -0.214 NA
BRANCH   4   3
ATOM      1  C   UNL     1     -12.260  13.032  35.856  0.00  0.00    +0.020 A 
ATOM      2  C   UNL     1     -11.190  13.835  35.309  0.00  0.00    +0.013 A 
ATOM      3  C   UNL     1     -11.309  14.431  33.984  0.00  0.00    +0.019 A 
ATOM     38  C   UNL     1     -12.533  14.195  33.233  0.00  0.00    +0.120 A 
ATOM     39  N   UNL     1     -13.545  13.416  33.785  0.00  0.00    -0.263 NA
ATOM     40  C   UNL     1     -13.442  12.836  35.058  0.00  0.00    +0.111 A 
ENDBRANCH   4   3
ENDBRANCH  10   9
BRANCH  12  13
ATOM     13  N   UNL     1      -7.541  19.238  27.158  0.00  0.00    -0.281 N 
ATOM     14  C   UNL     1      -7.770  19.395  25.801  0.00  0.00    +0.248 C 
ATOM     30  O   UNL     1      -7.509  18.554  24.954  0.00  0.00    -0.270 OA
ATOM     31  H   UNL     1      -7.620  20.081  27.727  0.00  0.00    +0.155 HD
BRANCH  14  15
ATOM     15  C   UNL     1      -8.362  20.678  25.313  0.00  0.00    +0.037 A 
ATOM     16  C   UNL     1      -7.705  21.470  24.270  0.00  0.00    +0.013 A 
ATOM     17  C   UNL     1      -8.288  22.712  23.829  0.00  0.00    +0.005 A 
ATOM     18  C   UNL     1      -9.538  23.169  24.431  0.00  0.00    -0.033 A 
ATOM     28  C   UNL     1     -10.172  22.362  25.460  0.00  0.00    +0.005 A 
ATOM     29  C   UNL     1      -9.602  21.144  25.896  0.00  0.00    +0.013 A 
BRANCH  18  19
ATOM     19  C   UNL     1     -10.221  24.493  24.038  0.00  0.00    +0.119 C 
BRANCH  19  20
ATOM     20  N   UNL     1     -10.936  24.530  22.727  0.00  0.00    -0.302 NA
ATOM     21  C   UNL     1     -10.135  25.276  21.657  0.00  0.00    +0.066 C 
ATOM     22  C   UNL     1     -10.888  25.286  20.286  0.00  0.00    -0.064 C 
ATOM     23  N   UNL     1     -12.268  25.919  20.470  0.00  0.00    +0.379 N 
ATOM     24  C   UNL     1     -12.955  25.982  19.172  0.00  0.00    -0.096 C 
ATOM     25  H   UNL     1     -12.116  26.965  20.823  0.00  0.00    -0.082 HD
ATOM     26  C   UNL     1     -13.070  25.184  21.534  0.00  0.00    -0.064 C 
ATOM     27  C   UNL     1     -12.301  25.155  22.884  0.00  0.00    +0.066 C 
ENDBRANCH  19  20
ENDBRANCH  18  19
ENDBRANCH  14  15
ENDBRANCH  12  13
TORSDOF 6
ENDMDL
