MODEL 1
REMARK VINA RESULT:      -8.2      0.000      0.000
REMARK  Name = C:\Users\Docking\Desktop\test protocol\1iep_ligandH.pdb
REMARK  8 active torsions:
REMARK  status: ('A' for Active; 'I' for Inactive)
REMARK    1  A    between atoms: _5  and  _11
REMARK    2  A    between atoms: _19  and  _21
REMARK    3  A    between atoms: _22  and  _66
REMARK    4  A    between atoms: _27  and  _30
REMARK    5  A    between atoms: _32  and  _33
REMARK    6  A    between atoms: _38  and  _43
REMARK    7  A    between atoms: _43  and  _46
REMARK    8  A    between atoms: _53  and  _55
REMARK                            x       y       z     vdW  Elec       q    Type
REMARK                         _______ _______ _______ _____ _____    ______ ____
ROOT
ATOM     10  C   UNL     1     -11.011  23.926  25.100  0.00  0.00    +0.038 A 
ATOM     11  C   UNL     1     -11.097  22.689  25.790  0.00  0.00    +0.047 A 
ATOM     12  C   UNL     1     -10.887  21.426  25.099  0.00  0.00    +0.035 A 
ATOM     32  C   UNL     1     -10.589  21.460  23.706  0.00  0.00    +0.024 A 
ATOM     33  C   UNL     1     -10.500  22.707  22.989  0.00  0.00    +0.007 A 
ATOM     34  C   UNL     1     -10.708  23.956  23.664  0.00  0.00    -0.029 A 
ATOM     35  C   UNL     1     -10.606  25.263  22.844  0.00  0.00    +0.045 C 
ENDROOT
BRANCH  10   9
ATOM      4  C   UNL     1     -13.817  27.516  26.609  0.00  0.00    +0.077 A 
ATOM      5  C   UNL     1     -14.953  27.007  25.896  0.00  0.00    +0.048 A 
ATOM      6  C   UNL     1     -14.771  25.823  25.146  0.00  0.00    +0.116 A 
ATOM      7  N   UNL     1     -13.541  25.202  25.120  0.00  0.00    -0.223 NA
ATOM      8  C   UNL     1     -12.466  25.720  25.818  0.00  0.00    +0.220 A 
ATOM      9  N   UNL     1     -11.222  25.108  25.813  0.00  0.00    -0.283 N 
ATOM     36  H   UNL     1     -10.452  25.526  26.334  0.00  0.00    +0.155 HD
ATOM     37  N   UNL     1     -12.613  26.851  26.540  0.00  0.00    -0.214 NA
BRANCH   4   3
ATOM      1  C   UNL     1     -12.847  30.907  28.300  0.00  0.00    +0.020 A 
ATOM      2  C   UNL     1     -12.763  29.725  27.473  0.00  0.00    +0.013 A 
ATOM      3  C   UNL     1     -13.851  28.756  27.447  0.00  0.00    +0.019 A 
ATOM     38  C   UNL     1     -15.019  29.014  28.277  0.00  0.00    +0.120 A 
ATOM     39  N   UNL     1     -15.070  30.160  29.064  0.00  0.00    -0.263 NA
ATOM     40  C   UNL     1     -14.029  31.099  29.098  0.00  0.00    +0.111 A 
ENDBRANCH   4   3
ENDBRANCH  10   9
BRANCH  12  13
ATOM     13  N   UNL     1     -10.969  20.140  25.746  0.00  0.00    -0.281 N 
ATOM     14  C   UNL     1      -9.939  19.400  26.304  0.00  0.00    +0.248 C 
ATOM     30  O   UNL     1      -8.751  19.637  26.142  0.00  0.00    -0.270 OA
ATOM     31  H   UNL     1     -11.899  19.724  25.798  0.00  0.00    +0.155 HD
BRANCH  14  15
ATOM     15  C   UNL     1     -10.278  18.218  27.153  0.00  0.00    +0.037 A 
ATOM     16  C   UNL     1     -11.452  18.223  28.029  0.00  0.00    +0.013 A 
ATOM     17  C   UNL     1     -11.746  17.075  28.851  0.00  0.00    +0.005 A 
ATOM     18  C   UNL     1     -10.864  15.912  28.799  0.00  0.00    -0.033 A 
ATOM     28  C   UNL     1      -9.709  15.932  27.917  0.00  0.00    +0.005 A 
ATOM     29  C   UNL     1      -9.417  17.055  27.111  0.00  0.00    +0.013 A 
BRANCH  18  19
ATOM     19  C   UNL     1     -11.089  14.653  29.656  0.00  0.00    +0.119 C 
BRANCH  19  20
ATOM     20  N   UNL     1     -10.765  14.749  31.111  0.00  0.00    -0.302 NA
ATOM     21  C   UNL     1     -11.885  15.425  31.906  0.00  0.00    +0.066 C 
ATOM     22  C   UNL     1     -11.539  15.497  33.429  0.00  0.00    -0.064 C 
ATOM     23  N   UNL     1     -10.218  16.244  33.614  0.00  0.00    +0.379 N 
ATOM     24  C   UNL     1      -9.918  16.364  35.048  0.00  0.00    -0.096 C 
ATOM     25  H   UNL     1     -10.352  17.274  33.209  0.00  0.00    -0.082 HD
ATOM     26  C   UNL     1      -9.098  15.580  32.824  0.00  0.00    -0.064 C 
ATOM     27  C   UNL     1      -9.465  15.487  31.317  0.00  0.00    +0.066 C 
ENDBRANCH  19  20
ENDBRANCH  18  19
ENDBRANCH  14  15
ENDBRANCH  12  13
TORSDOF 6
ENDMDL
MODEL 2
REMARK VINA RESULT:      -8.1      5.748     12.730
REMARK  Name = C:\Users\Docking\Desktop\test protocol\1iep_ligandH.pdb
REMARK  8 active torsions:
REMARK  status: ('A' for Active; 'I' for Inactive)
REMARK    1  A    between atoms: _5  and  _11
REMARK    2  A    between atoms: _19  and  _21
REMARK    3  A    between atoms: _22  and  _66
REMARK    4  A    between atoms: _27  and  _30
REMARK    5  A    between atoms: _32  and  _33
REMARK    6  A    between atoms: _38  and  _43
REMARK    7  A    between atoms: _43  and  _46
REMARK    8  A    between atoms: _53  and  _55
REMARK                            x       y       z     vdW  Elec       q    Type
REMARK                         _______ _______ _______ _____ _____    ______ ____
ROOT
ATOM     10  C   UNL     1     -10.857  23.642  24.758  0.00  0.00    +0.038 A 
ATOM     11  C   UNL     1     -11.045  24.941  25.295  0.00  0.00    +0.047 A 
ATOM     12  C   UNL     1     -12.222  25.266  26.086  0.00  0.00    +0.035 A 
ATOM     32  C   UNL     1     -13.187  24.242  26.312  0.00  0.00    +0.024 A 
ATOM     33  C   UNL     1     -13.013  22.916  25.773  0.00  0.00    +0.007 A 
ATOM     34  C   UNL     1     -11.855  22.590  24.990  0.00  0.00    -0.029 A 
ATOM     35  C   UNL     1     -11.724  21.154  24.432  0.00  0.00    +0.045 C 
ENDROOT
BRANCH  10   9
ATOM      4  C   UNL     1      -8.052  24.372  20.932  0.00  0.00    +0.077 A 
ATOM      5  C   UNL     1      -8.964  25.327  20.371  0.00  0.00    +0.048 A 
ATOM      6  C   UNL     1     -10.148  25.596  21.095  0.00  0.00    +0.116 A 
ATOM      7  N   UNL     1     -10.390  24.953  22.290  0.00  0.00    -0.223 NA
ATOM      8  C   UNL     1      -9.490  24.037  22.802  0.00  0.00    +0.220 A 
ATOM      9  N   UNL     1      -9.709  23.385  24.005  0.00  0.00    -0.283 N 
ATOM     36  H   UNL     1      -9.024  22.710  24.346  0.00  0.00    +0.155 HD
ATOM     37  N   UNL     1      -8.353  23.761  22.129  0.00  0.00    -0.214 NA
BRANCH   4   3
ATOM      1  C   UNL     1      -4.572  24.531  19.152  0.00  0.00    +0.020 A 
ATOM      2  C   UNL     1      -5.809  24.959  19.765  0.00  0.00    +0.013 A 
ATOM      3  C   UNL     1      -6.757  23.984  20.288  0.00  0.00    +0.019 A 
ATOM     38  C   UNL     1      -6.422  22.572  20.175  0.00  0.00    +0.120 A 
ATOM     39  N   UNL     1      -5.224  22.190  19.578  0.00  0.00    -0.263 NA
ATOM     40  C   UNL     1      -4.305  23.120  19.070  0.00  0.00    +0.111 A 
ENDBRANCH   4   3
ENDBRANCH  10   9
BRANCH  12  13
ATOM     13  N   UNL     1     -12.470  26.569  26.649  0.00  0.00    -0.281 N 
ATOM     14  C   UNL     1     -13.603  27.355  26.513  0.00  0.00    +0.248 C 
ATOM     30  O   UNL     1     -14.495  27.146  25.704  0.00  0.00    -0.270 OA
ATOM     31  H   UNL     1     -11.719  26.961  27.219  0.00  0.00    +0.155 HD
BRANCH  14  15
ATOM     15  C   UNL     1     -13.760  28.554  27.391  0.00  0.00    +0.037 A 
ATOM     16  C   UNL     1     -14.850  28.643  28.367  0.00  0.00    +0.013 A 
ATOM     17  C   UNL     1     -14.989  29.819  29.190  0.00  0.00    +0.005 A 
ATOM     18  C   UNL     1     -14.034  30.914  29.041  0.00  0.00    -0.033 A 
ATOM     28  C   UNL     1     -12.959  30.797  28.069  0.00  0.00    +0.005 A 
ATOM     29  C   UNL     1     -12.820  29.647  27.260  0.00  0.00    +0.013 A 
BRANCH  18  19
ATOM     19  C   UNL     1     -14.118  32.214  29.862  0.00  0.00    +0.119 C 
BRANCH  19  20
ATOM     20  N   UNL     1     -15.291  33.105  29.614  0.00  0.00    -0.302 NA
ATOM     21  C   UNL     1     -15.204  33.803  28.254  0.00  0.00    +0.066 C 
ATOM     22  C   UNL     1     -16.450  34.713  28.001  0.00  0.00    -0.064 C 
ATOM     23  N   UNL     1     -16.567  35.739  29.130  0.00  0.00    +0.379 N 
ATOM     24  C   UNL     1     -17.704  36.633  28.865  0.00  0.00    -0.096 C 
ATOM     25  H   UNL     1     -15.640  36.358  29.121  0.00  0.00    -0.082 HD
ATOM     26  C   UNL     1     -16.651  35.053  30.486  0.00  0.00    -0.064 C 
ATOM     27  C   UNL     1     -15.423  34.128  30.715  0.00  0.00    +0.066 C 
ENDBRANCH  19  20
ENDBRANCH  18  19
ENDBRANCH  14  15
ENDBRANCH  12  13
TORSDOF 6
ENDMDL
MODEL 3
REMARK VINA RESULT:      -7.9      2.831      3.445
REMARK  Name = C:\Users\Docking\Desktop\test protocol\1iep_ligandH.pdb
REMARK  8 active torsions:
REMARK  status: ('A' for Active; 'I' for Inactive)
REMARK    1  A    between atoms: _5  and  _11
REMARK    2  A    between atoms: _19  and  _21
REMARK    3  A    between atoms: _22  and  _66
REMARK    4  A    between atoms: _27  and  _30
REMARK    5  A    between atoms: _32  and  _33
REMARK    6  A    between atoms: _38  and  _43
REMARK    7  A    between atoms: _43  and  _46
REMARK    8  A    between atoms: _53  and  _55
REMARK                            x       y       z     vdW  Elec       q    Type
REMARK                         _______ _______ _______ _____ _____    ______ ____
ROOT
ATOM     10  C   UNL     1     -10.665  23.997  24.678  0.00  0.00    +0.038 A 
ATOM     11  C   UNL     1     -10.290  22.848  25.420  0.00  0.00    +0.047 A 
ATOM     12  C   UNL     1      -9.953  21.599  24.755  0.00  0.00    +0.035 A 
ATOM     32  C   UNL     1     -10.006  21.556  23.331  0.00  0.00    +0.024 A 
ATOM     33  C   UNL     1     -10.387  22.714  22.561  0.00  0.00    +0.007 A 
ATOM     34  C   UNL     1     -10.723  23.948  23.212  0.00  0.00    -0.029 A 
ATOM     35  C   UNL     1     -11.130  25.155  22.336  0.00  0.00    +0.045 C 
ENDROOT
BRANCH  10   9
ATOM      4  C   UNL     1     -13.817  27.185  26.392  0.00  0.00    +0.077 A 
ATOM      5  C   UNL     1     -14.931  26.467  25.844  0.00  0.00    +0.048 A 
ATOM      6  C   UNL     1     -14.650  25.286  25.121  0.00  0.00    +0.116 A 
ATOM      7  N   UNL     1     -13.348  24.864  24.965  0.00  0.00    -0.223 NA
ATOM      8  C   UNL     1     -12.296  25.580  25.506  0.00  0.00    +0.220 A 
ATOM      9  N   UNL     1     -10.979  25.170  25.368  0.00  0.00    -0.283 N 
ATOM     36  H   UNL     1     -10.231  25.730  25.775  0.00  0.00    +0.155 HD
ATOM     37  N   UNL     1     -12.538  26.712  26.199  0.00  0.00    -0.214 NA
BRANCH   4   3
ATOM      1  C   UNL     1     -14.648  30.859  27.445  0.00  0.00    +0.020 A 
ATOM      2  C   UNL     1     -14.541  29.666  26.639  0.00  0.00    +0.013 A 
ATOM      3  C   UNL     1     -13.952  28.449  27.184  0.00  0.00    +0.019 A 
ATOM     38  C   UNL     1     -13.480  28.473  28.560  0.00  0.00    +0.120 A 
ATOM     39  N   UNL     1     -13.595  29.638  29.312  0.00  0.00    -0.263 NA
ATOM     40  C   UNL     1     -14.158  30.815  28.798  0.00  0.00    +0.111 A 
ENDBRANCH   4   3
ENDBRANCH  10   9
BRANCH  12  13
ATOM     13  N   UNL     1      -9.572  20.398  25.457  0.00  0.00    -0.281 N 
ATOM     14  C   UNL     1      -8.293  19.927  25.706  0.00  0.00    +0.248 C 
ATOM     30  O   UNL     1      -7.281  20.359  25.175  0.00  0.00    -0.270 OA
ATOM     31  H   UNL     1     -10.338  19.827  25.813  0.00  0.00    +0.155 HD
BRANCH  14  15
ATOM     15  C   UNL     1      -8.115  18.802  26.674  0.00  0.00    +0.037 A 
ATOM     16  C   UNL     1      -9.264  18.180  27.337  0.00  0.00    +0.013 A 
ATOM     17  C   UNL     1      -9.062  17.109  28.280  0.00  0.00    +0.005 A 
ATOM     18  C   UNL     1      -7.704  16.652  28.565  0.00  0.00    -0.033 A 
ATOM     28  C   UNL     1      -6.582  17.283  27.889  0.00  0.00    +0.005 A 
ATOM     29  C   UNL     1      -6.776  18.334  26.965  0.00  0.00    +0.013 A 
BRANCH  18  19
ATOM     19  C   UNL     1      -7.393  15.529  29.572  0.00  0.00    +0.119 C 
BRANCH  19  20
ATOM     20  N   UNL     1      -5.989  15.024  29.622  0.00  0.00    -0.302 NA
ATOM     21  C   UNL     1      -5.829  13.695  28.877  0.00  0.00    +0.066 C 
ATOM     22  C   UNL     1      -4.349  13.193  28.920  0.00  0.00    -0.064 C 
ATOM     23  N   UNL     1      -3.903  13.055  30.376  0.00  0.00    +0.379 N 
ATOM     24  C   UNL     1      -2.531  12.527  30.421  0.00  0.00    -0.096 C 
ATOM     25  H   UNL     1      -4.569  12.306  30.864  0.00  0.00    -0.082 HD
ATOM     26  C   UNL     1      -4.061  14.370  31.125  0.00  0.00    -0.064 C 
ATOM     27  C   UNL     1      -5.529  14.876  31.051  0.00  0.00    +0.066 C 
ENDBRANCH  19  20
ENDBRANCH  18  19
ENDBRANCH  14  15
ENDBRANCH  12  13
TORSDOF 6
ENDMDL
MODEL 4
REMARK VINA RESULT:      -7.8      3.558     12.274
REMARK  Name = C:\Users\Docking\Desktop\test protocol\1iep_ligandH.pdb
REMARK  8 active torsions:
REMARK  status: ('A' for Active; 'I' for Inactive)
REMARK    1  A    between atoms: _5  and  _11
REMARK    2  A    between atoms: _19  and  _21
REMARK    3  A    between atoms: _22  and  _66
REMARK    4  A    between atoms: _27  and  _30
REMARK    5  A    between atoms: _32  and  _33
REMARK    6  A    between atoms: _38  and  _43
REMARK    7  A    between atoms: _43  and  _46
REMARK    8  A    between atoms: _53  and  _55
REMARK                            x       y       z     vdW  Elec       q    Type
REMARK                         _______ _______ _______ _____ _____    ______ ____
ROOT
ATOM     10  C   UNL     1      -8.089  16.236  29.335  0.00  0.00    +0.038 A 
ATOM     11  C   UNL     1      -8.633  17.385  28.706  0.00  0.00    +0.047 A 
ATOM     12  C   UNL     1      -7.849  18.171  27.766  0.00  0.00    +0.035 A 
ATOM     32  C   UNL     1      -6.514  17.756  27.488  0.00  0.00    +0.024 A 
ATOM     33  C   UNL     1      -5.944  16.592  28.119  0.00  0.00    +0.007 A 
ATOM     34  C   UNL     1      -6.712  15.814  29.049  0.00  0.00    -0.029 A 
ATOM     35  C   UNL     1      -6.048  14.579  29.701  0.00  0.00    +0.045 C 
ENDROOT
BRANCH  10   9
ATOM      4  C   UNL     1     -10.037  15.565  33.670  0.00  0.00    +0.077 A 
ATOM      5  C   UNL     1      -9.390  16.728  34.206  0.00  0.00    +0.048 A 
ATOM      6  C   UNL     1      -8.558  17.467  33.335  0.00  0.00    +0.116 A 
ATOM      7  N   UNL     1      -8.393  17.064  32.028  0.00  0.00    -0.223 NA
ATOM      8  C   UNL     1      -9.031  15.937  31.543  0.00  0.00    +0.220 A 
ATOM      9  N   UNL     1      -8.886  15.518  30.229  0.00  0.00    -0.283 N 
ATOM     36  H   UNL     1      -9.368  14.677  29.912  0.00  0.00    +0.155 HD
ATOM     37  N   UNL     1      -9.830  15.213  32.355  0.00  0.00    -0.214 NA
BRANCH   4   3
ATOM      1  C   UNL     1     -11.637  13.515  36.593  0.00  0.00    +0.020 A 
ATOM      2  C   UNL     1     -10.725  14.373  35.871  0.00  0.00    +0.013 A 
ATOM      3  C   UNL     1     -10.949  14.683  34.465  0.00  0.00    +0.019 A 
ATOM     38  C   UNL     1     -12.115  14.105  33.813  0.00  0.00    +0.120 A 
ATOM     39  N   UNL     1     -12.975  13.281  34.533  0.00  0.00    -0.263 NA
ATOM     40  C   UNL     1     -12.768  12.975  35.886  0.00  0.00    +0.111 A 
ENDBRANCH   4   3
ENDBRANCH  10   9
BRANCH  12  13
ATOM     13  N   UNL     1      -8.345  19.351  27.103  0.00  0.00    -0.281 N 
ATOM     14  C   UNL     1      -9.338  19.433  26.141  0.00  0.00    +0.248 C 
ATOM     30  O   UNL     1      -9.805  18.473  25.546  0.00  0.00    -0.270 OA
ATOM     31  H   UNL     1      -7.912  20.233  27.377  0.00  0.00    +0.155 HD
BRANCH  14  15
ATOM     15  C   UNL     1      -9.881  20.777  25.776  0.00  0.00    +0.037 A 
ATOM     16  C   UNL     1     -11.146  20.914  25.050  0.00  0.00    +0.013 A 
ATOM     17  C   UNL     1     -11.638  22.222  24.695  0.00  0.00    +0.005 A 
ATOM     18  C   UNL     1     -10.865  23.403  25.068  0.00  0.00    -0.033 A 
ATOM     28  C   UNL     1      -9.616  23.239  25.793  0.00  0.00    +0.005 A 
ATOM     29  C   UNL     1      -9.129  21.959  26.141  0.00  0.00    +0.013 A 
BRANCH  18  19
ATOM     19  C   UNL     1     -11.303  24.836  24.713  0.00  0.00    +0.119 C 
BRANCH  19  20
ATOM     20  N   UNL     1     -11.049  25.303  23.317  0.00  0.00    -0.302 NA
ATOM     21  C   UNL     1     -12.151  24.857  22.352  0.00  0.00    +0.066 C 
ATOM     22  C   UNL     1     -11.880  25.373  20.901  0.00  0.00    -0.064 C 
ATOM     23  N   UNL     1     -10.513  24.872  20.432  0.00  0.00    +0.379 N 
ATOM     24  C   UNL     1     -10.280  25.306  19.047  0.00  0.00    -0.096 C 
ATOM     25  H   UNL     1     -10.542  23.757  20.436  0.00  0.00    -0.082 HD
ATOM     26  C   UNL     1      -9.412  25.308  21.387  0.00  0.00    -0.064 C 
ATOM     27  C   UNL     1      -9.706  24.816  22.832  0.00  0.00    +0.066 C 
ENDBRANCH  19  20
ENDBRANCH  18  19
ENDBRANCH  14  15
ENDBRANCH  12  13
TORSDOF 6
ENDMDL
MODEL 5
REMARK VINA RESULT:      -7.8      2.806     12.090
REMARK  Name = C:\Users\Docking\Desktop\test protocol\1iep_ligandH.pdb
REMARK  8 active torsions:
REMARK  status: ('A' for Active; 'I' for Inactive)
REMARK    1  A    between atoms: _5  and  _11
REMARK    2  A    between atoms: _19  and  _21
REMARK    3  A    between atoms: _22  and  _66
REMARK    4  A    between atoms: _27  and  _30
REMARK    5  A    between atoms: _32  and  _33
REMARK    6  A    between atoms: _38  and  _43
REMARK    7  A    between atoms: _43  and  _46
REMARK    8  A    between atoms: _53  and  _55
REMARK                            x       y       z     vdW  Elec       q    Type
REMARK                         _______ _______ _______ _____ _____    ______ ____
ROOT
ATOM     10  C   UNL     1      -8.263  16.235  29.235  0.00  0.00    +0.038 A 
ATOM     11  C   UNL     1      -8.792  17.420  28.663  0.00  0.00    +0.047 A 
ATOM     12  C   UNL     1      -8.023  18.203  27.709  0.00  0.00    +0.035 A 
ATOM     32  C   UNL     1      -6.719  17.748  27.356  0.00  0.00    +0.024 A 
ATOM     33  C   UNL     1      -6.165  16.546  27.929  0.00  0.00    +0.007 A 
ATOM     34  C   UNL     1      -6.918  15.771  28.873  0.00  0.00    -0.029 A 
ATOM     35  C   UNL     1      -6.271  14.495  29.459  0.00  0.00    +0.045 C 
ENDROOT
BRANCH  10   9
ATOM      4  C   UNL     1     -10.059  15.531  33.630  0.00  0.00    +0.077 A 
ATOM      5  C   UNL     1      -9.359  16.665  34.162  0.00  0.00    +0.048 A 
ATOM      6  C   UNL     1      -8.542  17.399  33.273  0.00  0.00    +0.116 A 
ATOM      7  N   UNL     1      -8.439  17.018  31.952  0.00  0.00    -0.223 NA
ATOM      8  C   UNL     1      -9.126  15.918  31.472  0.00  0.00    +0.220 A 
ATOM      9  N   UNL     1      -9.045  15.521  30.147  0.00  0.00    -0.283 N 
ATOM     36  H   UNL     1      -9.561  14.700  29.833  0.00  0.00    +0.155 HD
ATOM     37  N   UNL     1      -9.912  15.200  32.302  0.00  0.00    -0.214 NA
BRANCH   4   3
ATOM      1  C   UNL     1     -11.633  13.521  36.593  0.00  0.00    +0.020 A 
ATOM      2  C   UNL     1     -10.729  14.370  35.853  0.00  0.00    +0.013 A 
ATOM      3  C   UNL     1     -10.963  14.659  34.444  0.00  0.00    +0.019 A 
ATOM     38  C   UNL     1     -12.132  14.068  33.808  0.00  0.00    +0.120 A 
ATOM     39  N   UNL     1     -12.985  13.253  34.546  0.00  0.00    -0.263 NA
ATOM     40  C   UNL     1     -12.768  12.967  35.902  0.00  0.00    +0.111 A 
ENDBRANCH   4   3
ENDBRANCH  10   9
BRANCH  12  13
ATOM     13  N   UNL     1      -8.505  19.419  27.101  0.00  0.00    -0.281 N 
ATOM     14  C   UNL     1      -9.418  19.551  26.067  0.00  0.00    +0.248 C 
ATOM     30  O   UNL     1      -9.799  18.630  25.360  0.00  0.00    -0.270 OA
ATOM     31  H   UNL     1      -8.128  20.288  27.480  0.00  0.00    +0.155 HD
BRANCH  14  15
ATOM     15  C   UNL     1      -9.976  20.904  25.765  0.00  0.00    +0.037 A 
ATOM     16  C   UNL     1      -9.162  22.112  25.913  0.00  0.00    +0.013 A 
ATOM     17  C   UNL     1      -9.730  23.407  25.632  0.00  0.00    +0.005 A 
ATOM     18  C   UNL     1     -11.122  23.498  25.198  0.00  0.00    -0.033 A 
ATOM     28  C   UNL     1     -11.906  22.283  25.054  0.00  0.00    +0.005 A 
ATOM     29  C   UNL     1     -11.352  21.012  25.330  0.00  0.00    +0.013 A 
BRANCH  18  19
ATOM     19  C   UNL     1     -11.818  24.839  24.896  0.00  0.00    +0.119 C 
BRANCH  19  20
ATOM     20  N   UNL     1     -13.280  24.798  24.594  0.00  0.00    -0.302 NA
ATOM     21  C   UNL     1     -13.561  24.936  23.095  0.00  0.00    +0.066 C 
ATOM     22  C   UNL     1     -15.094  24.869  22.795  0.00  0.00    -0.064 C 
ATOM     23  N   UNL     1     -15.814  25.964  23.584  0.00  0.00    +0.379 N 
ATOM     24  C   UNL     1     -17.248  25.940  23.260  0.00  0.00    -0.096 C 
ATOM     25  H   UNL     1     -15.407  26.946  23.248  0.00  0.00    -0.082 HD
ATOM     26  C   UNL     1     -15.537  25.836  25.076  0.00  0.00    -0.064 C 
ATOM     27  C   UNL     1     -14.010  25.874  25.360  0.00  0.00    +0.066 C 
ENDBRANCH  19  20
ENDBRANCH  18  19
ENDBRANCH  14  15
ENDBRANCH  12  13
TORSDOF 6
ENDMDL
