MODEL 1
REMARK VINA RESULT:      -7.0      0.000      0.000
REMARK  Name = C:\Users\Docking\Desktop\test protocol\1iep_ligandH.pdb
REMARK  8 active torsions:
REMARK  status: ('A' for Active; 'I' for Inactive)
REMARK    1  A    between atoms: _5  and  _11
REMARK    2  A    between atoms: _19  and  _21
REMARK    3  A    between atoms: _22  and  _66
REMARK    4  A    between atoms: _27  and  _30
REMARK    5  A    between atoms: _32  and  _33
REMARK    6  A    between atoms: _38  and  _43
REMARK    7  A    between atoms: _43  and  _46
REMARK    8  A    between atoms: _53  and  _55
REMARK                            x       y       z     vdW  Elec       q    Type
REMARK                         _______ _______ _______ _____ _____    ______ ____
ROOT
ATOM     10  C   UNL     1      27.569 -13.880 103.359  0.00  0.00    +0.038 A 
ATOM     11  C   UNL     1      28.168 -14.232 102.122  0.00  0.00    +0.047 A 
ATOM     12  C   UNL     1      29.612 -14.191 101.946  0.00  0.00    +0.035 A 
ATOM     32  C   UNL     1      30.416 -13.789 103.053  0.00  0.00    +0.024 A 
ATOM     33  C   UNL     1      29.824 -13.427 104.316  0.00  0.00    +0.007 A 
ATOM     34  C   UNL     1      28.400 -13.463 104.495  0.00  0.00    -0.029 A 
ATOM     35  C   UNL     1      27.820 -13.059 105.870  0.00  0.00    +0.045 C 
ENDROOT
BRANCH  10   9
ATOM      4  C   UNL     1      23.476 -16.286 104.060  0.00  0.00    +0.077 A 
ATOM      5  C   UNL     1      24.164 -17.539 104.184  0.00  0.00    +0.048 A 
ATOM      6  C   UNL     1      25.571 -17.522 104.054  0.00  0.00    +0.116 A 
ATOM      7  N   UNL     1      26.230 -16.335 103.818  0.00  0.00    -0.223 NA
ATOM      8  C   UNL     1      25.536 -15.144 103.702  0.00  0.00    +0.220 A 
ATOM      9  N   UNL     1      26.179 -13.938 103.472  0.00  0.00    -0.283 N 
ATOM     36  H   UNL     1      25.630 -13.083 103.385  0.00  0.00    +0.155 HD
ATOM     37  N   UNL     1      24.192 -15.135 103.821  0.00  0.00    -0.214 NA
BRANCH   4   3
ATOM      1  C   UNL     1      19.825 -16.269 105.464  0.00  0.00    +0.020 A 
ATOM      2  C   UNL     1      21.260 -16.426 105.405  0.00  0.00    +0.013 A 
ATOM      3  C   UNL     1      21.990 -16.141 104.176  0.00  0.00    +0.019 A 
ATOM     38  C   UNL     1      21.233 -15.694 103.017  0.00  0.00    +0.120 A 
ATOM     39  N   UNL     1      19.851 -15.553 103.103  0.00  0.00    -0.263 NA
ATOM     40  C   UNL     1      19.138 -15.827 104.280  0.00  0.00    +0.111 A 
ENDBRANCH   4   3
ENDBRANCH  10   9
BRANCH  12  13
ATOM     13  N   UNL     1      30.275 -14.529 100.712  0.00  0.00    -0.281 N 
ATOM     14  C   UNL     1      30.503 -15.790 100.185  0.00  0.00    +0.248 C 
ATOM     30  O   UNL     1      30.358 -16.834 100.804  0.00  0.00    -0.270 OA
ATOM     31  H   UNL     1      30.619 -13.743 100.159  0.00  0.00    +0.155 HD
BRANCH  14  15
ATOM     15  C   UNL     1      30.974 -15.907  98.771  0.00  0.00    +0.037 A 
ATOM     16  C   UNL     1      30.026 -16.048  97.664  0.00  0.00    +0.013 A 
ATOM     17  C   UNL     1      30.508 -16.177  96.311  0.00  0.00    +0.005 A 
ATOM     18  C   UNL     1      31.946 -16.163  96.059  0.00  0.00    -0.033 A 
ATOM     28  C   UNL     1      32.865 -16.017  97.176  0.00  0.00    +0.005 A 
ATOM     29  C   UNL     1      32.397 -15.891  98.503  0.00  0.00    +0.013 A 
BRANCH  18  19
ATOM     19  C   UNL     1      32.550 -16.316  94.650  0.00  0.00    +0.119 C 
BRANCH  19  20
ATOM     20  N   UNL     1      33.395 -17.521  94.395  0.00  0.00    -0.302 NA
ATOM     21  C   UNL     1      34.780 -17.149  93.859  0.00  0.00    +0.066 C 
ATOM     22  C   UNL     1      35.658 -18.420  93.619  0.00  0.00    -0.064 C 
ATOM     23  N   UNL     1      34.937 -19.359  92.651  0.00  0.00    +0.379 N 
ATOM     24  C   UNL     1      35.785 -20.528  92.378  0.00  0.00    -0.096 C 
ATOM     25  H   UNL     1      34.796 -18.811  91.690  0.00  0.00    -0.082 HD
ATOM     26  C   UNL     1      33.557 -19.732  93.175  0.00  0.00    -0.064 C 
ATOM     27  C   UNL     1      32.703 -18.460  93.438  0.00  0.00    +0.066 C 
ENDBRANCH  19  20
ENDBRANCH  18  19
ENDBRANCH  14  15
ENDBRANCH  12  13
TORSDOF 6
ENDMDL
MODEL 2
REMARK VINA RESULT:      -6.7     24.919     32.203
REMARK  Name = C:\Users\Docking\Desktop\test protocol\1iep_ligandH.pdb
REMARK  8 active torsions:
REMARK  status: ('A' for Active; 'I' for Inactive)
REMARK    1  A    between atoms: _5  and  _11
REMARK    2  A    between atoms: _19  and  _21
REMARK    3  A    between atoms: _22  and  _66
REMARK    4  A    between atoms: _27  and  _30
REMARK    5  A    between atoms: _32  and  _33
REMARK    6  A    between atoms: _38  and  _43
REMARK    7  A    between atoms: _43  and  _46
REMARK    8  A    between atoms: _53  and  _55
REMARK                            x       y       z     vdW  Elec       q    Type
REMARK                         _______ _______ _______ _____ _____    ______ ____
ROOT
ATOM     10  C   UNL     1      43.632  -5.026  72.291  0.00  0.00    +0.038 A 
ATOM     11  C   UNL     1      43.093  -5.989  73.181  0.00  0.00    +0.047 A 
ATOM     12  C   UNL     1      42.619  -7.277  72.699  0.00  0.00    +0.035 A 
ATOM     32  C   UNL     1      42.713  -7.552  71.303  0.00  0.00    +0.024 A 
ATOM     33  C   UNL     1      43.258  -6.584  70.384  0.00  0.00    +0.007 A 
ATOM     34  C   UNL     1      43.724  -5.311  70.854  0.00  0.00    -0.029 A 
ATOM     35  C   UNL     1      44.293  -4.309  69.823  0.00  0.00    +0.045 C 
ENDROOT
BRANCH  10   9
ATOM      4  C   UNL     1      42.834  -0.563  73.866  0.00  0.00    +0.077 A 
ATOM      5  C   UNL     1      41.426  -0.661  73.611  0.00  0.00    +0.048 A 
ATOM      6  C   UNL     1      40.948  -1.875  73.068  0.00  0.00    +0.116 A 
ATOM      7  N   UNL     1      41.823  -2.907  72.803  0.00  0.00    -0.223 NA
ATOM      8  C   UNL     1      43.176  -2.778  73.059  0.00  0.00    +0.220 A 
ATOM      9  N   UNL     1      44.072  -3.805  72.808  0.00  0.00    -0.283 N 
ATOM     36  H   UNL     1      45.063  -3.669  73.004  0.00  0.00    +0.155 HD
ATOM     37  N   UNL     1      43.657  -1.628  73.577  0.00  0.00    -0.214 NA
BRANCH   4   3
ATOM      1  C   UNL     1      44.921   2.723  74.253  0.00  0.00    +0.020 A 
ATOM      2  C   UNL     1      44.311   1.561  73.649  0.00  0.00    +0.013 A 
ATOM      3  C   UNL     1      43.490   0.654  74.441  0.00  0.00    +0.019 A 
ATOM     38  C   UNL     1      43.305   0.953  75.853  0.00  0.00    +0.120 A 
ATOM     39  N   UNL     1      43.907   2.079  76.408  0.00  0.00    -0.263 NA
ATOM     40  C   UNL     1      44.700   2.958  75.656  0.00  0.00    +0.111 A 
ENDBRANCH   4   3
ENDBRANCH  10   9
BRANCH  12  13
ATOM     13  N   UNL     1      42.055  -8.292  73.554  0.00  0.00    -0.281 N 
ATOM     14  C   UNL     1      40.817  -8.904  73.446  0.00  0.00    +0.248 C 
ATOM     30  O   UNL     1      39.916  -8.518  72.717  0.00  0.00    -0.270 OA
ATOM     31  H   UNL     1      42.638  -8.595  74.334  0.00  0.00    +0.155 HD
BRANCH  14  15
ATOM     15  C   UNL     1      40.534 -10.113  74.278  0.00  0.00    +0.037 A 
ATOM     16  C   UNL     1      39.497 -11.075  73.894  0.00  0.00    +0.013 A 
ATOM     17  C   UNL     1      39.233 -12.223  74.724  0.00  0.00    +0.005 A 
ATOM     18  C   UNL     1      40.010 -12.417  75.947  0.00  0.00    -0.033 A 
ATOM     28  C   UNL     1      41.036 -11.451  76.301  0.00  0.00    +0.005 A 
ATOM     29  C   UNL     1      41.297 -10.323  75.490  0.00  0.00    +0.013 A 
BRANCH  18  19
ATOM     19  C   UNL     1      39.781 -13.603  76.903  0.00  0.00    +0.119 C 
BRANCH  19  20
ATOM     20  N   UNL     1      38.482 -14.330  76.793  0.00  0.00    -0.302 NA
ATOM     21  C   UNL     1      37.681 -14.276  78.097  0.00  0.00    +0.066 C 
ATOM     22  C   UNL     1      36.314 -15.022  77.957  0.00  0.00    -0.064 C 
ATOM     23  N   UNL     1      36.568 -16.471  77.537  0.00  0.00    +0.379 N 
ATOM     24  C   UNL     1      35.288 -17.191  77.461  0.00  0.00    -0.096 C 
ATOM     25  H   UNL     1      37.180 -16.952  78.335  0.00  0.00    -0.082 HD
ATOM     26  C   UNL     1      37.366 -16.533  76.242  0.00  0.00    -0.064 C 
ATOM     27  C   UNL     1      38.709 -15.764  76.383  0.00  0.00    +0.066 C 
ENDBRANCH  19  20
ENDBRANCH  18  19
ENDBRANCH  14  15
ENDBRANCH  12  13
TORSDOF 6
ENDMDL
MODEL 3
REMARK VINA RESULT:      -6.5     21.743     24.947
REMARK  Name = C:\Users\Docking\Desktop\test protocol\1iep_ligandH.pdb
REMARK  8 active torsions:
REMARK  status: ('A' for Active; 'I' for Inactive)
REMARK    1  A    between atoms: _5  and  _11
REMARK    2  A    between atoms: _19  and  _21
REMARK    3  A    between atoms: _22  and  _66
REMARK    4  A    between atoms: _27  and  _30
REMARK    5  A    between atoms: _32  and  _33
REMARK    6  A    between atoms: _38  and  _43
REMARK    7  A    between atoms: _43  and  _46
REMARK    8  A    between atoms: _53  and  _55
REMARK                            x       y       z     vdW  Elec       q    Type
REMARK                         _______ _______ _______ _____ _____    ______ ____
ROOT
ATOM     10  C   UNL     1      16.389 -12.813  78.614  0.00  0.00    +0.038 A 
ATOM     11  C   UNL     1      17.750 -13.210  78.645  0.00  0.00    +0.047 A 
ATOM     12  C   UNL     1      18.123 -14.604  78.826  0.00  0.00    +0.035 A 
ATOM     32  C   UNL     1      17.084 -15.569  78.970  0.00  0.00    +0.024 A 
ATOM     33  C   UNL     1      15.695 -15.183  78.942  0.00  0.00    +0.007 A 
ATOM     34  C   UNL     1      15.321 -13.809  78.766  0.00  0.00    -0.029 A 
ATOM     35  C   UNL     1      13.816 -13.451  78.750  0.00  0.00    +0.045 C 
ENDROOT
BRANCH  10   9
ATOM      4  C   UNL     1      15.666  -8.966  75.836  0.00  0.00    +0.077 A 
ATOM      5  C   UNL     1      15.938  -9.707  74.638  0.00  0.00    +0.048 A 
ATOM      6  C   UNL     1      16.267 -11.073  74.780  0.00  0.00    +0.116 A 
ATOM      7  N   UNL     1      16.317 -11.646  76.033  0.00  0.00    -0.223 NA
ATOM      8  C   UNL     1      16.051 -10.903  77.168  0.00  0.00    +0.220 A 
ATOM      9  N   UNL     1      16.088 -11.461  78.437  0.00  0.00    -0.283 N 
ATOM     36  H   UNL     1      15.892 -10.877  79.250  0.00  0.00    +0.155 HD
ATOM     37  N   UNL     1      15.736  -9.596  77.059  0.00  0.00    -0.214 NA
BRANCH   4   3
ATOM      1  C   UNL     1      15.473  -5.157  74.967  0.00  0.00    +0.020 A 
ATOM      2  C   UNL     1      15.859  -6.548  74.911  0.00  0.00    +0.013 A 
ATOM      3  C   UNL     1      15.301  -7.514  75.849  0.00  0.00    +0.019 A 
ATOM     38  C   UNL     1      14.346  -7.036  76.838  0.00  0.00    +0.120 A 
ATOM     39  N   UNL     1      13.994  -5.691  76.868  0.00  0.00    -0.263 NA
ATOM     40  C   UNL     1      14.526  -4.752  75.972  0.00  0.00    +0.111 A 
ENDBRANCH   4   3
ENDBRANCH  10   9
BRANCH  12  13
ATOM     13  N   UNL     1      19.489 -15.066  78.874  0.00  0.00    -0.281 N 
ATOM     14  C   UNL     1      20.122 -15.747  79.901  0.00  0.00    +0.248 C 
ATOM     30  O   UNL     1      19.667 -15.876  81.028  0.00  0.00    -0.270 OA
ATOM     31  H   UNL     1      20.057 -14.866  78.052  0.00  0.00    +0.155 HD
BRANCH  14  15
ATOM     15  C   UNL     1      21.460 -16.361  79.643  0.00  0.00    +0.037 A 
ATOM     16  C   UNL     1      21.869 -17.600  80.310  0.00  0.00    +0.013 A 
ATOM     17  C   UNL     1      23.172 -18.162  80.056  0.00  0.00    +0.005 A 
ATOM     18  C   UNL     1      24.075 -17.485  79.128  0.00  0.00    -0.033 A 
ATOM     28  C   UNL     1      23.642 -16.261  78.476  0.00  0.00    +0.005 A 
ATOM     29  C   UNL     1      22.366 -15.706  78.724  0.00  0.00    +0.013 A 
BRANCH  18  19
ATOM     19  C   UNL     1      25.491 -18.002  78.814  0.00  0.00    +0.119 C 
BRANCH  19  20
ATOM     20  N   UNL     1      26.595 -17.566  79.720  0.00  0.00    -0.302 NA
ATOM     21  C   UNL     1      27.786 -16.999  78.943  0.00  0.00    +0.066 C 
ATOM     22  C   UNL     1      28.923 -16.526  79.907  0.00  0.00    -0.064 C 
ATOM     23  N   UNL     1      29.359 -17.698  80.788  0.00  0.00    +0.379 N 
ATOM     24  C   UNL     1      30.467 -17.273  81.656  0.00  0.00    -0.096 C 
ATOM     25  H   UNL     1      29.744 -18.501  80.117  0.00  0.00    -0.082 HD
ATOM     26  C   UNL     1      28.180 -18.270  81.563  0.00  0.00    -0.064 C 
ATOM     27  C   UNL     1      27.045 -18.709  80.596  0.00  0.00    +0.066 C 
ENDBRANCH  19  20
ENDBRANCH  18  19
ENDBRANCH  14  15
ENDBRANCH  12  13
TORSDOF 6
ENDMDL
MODEL 4
REMARK VINA RESULT:      -6.5     28.944     30.994
REMARK  Name = C:\Users\Docking\Desktop\test protocol\1iep_ligandH.pdb
REMARK  8 active torsions:
REMARK  status: ('A' for Active; 'I' for Inactive)
REMARK    1  A    between atoms: _5  and  _11
REMARK    2  A    between atoms: _19  and  _21
REMARK    3  A    between atoms: _22  and  _66
REMARK    4  A    between atoms: _27  and  _30
REMARK    5  A    between atoms: _32  and  _33
REMARK    6  A    between atoms: _38  and  _43
REMARK    7  A    between atoms: _43  and  _46
REMARK    8  A    between atoms: _53  and  _55
REMARK                            x       y       z     vdW  Elec       q    Type
REMARK                         _______ _______ _______ _____ _____    ______ ____
ROOT
ATOM     10  C   UNL     1      15.180  -1.046  75.297  0.00  0.00    +0.038 A 
ATOM     11  C   UNL     1      15.387  -2.331  75.860  0.00  0.00    +0.047 A 
ATOM     12  C   UNL     1      15.526  -3.508  75.016  0.00  0.00    +0.035 A 
ATOM     32  C   UNL     1      15.451  -3.339  73.603  0.00  0.00    +0.024 A 
ATOM     33  C   UNL     1      15.239  -2.040  73.014  0.00  0.00    +0.007 A 
ATOM     34  C   UNL     1      15.099  -0.876  73.841  0.00  0.00    -0.029 A 
ATOM     35  C   UNL     1      14.867   0.491  73.156  0.00  0.00    +0.045 C 
ENDROOT
BRANCH  10   9
ATOM      4  C   UNL     1      12.587   1.843  78.120  0.00  0.00    +0.077 A 
ATOM      5  C   UNL     1      11.377   1.125  77.844  0.00  0.00    +0.048 A 
ATOM      6  C   UNL     1      11.463   0.023  76.964  0.00  0.00    +0.116 A 
ATOM      7  N   UNL     1      12.675  -0.327  76.409  0.00  0.00    -0.223 NA
ATOM      8  C   UNL     1      13.823   0.388  76.695  0.00  0.00    +0.220 A 
ATOM      9  N   UNL     1      15.054   0.050  76.154  0.00  0.00    -0.283 N 
ATOM     36  H   UNL     1      15.876   0.607  76.384  0.00  0.00    +0.155 HD
ATOM     37  N   UNL     1      13.767   1.446  77.531  0.00  0.00    -0.214 NA
BRANCH   4   3
ATOM      1  C   UNL     1      12.592   4.101  81.315  0.00  0.00    +0.020 A 
ATOM      2  C   UNL     1      12.514   2.925  80.479  0.00  0.00    +0.013 A 
ATOM      3  C   UNL     1      12.659   3.029  79.032  0.00  0.00    +0.019 A 
ATOM     38  C   UNL     1      12.884   4.347  78.458  0.00  0.00    +0.120 A 
ATOM     39  N   UNL     1      12.953   5.462  79.288  0.00  0.00    -0.263 NA
ATOM     40  C   UNL     1      12.813   5.375  80.681  0.00  0.00    +0.111 A 
ENDBRANCH   4   3
ENDBRANCH  10   9
BRANCH  12  13
ATOM     13  N   UNL     1      15.730  -4.839  75.531  0.00  0.00    -0.281 N 
ATOM     14  C   UNL     1      14.827  -5.635  76.217  0.00  0.00    +0.248 C 
ATOM     30  O   UNL     1      13.770  -5.237  76.682  0.00  0.00    -0.270 OA
ATOM     31  H   UNL     1      16.652  -5.245  75.369  0.00  0.00    +0.155 HD
BRANCH  14  15
ATOM     15  C   UNL     1      15.153  -7.078  76.430  0.00  0.00    +0.037 A 
ATOM     16  C   UNL     1      15.503  -7.952  75.308  0.00  0.00    +0.013 A 
ATOM     17  C   UNL     1      15.797  -9.344  75.539  0.00  0.00    +0.005 A 
ATOM     18  C   UNL     1      15.742  -9.871  76.900  0.00  0.00    -0.033 A 
ATOM     28  C   UNL     1      15.397  -8.981  77.996  0.00  0.00    +0.005 A 
ATOM     29  C   UNL     1      15.108  -7.616  77.773  0.00  0.00    +0.013 A 
BRANCH  18  19
ATOM     19  C   UNL     1      16.019 -11.348  77.238  0.00  0.00    +0.119 C 
BRANCH  19  20
ATOM     20  N   UNL     1      14.902 -12.132  77.844  0.00  0.00    -0.302 NA
ATOM     21  C   UNL     1      15.388 -13.455  78.442  0.00  0.00    +0.066 C 
ATOM     22  C   UNL     1      14.211 -14.252  79.092  0.00  0.00    -0.064 C 
ATOM     23  N   UNL     1      13.125 -14.498  78.043  0.00  0.00    +0.379 N 
ATOM     24  C   UNL     1      12.042 -15.298  78.636  0.00  0.00    -0.096 C 
ATOM     25  H   UNL     1      13.578 -15.100  77.222  0.00  0.00    -0.082 HD
ATOM     26  C   UNL     1      12.638 -13.188  77.442  0.00  0.00    -0.064 C 
ATOM     27  C   UNL     1      13.820 -12.390  76.825  0.00  0.00    +0.066 C 
ENDBRANCH  19  20
ENDBRANCH  18  19
ENDBRANCH  14  15
ENDBRANCH  12  13
TORSDOF 6
ENDMDL
MODEL 5
REMARK VINA RESULT:      -6.3     21.816     27.813
REMARK  Name = C:\Users\Docking\Desktop\test protocol\1iep_ligandH.pdb
REMARK  8 active torsions:
REMARK  status: ('A' for Active; 'I' for Inactive)
REMARK    1  A    between atoms: _5  and  _11
REMARK    2  A    between atoms: _19  and  _21
REMARK    3  A    between atoms: _22  and  _66
REMARK    4  A    between atoms: _27  and  _30
REMARK    5  A    between atoms: _32  and  _33
REMARK    6  A    between atoms: _38  and  _43
REMARK    7  A    between atoms: _43  and  _46
REMARK    8  A    between atoms: _53  and  _55
REMARK                            x       y       z     vdW  Elec       q    Type
REMARK                         _______ _______ _______ _____ _____    ______ ____
ROOT
ATOM     10  C   UNL     1      46.980  -6.513  85.951  0.00  0.00    +0.038 A 
ATOM     11  C   UNL     1      46.546  -5.164  85.993  0.00  0.00    +0.047 A 
ATOM     12  C   UNL     1      46.757  -4.269  84.866  0.00  0.00    +0.035 A 
ATOM     32  C   UNL     1      47.413  -4.783  83.710  0.00  0.00    +0.024 A 
ATOM     33  C   UNL     1      47.862  -6.151  83.650  0.00  0.00    +0.007 A 
ATOM     34  C   UNL     1      47.659  -7.038  84.759  0.00  0.00    -0.029 A 
ATOM     35  C   UNL     1      48.167  -8.494  84.642  0.00  0.00    +0.045 C 
ENDROOT
BRANCH  10   9
ATOM      4  C   UNL     1      48.394  -8.590  90.040  0.00  0.00    +0.077 A 
ATOM      5  C   UNL     1      49.709  -8.025  89.942  0.00  0.00    +0.048 A 
ATOM      6  C   UNL     1      49.983  -7.211  88.820  0.00  0.00    +0.116 A 
ATOM      7  N   UNL     1      49.007  -6.986  87.873  0.00  0.00    -0.223 NA
ATOM      8  C   UNL     1      47.750  -7.548  87.997  0.00  0.00    +0.220 A 
ATOM      9  N   UNL     1      46.751  -7.328  87.061  0.00  0.00    -0.283 N 
ATOM     36  H   UNL     1      45.839  -7.766  87.185  0.00  0.00    +0.155 HD
ATOM     37  N   UNL     1      47.463  -8.330  89.059  0.00  0.00    -0.214 NA
BRANCH   4   3
ATOM      1  C   UNL     1      47.653 -11.720  92.266  0.00  0.00    +0.020 A 
ATOM      2  C   UNL     1      48.097 -10.918  91.149  0.00  0.00    +0.013 A 
ATOM      3  C   UNL     1      47.950  -9.468  91.169  0.00  0.00    +0.019 A 
ATOM     38  C   UNL     1      47.346  -8.856  92.343  0.00  0.00    +0.120 A 
ATOM     39  N   UNL     1      46.926  -9.655  93.402  0.00  0.00    -0.263 NA
ATOM     40  C   UNL     1      47.060 -11.051  93.394  0.00  0.00    +0.111 A 
ENDBRANCH   4   3
ENDBRANCH  10   9
BRANCH  12  13
ATOM     13  N   UNL     1      46.345  -2.887  84.855  0.00  0.00    -0.281 N 
ATOM     14  C   UNL     1      47.109  -1.768  85.142  0.00  0.00    +0.248 C 
ATOM     30  O   UNL     1      48.214  -1.801  85.663  0.00  0.00    -0.270 OA
ATOM     31  H   UNL     1      45.371  -2.713  84.605  0.00  0.00    +0.155 HD
BRANCH  14  15
ATOM     15  C   UNL     1      46.561  -0.416  84.818  0.00  0.00    +0.037 A 
ATOM     16  C   UNL     1      47.447   0.713  84.524  0.00  0.00    +0.013 A 
ATOM     17  C   UNL     1      46.892   2.011  84.231  0.00  0.00    +0.005 A 
ATOM     18  C   UNL     1      45.441   2.185  84.228  0.00  0.00    -0.033 A 
ATOM     28  C   UNL     1      44.585   1.046  84.517  0.00  0.00    +0.005 A 
ATOM     29  C   UNL     1      45.126  -0.227  84.806  0.00  0.00    +0.013 A 
BRANCH  18  19
ATOM     19  C   UNL     1      44.762   3.539  83.946  0.00  0.00    +0.119 C 
BRANCH  19  20
ATOM     20  N   UNL     1      43.979   4.155  85.059  0.00  0.00    -0.302 NA
ATOM     21  C   UNL     1      43.404   5.520  84.669  0.00  0.00    +0.066 C 
ATOM     22  C   UNL     1      42.569   6.140  85.836  0.00  0.00    -0.064 C 
ATOM     23  N   UNL     1      43.449   6.259  87.081  0.00  0.00    +0.379 N 
ATOM     24  C   UNL     1      42.684   6.896  88.163  0.00  0.00    -0.096 C 
ATOM     25  H   UNL     1      44.302   6.931  86.829  0.00  0.00    -0.082 HD
ATOM     26  C   UNL     1      44.027   4.907  87.474  0.00  0.00    -0.064 C 
ATOM     27  C   UNL     1      44.830   4.286  86.298  0.00  0.00    +0.066 C 
ENDBRANCH  19  20
ENDBRANCH  18  19
ENDBRANCH  14  15
ENDBRANCH  12  13
TORSDOF 6
ENDMDL
