MODEL 1
REMARK VINA RESULT:      -8.0      0.000      0.000
REMARK  Name = C:\Users\Docking\Desktop\test protocol\1iep_ligandH.pdb
REMARK  8 active torsions:
REMARK  status: ('A' for Active; 'I' for Inactive)
REMARK    1  A    between atoms: _5  and  _11
REMARK    2  A    between atoms: _19  and  _21
REMARK    3  A    between atoms: _22  and  _66
REMARK    4  A    between atoms: _27  and  _30
REMARK    5  A    between atoms: _32  and  _33
REMARK    6  A    between atoms: _38  and  _43
REMARK    7  A    between atoms: _43  and  _46
REMARK    8  A    between atoms: _53  and  _55
REMARK                            x       y       z     vdW  Elec       q    Type
REMARK                         _______ _______ _______ _____ _____    ______ ____
ROOT
ATOM     10  C   UNL     1     -13.112  21.630  29.658  0.00  0.00    +0.038 A 
ATOM     11  C   UNL     1     -14.116  22.341  28.952  0.00  0.00    +0.047 A 
ATOM     12  C   UNL     1     -14.374  23.746  29.224  0.00  0.00    +0.035 A 
ATOM     32  C   UNL     1     -13.588  24.398  30.219  0.00  0.00    +0.024 A 
ATOM     33  C   UNL     1     -12.564  23.690  30.946  0.00  0.00    +0.007 A 
ATOM     34  C   UNL     1     -12.307  22.303  30.685  0.00  0.00    -0.029 A 
ATOM     35  C   UNL     1     -11.201  21.592  31.499  0.00  0.00    +0.045 C 
ENDROOT
BRANCH  10   9
ATOM      4  C   UNL     1     -14.094  16.967  30.234  0.00  0.00    +0.077 A 
ATOM      5  C   UNL     1     -15.081  17.238  31.239  0.00  0.00    +0.048 A 
ATOM      6  C   UNL     1     -15.300  18.591  31.584  0.00  0.00    +0.116 A 
ATOM      7  N   UNL     1     -14.581  19.589  30.964  0.00  0.00    -0.223 NA
ATOM      8  C   UNL     1     -13.635  19.293  30.000  0.00  0.00    +0.220 A 
ATOM      9  N   UNL     1     -12.906  20.281  29.357  0.00  0.00    -0.283 N 
ATOM     36  H   UNL     1     -12.212  20.021  28.657  0.00  0.00    +0.155 HD
ATOM     37  N   UNL     1     -13.406  18.009  29.653  0.00  0.00    -0.214 NA
BRANCH   4   3
ATOM      1  C   UNL     1     -13.710  13.080  30.018  0.00  0.00    +0.020 A 
ATOM      2  C   UNL     1     -14.064  14.387  30.522  0.00  0.00    +0.013 A 
ATOM      3  C   UNL     1     -13.750  15.589  29.759  0.00  0.00    +0.019 A 
ATOM     38  C   UNL     1     -13.074  15.433  28.480  0.00  0.00    +0.120 A 
ATOM     39  N   UNL     1     -12.745  14.161  28.021  0.00  0.00    -0.263 NA
ATOM     40  C   UNL     1     -13.040  12.997  28.747  0.00  0.00    +0.111 A 
ENDBRANCH   4   3
ENDBRANCH  10   9
BRANCH  12  13
ATOM     13  N   UNL     1     -15.386  24.518  28.545  0.00  0.00    -0.281 N 
ATOM     14  C   UNL     1     -16.646  24.105  28.144  0.00  0.00    +0.248 C 
ATOM     30  O   UNL     1     -17.016  22.940  28.119  0.00  0.00    -0.270 OA
ATOM     31  H   UNL     1     -15.143  25.486  28.335  0.00  0.00    +0.155 HD
BRANCH  14  15
ATOM     15  C   UNL     1     -17.633  25.132  27.693  0.00  0.00    +0.037 A 
ATOM     16  C   UNL     1     -17.393  26.562  27.907  0.00  0.00    +0.013 A 
ATOM     17  C   UNL     1     -18.370  27.531  27.478  0.00  0.00    +0.005 A 
ATOM     18  C   UNL     1     -19.596  27.073  26.828  0.00  0.00    -0.033 A 
ATOM     28  C   UNL     1     -19.806  25.649  26.624  0.00  0.00    +0.005 A 
ATOM     29  C   UNL     1     -18.851  24.696  27.044  0.00  0.00    +0.013 A 
BRANCH  18  19
ATOM     19  C   UNL     1     -20.702  28.035  26.356  0.00  0.00    +0.119 C 
BRANCH  19  20
ATOM     20  N   UNL     1     -21.119  27.949  24.925  0.00  0.00    -0.302 NA
ATOM     21  C   UNL     1     -21.208  29.330  24.268  0.00  0.00    +0.066 C 
ATOM     22  C   UNL     1     -21.623  29.219  22.765  0.00  0.00    -0.064 C 
ATOM     23  N   UNL     1     -22.960  28.482  22.661  0.00  0.00    +0.379 N 
ATOM     24  C   UNL     1     -23.381  28.428  21.253  0.00  0.00    -0.096 C 
ATOM     25  H   UNL     1     -23.719  29.078  23.219  0.00  0.00    -0.082 HD
ATOM     26  C   UNL     1     -22.880  27.110  23.313  0.00  0.00    -0.064 C 
ATOM     27  C   UNL     1     -22.438  27.228  24.799  0.00  0.00    +0.066 C 
ENDBRANCH  19  20
ENDBRANCH  18  19
ENDBRANCH  14  15
ENDBRANCH  12  13
TORSDOF 6
ENDMDL
MODEL 2
REMARK VINA RESULT:      -7.9      7.641     12.251
REMARK  Name = C:\Users\Docking\Desktop\test protocol\1iep_ligandH.pdb
REMARK  8 active torsions:
REMARK  status: ('A' for Active; 'I' for Inactive)
REMARK    1  A    between atoms: _5  and  _11
REMARK    2  A    between atoms: _19  and  _21
REMARK    3  A    between atoms: _22  and  _66
REMARK    4  A    between atoms: _27  and  _30
REMARK    5  A    between atoms: _32  and  _33
REMARK    6  A    between atoms: _38  and  _43
REMARK    7  A    between atoms: _43  and  _46
REMARK    8  A    between atoms: _53  and  _55
REMARK                            x       y       z     vdW  Elec       q    Type
REMARK                         _______ _______ _______ _____ _____    ______ ____
ROOT
ATOM     10  C   UNL     1      -9.254  13.136  25.147  0.00  0.00    +0.038 A 
ATOM     11  C   UNL     1      -9.962  14.087  25.926  0.00  0.00    +0.047 A 
ATOM     12  C   UNL     1     -11.086  13.690  26.759  0.00  0.00    +0.035 A 
ATOM     32  C   UNL     1     -11.461  12.315  26.778  0.00  0.00    +0.024 A 
ATOM     33  C   UNL     1     -10.753  11.335  25.992  0.00  0.00    +0.007 A 
ATOM     34  C   UNL     1      -9.645  11.721  25.166  0.00  0.00    -0.029 A 
ATOM     35  C   UNL     1      -8.926  10.629  24.339  0.00  0.00    +0.045 C 
ENDROOT
BRANCH  10   9
ATOM      4  C   UNL     1      -7.441  15.004  21.114  0.00  0.00    +0.077 A 
ATOM      5  C   UNL     1      -8.736  15.093  20.503  0.00  0.00    +0.048 A 
ATOM      6  C   UNL     1      -9.842  14.640  21.258  0.00  0.00    +0.116 A 
ATOM      7  N   UNL     1      -9.655  14.139  22.528  0.00  0.00    -0.223 NA
ATOM      8  C   UNL     1      -8.392  14.066  23.087  0.00  0.00    +0.220 A 
ATOM      9  N   UNL     1      -8.182  13.572  24.365  0.00  0.00    -0.283 N 
ATOM     36  H   UNL     1      -7.234  13.528  24.739  0.00  0.00    +0.155 HD
ATOM     37  N   UNL     1      -7.320  14.490  22.386  0.00  0.00    -0.214 NA
BRANCH   4   3
ATOM      1  C   UNL     1      -4.402  15.243  18.663  0.00  0.00    +0.020 A 
ATOM      2  C   UNL     1      -5.627  14.777  19.272  0.00  0.00    +0.013 A 
ATOM      3  C   UNL     1      -6.176  15.444  20.446  0.00  0.00    +0.019 A 
ATOM     38  C   UNL     1      -5.456  16.589  20.983  0.00  0.00    +0.120 A 
ATOM     39  N   UNL     1      -4.278  17.013  20.377  0.00  0.00    -0.263 NA
ATOM     40  C   UNL     1      -3.739  16.379  19.248  0.00  0.00    +0.111 A 
ENDBRANCH   4   3
ENDBRANCH  10   9
BRANCH  12  13
ATOM     13  N   UNL     1     -11.848  14.612  27.564  0.00  0.00    -0.281 N 
ATOM     14  C   UNL     1     -11.401  15.394  28.617  0.00  0.00    +0.248 C 
ATOM     30  O   UNL     1     -10.318  15.259  29.166  0.00  0.00    -0.270 OA
ATOM     31  H   UNL     1     -12.837  14.699  27.330  0.00  0.00    +0.155 HD
BRANCH  14  15
ATOM     15  C   UNL     1     -12.291  16.472  29.145  0.00  0.00    +0.037 A 
ATOM     16  C   UNL     1     -13.639  16.675  28.608  0.00  0.00    +0.013 A 
ATOM     17  C   UNL     1     -14.471  17.733  29.123  0.00  0.00    +0.005 A 
ATOM     18  C   UNL     1     -13.957  18.596  30.184  0.00  0.00    -0.033 A 
ATOM     28  C   UNL     1     -12.618  18.369  30.702  0.00  0.00    +0.005 A 
ATOM     29  C   UNL     1     -11.800  17.334  30.199  0.00  0.00    +0.013 A 
BRANCH  18  19
ATOM     19  C   UNL     1     -14.767  19.763  30.779  0.00  0.00    +0.119 C 
BRANCH  19  20
ATOM     20  N   UNL     1     -15.184  19.647  32.209  0.00  0.00    -0.302 NA
ATOM     21  C   UNL     1     -15.927  18.338  32.486  0.00  0.00    +0.066 C 
ATOM     22  C   UNL     1     -16.336  18.223  33.991  0.00  0.00    -0.064 C 
ATOM     23  N   UNL     1     -17.197  19.427  34.376  0.00  0.00    +0.379 N 
ATOM     24  C   UNL     1     -17.631  19.293  35.774  0.00  0.00    -0.096 C 
ATOM     25  H   UNL     1     -18.109  19.408  33.735  0.00  0.00    -0.082 HD
ATOM     26  C   UNL     1     -16.467  20.734  34.101  0.00  0.00    -0.064 C 
ATOM     27  C   UNL     1     -16.039  20.824  32.609  0.00  0.00    +0.066 C 
ENDBRANCH  19  20
ENDBRANCH  18  19
ENDBRANCH  14  15
ENDBRANCH  12  13
TORSDOF 6
ENDMDL
MODEL 3
REMARK VINA RESULT:      -7.8      7.297     11.856
REMARK  Name = C:\Users\Docking\Desktop\test protocol\1iep_ligandH.pdb
REMARK  8 active torsions:
REMARK  status: ('A' for Active; 'I' for Inactive)
REMARK    1  A    between atoms: _5  and  _11
REMARK    2  A    between atoms: _19  and  _21
REMARK    3  A    between atoms: _22  and  _66
REMARK    4  A    between atoms: _27  and  _30
REMARK    5  A    between atoms: _32  and  _33
REMARK    6  A    between atoms: _38  and  _43
REMARK    7  A    between atoms: _43  and  _46
REMARK    8  A    between atoms: _53  and  _55
REMARK                            x       y       z     vdW  Elec       q    Type
REMARK                         _______ _______ _______ _____ _____    ______ ____
ROOT
ATOM     10  C   UNL     1      -9.555  13.395  25.494  0.00  0.00    +0.038 A 
ATOM     11  C   UNL     1     -10.307  14.372  26.194  0.00  0.00    +0.047 A 
ATOM     12  C   UNL     1     -11.444  13.998  27.021  0.00  0.00    +0.035 A 
ATOM     32  C   UNL     1     -11.786  12.617  27.114  0.00  0.00    +0.024 A 
ATOM     33  C   UNL     1     -11.033  11.610  26.409  0.00  0.00    +0.007 A 
ATOM     34  C   UNL     1      -9.912  11.974  25.590  0.00  0.00    -0.029 A 
ATOM     35  C   UNL     1      -9.145  10.853  24.851  0.00  0.00    +0.045 C 
ENDROOT
BRANCH  10   9
ATOM      4  C   UNL     1      -7.672  15.016  21.387  0.00  0.00    +0.077 A 
ATOM      5  C   UNL     1      -8.948  15.008  20.731  0.00  0.00    +0.048 A 
ATOM      6  C   UNL     1     -10.062  14.574  21.483  0.00  0.00    +0.116 A 
ATOM      7  N   UNL     1      -9.902  14.178  22.793  0.00  0.00    -0.223 NA
ATOM      8  C   UNL     1      -8.657  14.196  23.396  0.00  0.00    +0.220 A 
ATOM      9  N   UNL     1      -8.473  13.810  24.715  0.00  0.00    -0.283 N 
ATOM     36  H   UNL     1      -7.538  13.830  25.120  0.00  0.00    +0.155 HD
ATOM     37  N   UNL     1      -7.577  14.605  22.698  0.00  0.00    -0.214 NA
BRANCH   4   3
ATOM      1  C   UNL     1      -4.582  15.204  18.997  0.00  0.00    +0.020 A 
ATOM      2  C   UNL     1      -5.811  14.741  19.599  0.00  0.00    +0.013 A 
ATOM      3  C   UNL     1      -6.402  15.451  20.727  0.00  0.00    +0.019 A 
ATOM     38  C   UNL     1      -5.719  16.636  21.224  0.00  0.00    +0.120 A 
ATOM     39  N   UNL     1      -4.536  17.057  20.624  0.00  0.00    -0.263 NA
ATOM     40  C   UNL     1      -3.957  16.381  19.540  0.00  0.00    +0.111 A 
ENDBRANCH   4   3
ENDBRANCH  10   9
BRANCH  12  13
ATOM     13  N   UNL     1     -12.250  14.947  27.748  0.00  0.00    -0.281 N 
ATOM     14  C   UNL     1     -11.943  15.592  28.935  0.00  0.00    +0.248 C 
ATOM     30  O   UNL     1     -11.013  15.286  29.667  0.00  0.00    -0.270 OA
ATOM     31  H   UNL     1     -13.156  15.171  27.338  0.00  0.00    +0.155 HD
BRANCH  14  15
ATOM     15  C   UNL     1     -12.801  16.731  29.381  0.00  0.00    +0.037 A 
ATOM     16  C   UNL     1     -13.889  17.238  28.540  0.00  0.00    +0.013 A 
ATOM     17  C   UNL     1     -14.691  18.349  28.987  0.00  0.00    +0.005 A 
ATOM     18  C   UNL     1     -14.409  18.960  30.284  0.00  0.00    -0.033 A 
ATOM     28  C   UNL     1     -13.328  18.434  31.100  0.00  0.00    +0.005 A 
ATOM     29  C   UNL     1     -12.539  17.346  30.665  0.00  0.00    +0.013 A 
BRANCH  18  19
ATOM     19  C   UNL     1     -15.200  20.163  30.831  0.00  0.00    +0.119 C 
BRANCH  19  20
ATOM     20  N   UNL     1     -14.857  20.639  32.204  0.00  0.00    -0.302 NA
ATOM     21  C   UNL     1     -15.851  20.130  33.253  0.00  0.00    +0.066 C 
ATOM     22  C   UNL     1     -15.464  20.618  34.687  0.00  0.00    -0.064 C 
ATOM     23  N   UNL     1     -15.397  22.146  34.701  0.00  0.00    +0.379 N 
ATOM     24  C   UNL     1     -15.091  22.611  36.062  0.00  0.00    -0.096 C 
ATOM     25  H   UNL     1     -16.408  22.531  34.431  0.00  0.00    -0.082 HD
ATOM     26  C   UNL     1     -14.414  22.661  33.660  0.00  0.00    -0.064 C 
ATOM     27  C   UNL     1     -14.790  22.146  32.242  0.00  0.00    +0.066 C 
ENDBRANCH  19  20
ENDBRANCH  18  19
ENDBRANCH  14  15
ENDBRANCH  12  13
TORSDOF 6
ENDMDL
MODEL 4
REMARK VINA RESULT:      -7.7     13.522     19.013
REMARK  Name = C:\Users\Docking\Desktop\test protocol\1iep_ligandH.pdb
REMARK  8 active torsions:
REMARK  status: ('A' for Active; 'I' for Inactive)
REMARK    1  A    between atoms: _5  and  _11
REMARK    2  A    between atoms: _19  and  _21
REMARK    3  A    between atoms: _22  and  _66
REMARK    4  A    between atoms: _27  and  _30
REMARK    5  A    between atoms: _32  and  _33
REMARK    6  A    between atoms: _38  and  _43
REMARK    7  A    between atoms: _43  and  _46
REMARK    8  A    between atoms: _53  and  _55
REMARK                            x       y       z     vdW  Elec       q    Type
REMARK                         _______ _______ _______ _____ _____    ______ ____
ROOT
ATOM     10  C   UNL     1      -7.794  13.696  22.121  0.00  0.00    +0.038 A 
ATOM     11  C   UNL     1      -6.813  13.584  21.103  0.00  0.00    +0.047 A 
ATOM     12  C   UNL     1      -6.880  14.400  19.901  0.00  0.00    +0.035 A 
ATOM     32  C   UNL     1      -7.959  15.322  19.769  0.00  0.00    +0.024 A 
ATOM     33  C   UNL     1      -8.965  15.448  20.794  0.00  0.00    +0.007 A 
ATOM     34  C   UNL     1      -8.906  14.644  21.981  0.00  0.00    -0.029 A 
ATOM     35  C   UNL     1     -10.017  14.816  23.044  0.00  0.00    +0.045 C 
ENDROOT
BRANCH  10   9
ATOM      4  C   UNL     1      -8.964   9.808  24.681  0.00  0.00    +0.077 A 
ATOM      5  C   UNL     1      -9.899   9.362  23.689  0.00  0.00    +0.048 A 
ATOM      6  C   UNL     1     -10.055  10.166  22.537  0.00  0.00    +0.116 A 
ATOM      7  N   UNL     1      -9.324  11.327  22.399  0.00  0.00    -0.223 NA
ATOM      8  C   UNL     1      -8.432  11.728  23.376  0.00  0.00    +0.220 A 
ATOM      9  N   UNL     1      -7.681  12.887  23.255  0.00  0.00    -0.283 N 
ATOM     36  H   UNL     1      -7.039  13.153  24.001  0.00  0.00    +0.155 HD
ATOM     37  N   UNL     1      -8.266  10.979  24.486  0.00  0.00    -0.214 NA
BRANCH   4   3
ATOM      1  C   UNL     1      -9.117   8.557  28.384  0.00  0.00    +0.020 A 
ATOM      2  C   UNL     1      -9.425   9.301  27.185  0.00  0.00    +0.013 A 
ATOM      3  C   UNL     1      -8.686   9.065  25.951  0.00  0.00    +0.019 A 
ATOM     38  C   UNL     1      -7.633   8.060  25.964  0.00  0.00    +0.120 A 
ATOM     39  N   UNL     1      -7.358   7.359  27.135  0.00  0.00    -0.263 NA
ATOM     40  C   UNL     1      -8.062   7.579  28.328  0.00  0.00    +0.111 A 
ENDBRANCH   4   3
ENDBRANCH  10   9
BRANCH  12  13
ATOM     13  N   UNL     1      -5.917  14.325  18.830  0.00  0.00    -0.281 N 
ATOM     14  C   UNL     1      -4.553  14.555  18.894  0.00  0.00    +0.248 C 
ATOM     30  O   UNL     1      -3.983  15.072  19.844  0.00  0.00    -0.270 OA
ATOM     31  H   UNL     1      -6.286  14.070  17.914  0.00  0.00    +0.155 HD
BRANCH  14  15
ATOM     15  C   UNL     1      -3.700  14.168  17.729  0.00  0.00    +0.037 A 
ATOM     16  C   UNL     1      -4.098  14.487  16.356  0.00  0.00    +0.013 A 
ATOM     17  C   UNL     1      -3.265  14.088  15.250  0.00  0.00    +0.005 A 
ATOM     18  C   UNL     1      -2.024  13.364  15.513  0.00  0.00    -0.033 A 
ATOM     28  C   UNL     1      -1.650  13.065  16.885  0.00  0.00    +0.005 A 
ATOM     29  C   UNL     1      -2.464  13.454  17.972  0.00  0.00    +0.013 A 
BRANCH  18  19
ATOM     19  C   UNL     1      -1.084  12.880  14.392  0.00  0.00    +0.119 C 
BRANCH  19  20
ATOM     20  N   UNL     1      -1.694  12.088  13.283  0.00  0.00    -0.302 NA
ATOM     21  C   UNL     1      -1.067  10.697  13.158  0.00  0.00    +0.066 C 
ATOM     22  C   UNL     1      -1.732   9.874  12.007  0.00  0.00    -0.064 C 
ATOM     23  N   UNL     1      -1.605  10.646  10.693  0.00  0.00    +0.379 N 
ATOM     24  C   UNL     1      -2.179   9.848   9.599  0.00  0.00    -0.096 C 
ATOM     25  H   UNL     1      -0.519  10.778  10.482  0.00  0.00    -0.082 HD
ATOM     26  C   UNL     1      -2.225  12.031  10.809  0.00  0.00    -0.064 C 
ATOM     27  C   UNL     1      -1.577  12.830  11.974  0.00  0.00    +0.066 C 
ENDBRANCH  19  20
ENDBRANCH  18  19
ENDBRANCH  14  15
ENDBRANCH  12  13
TORSDOF 6
ENDMDL
MODEL 5
REMARK VINA RESULT:      -7.7      6.802     12.344
REMARK  Name = C:\Users\Docking\Desktop\test protocol\1iep_ligandH.pdb
REMARK  8 active torsions:
REMARK  status: ('A' for Active; 'I' for Inactive)
REMARK    1  A    between atoms: _5  and  _11
REMARK    2  A    between atoms: _19  and  _21
REMARK    3  A    between atoms: _22  and  _66
REMARK    4  A    between atoms: _27  and  _30
REMARK    5  A    between atoms: _32  and  _33
REMARK    6  A    between atoms: _38  and  _43
REMARK    7  A    between atoms: _43  and  _46
REMARK    8  A    between atoms: _53  and  _55
REMARK                            x       y       z     vdW  Elec       q    Type
REMARK                         _______ _______ _______ _____ _____    ______ ____
ROOT
ATOM     10  C   UNL     1      -9.043  12.210  24.577  0.00  0.00    +0.038 A 
ATOM     11  C   UNL     1      -9.638  13.087  25.519  0.00  0.00    +0.047 A 
ATOM     12  C   UNL     1     -10.718  12.641  26.385  0.00  0.00    +0.035 A 
ATOM     32  C   UNL     1     -11.166  11.293  26.266  0.00  0.00    +0.024 A 
ATOM     33  C   UNL     1     -10.573  10.388  25.312  0.00  0.00    +0.007 A 
ATOM     34  C   UNL     1      -9.509  10.824  24.454  0.00  0.00    -0.029 A 
ATOM     35  C   UNL     1      -8.915   9.813  23.446  0.00  0.00    +0.045 C 
ENDROOT
BRANCH  10   9
ATOM      4  C   UNL     1      -7.420  14.751  20.842  0.00  0.00    +0.077 A 
ATOM      5  C   UNL     1      -8.746  15.128  20.447  0.00  0.00    +0.048 A 
ATOM      6  C   UNL     1      -9.819  14.642  21.227  0.00  0.00    +0.116 A 
ATOM      7  N   UNL     1      -9.572  13.839  22.319  0.00  0.00    -0.223 NA
ATOM      8  C   UNL     1      -8.281  13.492  22.672  0.00  0.00    +0.220 A 
ATOM      9  N   UNL     1      -8.009  12.692  23.771  0.00  0.00    -0.283 N 
ATOM     36  H   UNL     1      -7.043  12.453  23.994  0.00  0.00    +0.155 HD
ATOM     37  N   UNL     1      -7.239  13.942  21.942  0.00  0.00    -0.214 NA
BRANCH   4   3
ATOM      1  C   UNL     1      -4.375  14.871  18.389  0.00  0.00    +0.020 A 
ATOM      2  C   UNL     1      -5.569  14.404  19.055  0.00  0.00    +0.013 A 
ATOM      3  C   UNL     1      -6.183  15.187  20.120  0.00  0.00    +0.019 A 
ATOM     38  C   UNL     1      -5.560  16.449  20.489  0.00  0.00    +0.120 A 
ATOM     39  N   UNL     1      -4.409  16.873  19.832  0.00  0.00    -0.263 NA
ATOM     40  C   UNL     1      -3.808  16.127  18.807  0.00  0.00    +0.111 A 
ENDBRANCH   4   3
ENDBRANCH  10   9
BRANCH  12  13
ATOM     13  N   UNL     1     -11.367  13.488  27.355  0.00  0.00    -0.281 N 
ATOM     14  C   UNL     1     -10.775  14.277  28.327  0.00  0.00    +0.248 C 
ATOM     30  O   UNL     1      -9.598  14.208  28.651  0.00  0.00    -0.270 OA
ATOM     31  H   UNL     1     -12.386  13.509  27.320  0.00  0.00    +0.155 HD
BRANCH  14  15
ATOM     15  C   UNL     1     -11.613  15.277  29.056  0.00  0.00    +0.037 A 
ATOM     16  C   UNL     1     -13.071  15.143  29.120  0.00  0.00    +0.013 A 
ATOM     17  C   UNL     1     -13.858  16.131  29.815  0.00  0.00    +0.005 A 
ATOM     18  C   UNL     1     -13.188  17.262  30.452  0.00  0.00    -0.033 A 
ATOM     28  C   UNL     1     -11.740  17.367  30.377  0.00  0.00    +0.005 A 
ATOM     29  C   UNL     1     -10.966  16.402  29.696  0.00  0.00    +0.013 A 
BRANCH  18  19
ATOM     19  C   UNL     1     -13.950  18.374  31.197  0.00  0.00    +0.119 C 
BRANCH  19  20
ATOM     20  N   UNL     1     -13.941  19.736  30.585  0.00  0.00    -0.302 NA
ATOM     21  C   UNL     1     -15.074  20.615  31.122  0.00  0.00    +0.066 C 
ATOM     22  C   UNL     1     -15.037  22.043  30.488  0.00  0.00    -0.064 C 
ATOM     23  N   UNL     1     -15.120  21.925  28.966  0.00  0.00    +0.379 N 
ATOM     24  C   UNL     1     -15.143  23.268  28.369  0.00  0.00    -0.096 C 
ATOM     25  H   UNL     1     -16.086  21.427  28.717  0.00  0.00    -0.082 HD
ATOM     26  C   UNL     1     -13.998  21.050  28.423  0.00  0.00    -0.064 C 
ATOM     27  C   UNL     1     -14.026  19.643  29.081  0.00  0.00    +0.066 C 
ENDBRANCH  19  20
ENDBRANCH  18  19
ENDBRANCH  14  15
ENDBRANCH  12  13
TORSDOF 6
ENDMDL
