MODEL 1
REMARK VINA RESULT:      -7.9      0.000      0.000
REMARK  Name = C:\Users\Docking\Desktop\test protocol\1iep_ligandH.pdb
REMARK  8 active torsions:
REMARK  status: ('A' for Active; 'I' for Inactive)
REMARK    1  A    between atoms: _5  and  _11
REMARK    2  A    between atoms: _19  and  _21
REMARK    3  A    between atoms: _22  and  _66
REMARK    4  A    between atoms: _27  and  _30
REMARK    5  A    between atoms: _32  and  _33
REMARK    6  A    between atoms: _38  and  _43
REMARK    7  A    between atoms: _43  and  _46
REMARK    8  A    between atoms: _53  and  _55
REMARK                            x       y       z     vdW  Elec       q    Type
REMARK                         _______ _______ _______ _____ _____    ______ ____
ROOT
ATOM     10  C   UNL     1      54.543  23.435 -16.612  0.00  0.00    +0.038 A 
ATOM     11  C   UNL     1      54.100  23.798 -15.314  0.00  0.00    +0.047 A 
ATOM     12  C   UNL     1      54.307  25.142 -14.797  0.00  0.00    +0.035 A 
ATOM     32  C   UNL     1      54.967  26.092 -15.630  0.00  0.00    +0.024 A 
ATOM     33  C   UNL     1      55.425  25.739 -16.951  0.00  0.00    +0.007 A 
ATOM     34  C   UNL     1      55.226  24.415 -17.465  0.00  0.00    -0.029 A 
ATOM     35  C   UNL     1      55.743  24.091 -18.886  0.00  0.00    +0.045 C 
ENDROOT
BRANCH  10   9
ATOM      4  C   UNL     1      51.947  20.155 -18.965  0.00  0.00    +0.077 A 
ATOM      5  C   UNL     1      50.940  21.116 -19.313  0.00  0.00    +0.048 A 
ATOM      6  C   UNL     1      51.124  22.442 -18.861  0.00  0.00    +0.116 A 
ATOM      7  N   UNL     1      52.237  22.771 -18.117  0.00  0.00    -0.223 NA
ATOM      8  C   UNL     1      53.188  21.820 -17.798  0.00  0.00    +0.220 A 
ATOM      9  N   UNL     1      54.318  22.131 -17.058  0.00  0.00    -0.283 N 
ATOM     36  H   UNL     1      54.993  21.399 -16.836  0.00  0.00    +0.155 HD
ATOM     37  N   UNL     1      53.034  20.547 -18.216  0.00  0.00    -0.214 NA
BRANCH   4   3
ATOM      1  C   UNL     1      52.982  16.500 -19.896  0.00  0.00    +0.020 A 
ATOM      2  C   UNL     1      53.087  17.886 -19.501  0.00  0.00    +0.013 A 
ATOM      3  C   UNL     1      51.895  18.715 -19.372  0.00  0.00    +0.019 A 
ATOM     38  C   UNL     1      50.603  18.108 -19.653  0.00  0.00    +0.120 A 
ATOM     39  N   UNL     1      50.534  16.771 -20.034  0.00  0.00    -0.263 NA
ATOM     40  C   UNL     1      51.673  15.963 -20.162  0.00  0.00    +0.111 A 
ENDBRANCH   4   3
ENDBRANCH  10   9
BRANCH  12  13
ATOM     13  N   UNL     1      53.887  25.566 -13.485  0.00  0.00    -0.281 N 
ATOM     14  C   UNL     1      52.607  25.553 -12.955  0.00  0.00    +0.248 C 
ATOM     30  O   UNL     1      51.590  25.372 -13.609  0.00  0.00    -0.270 OA
ATOM     31  H   UNL     1      54.622  25.919 -12.872  0.00  0.00    +0.155 HD
BRANCH  14  15
ATOM     15  C   UNL     1      52.429  25.789 -11.490  0.00  0.00    +0.037 A 
ATOM     16  C   UNL     1      53.186  26.830 -10.791  0.00  0.00    +0.013 A 
ATOM     17  C   UNL     1      53.008  27.026  -9.374  0.00  0.00    +0.005 A 
ATOM     18  C   UNL     1      52.067  26.177  -8.646  0.00  0.00    -0.033 A 
ATOM     28  C   UNL     1      51.325  25.155  -9.366  0.00  0.00    +0.005 A 
ATOM     29  C   UNL     1      51.498  24.960 -10.755  0.00  0.00    +0.013 A 
BRANCH  18  19
ATOM     19  C   UNL     1      51.829  26.301  -7.130  0.00  0.00    +0.119 C 
BRANCH  19  20
ATOM     20  N   UNL     1      52.246  27.576  -6.474  0.00  0.00    -0.302 NA
ATOM     21  C   UNL     1      52.149  27.496  -4.948  0.00  0.00    +0.066 C 
ATOM     22  C   UNL     1      52.610  28.831  -4.277  0.00  0.00    -0.064 C 
ATOM     23  N   UNL     1      51.763  29.986  -4.813  0.00  0.00    +0.379 N 
ATOM     24  C   UNL     1      52.155  31.234  -4.142  0.00  0.00    -0.096 C 
ATOM     25  H   UNL     1      50.701  29.778  -4.548  0.00  0.00    -0.082 HD
ATOM     26  C   UNL     1      51.851  30.072  -6.331  0.00  0.00    -0.064 C 
ATOM     27  C   UNL     1      51.419  28.730  -6.986  0.00  0.00    +0.066 C 
ENDBRANCH  19  20
ENDBRANCH  18  19
ENDBRANCH  14  15
ENDBRANCH  12  13
TORSDOF 6
ENDMDL
MODEL 2
REMARK VINA RESULT:      -7.7      5.091      6.828
REMARK  Name = C:\Users\Docking\Desktop\test protocol\1iep_ligandH.pdb
REMARK  8 active torsions:
REMARK  status: ('A' for Active; 'I' for Inactive)
REMARK    1  A    between atoms: _5  and  _11
REMARK    2  A    between atoms: _19  and  _21
REMARK    3  A    between atoms: _22  and  _66
REMARK    4  A    between atoms: _27  and  _30
REMARK    5  A    between atoms: _32  and  _33
REMARK    6  A    between atoms: _38  and  _43
REMARK    7  A    between atoms: _43  and  _46
REMARK    8  A    between atoms: _53  and  _55
REMARK                            x       y       z     vdW  Elec       q    Type
REMARK                         _______ _______ _______ _____ _____    ______ ____
ROOT
ATOM     10  C   UNL     1      46.566  18.917 -14.061  0.00  0.00    +0.038 A 
ATOM     11  C   UNL     1      47.367  19.890 -13.410  0.00  0.00    +0.047 A 
ATOM     12  C   UNL     1      47.017  21.301 -13.448  0.00  0.00    +0.035 A 
ATOM     32  C   UNL     1      45.842  21.687 -14.157  0.00  0.00    +0.024 A 
ATOM     33  C   UNL     1      45.017  20.712 -14.825  0.00  0.00    +0.007 A 
ATOM     34  C   UNL     1      45.359  19.318 -14.793  0.00  0.00    -0.029 A 
ATOM     35  C   UNL     1      44.441  18.318 -15.533  0.00  0.00    +0.045 C 
ENDROOT
BRANCH  10   9
ATOM      4  C   UNL     1      48.839  15.069 -15.810  0.00  0.00    +0.077 A 
ATOM      5  C   UNL     1      49.279  15.784 -16.974  0.00  0.00    +0.048 A 
ATOM      6  C   UNL     1      48.893  17.138 -17.087  0.00  0.00    +0.116 A 
ATOM      7  N   UNL     1      48.124  17.724 -16.105  0.00  0.00    -0.223 NA
ATOM      8  C   UNL     1      47.716  17.005 -14.996  0.00  0.00    +0.220 A 
ATOM      9  N   UNL     1      46.949  17.576 -13.992  0.00  0.00    -0.283 N 
ATOM     36  H   UNL     1      46.662  17.010 -13.194  0.00  0.00    +0.155 HD
ATOM     37  N   UNL     1      48.070  15.710 -14.865  0.00  0.00    -0.214 NA
BRANCH   4   3
ATOM      1  C   UNL     1      48.529  11.260 -14.978  0.00  0.00    +0.020 A 
ATOM      2  C   UNL     1      48.157  12.634 -15.225  0.00  0.00    +0.013 A 
ATOM      3  C   UNL     1      49.169  13.633 -15.545  0.00  0.00    +0.019 A 
ATOM     38  C   UNL     1      50.558  13.205 -15.609  0.00  0.00    +0.120 A 
ATOM     39  N   UNL     1      50.886  11.875 -15.365  0.00  0.00    -0.263 NA
ATOM     40  C   UNL     1      49.921  10.905 -15.054  0.00  0.00    +0.111 A 
ENDBRANCH   4   3
ENDBRANCH  10   9
BRANCH  12  13
ATOM     13  N   UNL     1      47.797  22.335 -12.813  0.00  0.00    -0.281 N 
ATOM     14  C   UNL     1      48.151  22.434 -11.477  0.00  0.00    +0.248 C 
ATOM     30  O   UNL     1      47.669  21.757 -10.582  0.00  0.00    -0.270 OA
ATOM     31  H   UNL     1      48.127  23.084 -13.421  0.00  0.00    +0.155 HD
BRANCH  14  15
ATOM     15  C   UNL     1      49.180  23.442 -11.077  0.00  0.00    +0.037 A 
ATOM     16  C   UNL     1      49.883  23.342  -9.796  0.00  0.00    +0.013 A 
ATOM     17  C   UNL     1      50.859  24.337  -9.426  0.00  0.00    +0.005 A 
ATOM     18  C   UNL     1      51.138  25.441 -10.342  0.00  0.00    -0.033 A 
ATOM     28  C   UNL     1      50.429  25.513 -11.609  0.00  0.00    +0.005 A 
ATOM     29  C   UNL     1      49.472  24.540 -11.974  0.00  0.00    +0.013 A 
BRANCH  18  19
ATOM     19  C   UNL     1      52.147  26.559 -10.021  0.00  0.00    +0.119 C 
BRANCH  19  20
ATOM     20  N   UNL     1      51.747  27.567  -8.994  0.00  0.00    -0.302 NA
ATOM     21  C   UNL     1      52.310  28.957  -9.304  0.00  0.00    +0.066 C 
ATOM     22  C   UNL     1      51.864  30.004  -8.232  0.00  0.00    -0.064 C 
ATOM     23  N   UNL     1      52.312  29.534  -6.847  0.00  0.00    +0.379 N 
ATOM     24  C   UNL     1      51.944  30.545  -5.844  0.00  0.00    -0.096 C 
ATOM     25  H   UNL     1      53.424  29.458  -6.859  0.00  0.00    -0.082 HD
ATOM     26  C   UNL     1      51.758  28.152  -6.532  0.00  0.00    -0.064 C 
ATOM     27  C   UNL     1      52.183  27.125  -7.619  0.00  0.00    +0.066 C 
ENDBRANCH  19  20
ENDBRANCH  18  19
ENDBRANCH  14  15
ENDBRANCH  12  13
TORSDOF 6
ENDMDL
MODEL 3
REMARK VINA RESULT:      -7.6      5.585      7.707
REMARK  Name = C:\Users\Docking\Desktop\test protocol\1iep_ligandH.pdb
REMARK  8 active torsions:
REMARK  status: ('A' for Active; 'I' for Inactive)
REMARK    1  A    between atoms: _5  and  _11
REMARK    2  A    between atoms: _19  and  _21
REMARK    3  A    between atoms: _22  and  _66
REMARK    4  A    between atoms: _27  and  _30
REMARK    5  A    between atoms: _32  and  _33
REMARK    6  A    between atoms: _38  and  _43
REMARK    7  A    between atoms: _43  and  _46
REMARK    8  A    between atoms: _53  and  _55
REMARK                            x       y       z     vdW  Elec       q    Type
REMARK                         _______ _______ _______ _____ _____    ______ ____
ROOT
ATOM     10  C   UNL     1      45.706  18.295 -14.674  0.00  0.00    +0.038 A 
ATOM     11  C   UNL     1      46.740  19.053 -14.067  0.00  0.00    +0.047 A 
ATOM     12  C   UNL     1      46.446  20.038 -13.038  0.00  0.00    +0.035 A 
ATOM     32  C   UNL     1      45.087  20.225 -12.651  0.00  0.00    +0.024 A 
ATOM     33  C   UNL     1      44.023  19.464 -13.258  0.00  0.00    +0.007 A 
ATOM     34  C   UNL     1      44.307  18.492 -14.275  0.00  0.00    -0.029 A 
ATOM     35  C   UNL     1      43.127  17.710 -14.897  0.00  0.00    +0.045 C 
ENDROOT
BRANCH  10   9
ATOM      4  C   UNL     1      47.274  13.970 -16.042  0.00  0.00    +0.077 A 
ATOM      5  C   UNL     1      47.458  13.542 -14.686  0.00  0.00    +0.048 A 
ATOM      6  C   UNL     1      47.144  14.468 -13.665  0.00  0.00    +0.116 A 
ATOM      7  N   UNL     1      46.681  15.724 -13.989  0.00  0.00    -0.223 NA
ATOM      8  C   UNL     1      46.517  16.106 -15.308  0.00  0.00    +0.220 A 
ATOM      9  N   UNL     1      46.046  17.362 -15.657  0.00  0.00    -0.283 N 
ATOM     36  H   UNL     1      45.945  17.608 -16.641  0.00  0.00    +0.155 HD
ATOM     37  N   UNL     1      46.811  15.241 -16.301  0.00  0.00    -0.214 NA
BRANCH   4   3
ATOM      1  C   UNL     1      48.749  12.604 -19.398  0.00  0.00    +0.020 A 
ATOM      2  C   UNL     1      48.510  13.476 -18.271  0.00  0.00    +0.013 A 
ATOM      3  C   UNL     1      47.559  13.105 -17.231  0.00  0.00    +0.019 A 
ATOM     38  C   UNL     1      46.860  11.835 -17.362  0.00  0.00    +0.120 A 
ATOM     39  N   UNL     1      47.109  11.017 -18.460  0.00  0.00    -0.263 NA
ATOM     40  C   UNL     1      48.022  11.364 -19.467  0.00  0.00    +0.111 A 
ENDBRANCH   4   3
ENDBRANCH  10   9
BRANCH  12  13
ATOM     13  N   UNL     1      47.453  20.843 -12.392  0.00  0.00    -0.281 N 
ATOM     14  C   UNL     1      47.695  22.197 -12.555  0.00  0.00    +0.248 C 
ATOM     30  O   UNL     1      47.218  22.882 -13.447  0.00  0.00    -0.270 OA
ATOM     31  H   UNL     1      48.060  20.355 -11.734  0.00  0.00    +0.155 HD
BRANCH  14  15
ATOM     15  C   UNL     1      48.612  22.887 -11.598  0.00  0.00    +0.037 A 
ATOM     16  C   UNL     1      49.264  24.151 -11.947  0.00  0.00    +0.013 A 
ATOM     17  C   UNL     1      50.158  24.787 -11.011  0.00  0.00    +0.005 A 
ATOM     18  C   UNL     1      50.403  24.159  -9.715  0.00  0.00    -0.033 A 
ATOM     28  C   UNL     1      49.739  22.907  -9.393  0.00  0.00    +0.005 A 
ATOM     29  C   UNL     1      48.864  22.280 -10.308  0.00  0.00    +0.013 A 
BRANCH  18  19
ATOM     19  C   UNL     1      51.357  24.755  -8.664  0.00  0.00    +0.119 C 
BRANCH  19  20
ATOM     20  N   UNL     1      51.699  26.203  -8.794  0.00  0.00    -0.302 NA
ATOM     21  C   UNL     1      52.983  26.420  -9.601  0.00  0.00    +0.066 C 
ATOM     22  C   UNL     1      53.314  27.941  -9.746  0.00  0.00    -0.064 C 
ATOM     23  N   UNL     1      53.434  28.569  -8.357  0.00  0.00    +0.379 N 
ATOM     24  C   UNL     1      53.802  29.987  -8.490  0.00  0.00    -0.096 C 
ATOM     25  H   UNL     1      54.265  28.052  -7.823  0.00  0.00    -0.082 HD
ATOM     26  C   UNL     1      52.163  28.356  -7.547  0.00  0.00    -0.064 C 
ATOM     27  C   UNL     1      51.827  26.843  -7.434  0.00  0.00    +0.066 C 
ENDBRANCH  19  20
ENDBRANCH  18  19
ENDBRANCH  14  15
ENDBRANCH  12  13
TORSDOF 6
ENDMDL
MODEL 4
REMARK VINA RESULT:      -7.6      5.156     12.663
REMARK  Name = C:\Users\Docking\Desktop\test protocol\1iep_ligandH.pdb
REMARK  8 active torsions:
REMARK  status: ('A' for Active; 'I' for Inactive)
REMARK    1  A    between atoms: _5  and  _11
REMARK    2  A    between atoms: _19  and  _21
REMARK    3  A    between atoms: _22  and  _66
REMARK    4  A    between atoms: _27  and  _30
REMARK    5  A    between atoms: _32  and  _33
REMARK    6  A    between atoms: _38  and  _43
REMARK    7  A    between atoms: _43  and  _46
REMARK    8  A    between atoms: _53  and  _55
REMARK                            x       y       z     vdW  Elec       q    Type
REMARK                         _______ _______ _______ _____ _____    ______ ____
ROOT
ATOM     10  C   UNL     1      51.648  25.428 -11.442  0.00  0.00    +0.038 A 
ATOM     11  C   UNL     1      52.745  25.923 -12.191  0.00  0.00    +0.047 A 
ATOM     12  C   UNL     1      52.653  26.103 -13.632  0.00  0.00    +0.035 A 
ATOM     32  C   UNL     1      51.426  25.770 -14.277  0.00  0.00    +0.024 A 
ATOM     33  C   UNL     1      50.301  25.264 -13.530  0.00  0.00    +0.007 A 
ATOM     34  C   UNL     1      50.387  25.082 -12.109  0.00  0.00    -0.029 A 
ATOM     35  C   UNL     1      49.152  24.530 -11.361  0.00  0.00    +0.045 C 
ENDROOT
BRANCH  10   9
ATOM      4  C   UNL     1      51.975  27.212  -6.998  0.00  0.00    +0.077 A 
ATOM      5  C   UNL     1      51.877  28.563  -7.469  0.00  0.00    +0.048 A 
ATOM      6  C   UNL     1      51.751  28.756  -8.863  0.00  0.00    +0.116 A 
ATOM      7  N   UNL     1      51.726  27.672  -9.713  0.00  0.00    -0.223 NA
ATOM      8  C   UNL     1      51.824  26.381  -9.225  0.00  0.00    +0.220 A 
ATOM      9  N   UNL     1      51.792  25.275 -10.061  0.00  0.00    -0.283 N 
ATOM     36  H   UNL     1      51.874  24.340  -9.663  0.00  0.00    +0.155 HD
ATOM     37  N   UNL     1      51.946  26.170  -7.898  0.00  0.00    -0.214 NA
BRANCH   4   3
ATOM      1  C   UNL     1      52.426  25.174  -3.690  0.00  0.00    +0.020 A 
ATOM      2  C   UNL     1      52.301  25.474  -5.097  0.00  0.00    +0.013 A 
ATOM      3  C   UNL     1      52.109  26.845  -5.552  0.00  0.00    +0.019 A 
ATOM     38  C   UNL     1      52.047  27.898  -4.549  0.00  0.00    +0.120 A 
ATOM     39  N   UNL     1      52.169  27.578  -3.201  0.00  0.00    -0.263 NA
ATOM     40  C   UNL     1      52.352  26.262  -2.751  0.00  0.00    +0.111 A 
ENDBRANCH   4   3
ENDBRANCH  10   9
BRANCH  12  13
ATOM     13  N   UNL     1      53.736  26.594 -14.446  0.00  0.00    -0.281 N 
ATOM     14  C   UNL     1      54.718  25.860 -15.091  0.00  0.00    +0.248 C 
ATOM     30  O   UNL     1      54.939  24.675 -14.889  0.00  0.00    -0.270 OA
ATOM     31  H   UNL     1      53.785  27.607 -14.562  0.00  0.00    +0.155 HD
BRANCH  14  15
ATOM     15  C   UNL     1      55.589  26.543 -16.095  0.00  0.00    +0.037 A 
ATOM     16  C   UNL     1      56.764  25.876 -16.662  0.00  0.00    +0.013 A 
ATOM     17  C   UNL     1      57.597  26.565 -17.616  0.00  0.00    +0.005 A 
ATOM     18  C   UNL     1      57.256  27.929 -18.010  0.00  0.00    -0.033 A 
ATOM     28  C   UNL     1      56.081  28.566 -17.437  0.00  0.00    +0.005 A 
ATOM     29  C   UNL     1      55.263  27.894 -16.501  0.00  0.00    +0.013 A 
BRANCH  18  19
ATOM     19  C   UNL     1      58.100  28.748 -19.006  0.00  0.00    +0.119 C 
BRANCH  19  20
ATOM     20  N   UNL     1      57.667  28.742 -20.435  0.00  0.00    -0.302 NA
ATOM     21  C   UNL     1      57.202  30.125 -20.900  0.00  0.00    +0.066 C 
ATOM     22  C   UNL     1      56.774  30.106 -22.404  0.00  0.00    -0.064 C 
ATOM     23  N   UNL     1      55.669  29.067 -22.604  0.00  0.00    +0.379 N 
ATOM     24  C   UNL     1      55.224  29.087 -24.005  0.00  0.00    -0.096 C 
ATOM     25  H   UNL     1      54.803  29.368 -21.969  0.00  0.00    -0.082 HD
ATOM     26  C   UNL     1      56.122  27.689 -22.141  0.00  0.00    -0.064 C 
ATOM     27  C   UNL     1      56.573  27.726 -20.654  0.00  0.00    +0.066 C 
ENDBRANCH  19  20
ENDBRANCH  18  19
ENDBRANCH  14  15
ENDBRANCH  12  13
TORSDOF 6
ENDMDL
MODEL 5
REMARK VINA RESULT:      -7.5      2.801     12.608
REMARK  Name = C:\Users\Docking\Desktop\test protocol\1iep_ligandH.pdb
REMARK  8 active torsions:
REMARK  status: ('A' for Active; 'I' for Inactive)
REMARK    1  A    between atoms: _5  and  _11
REMARK    2  A    between atoms: _19  and  _21
REMARK    3  A    between atoms: _22  and  _66
REMARK    4  A    between atoms: _27  and  _30
REMARK    5  A    between atoms: _32  and  _33
REMARK    6  A    between atoms: _38  and  _43
REMARK    7  A    between atoms: _43  and  _46
REMARK    8  A    between atoms: _53  and  _55
REMARK                            x       y       z     vdW  Elec       q    Type
REMARK                         _______ _______ _______ _____ _____    ______ ____
ROOT
ATOM     10  C   UNL     1      54.436  24.959 -16.302  0.00  0.00    +0.038 A 
ATOM     11  C   UNL     1      54.095  23.729 -16.921  0.00  0.00    +0.047 A 
ATOM     12  C   UNL     1      54.221  23.550 -18.359  0.00  0.00    +0.035 A 
ATOM     32  C   UNL     1      54.701  24.644 -19.137  0.00  0.00    +0.024 A 
ATOM     33  C   UNL     1      55.051  25.901 -18.525  0.00  0.00    +0.007 A 
ATOM     34  C   UNL     1      54.926  26.085 -17.107  0.00  0.00    -0.029 A 
ATOM     35  C   UNL     1      55.309  27.457 -16.506  0.00  0.00    +0.045 C 
ENDROOT
BRANCH  10   9
ATOM      4  C   UNL     1      51.774  25.570 -12.355  0.00  0.00    +0.077 A 
ATOM      5  C   UNL     1      50.565  25.693 -13.118  0.00  0.00    +0.048 A 
ATOM      6  C   UNL     1      50.672  25.600 -14.524  0.00  0.00    +0.116 A 
ATOM      7  N   UNL     1      51.902  25.399 -15.112  0.00  0.00    -0.223 NA
ATOM      8  C   UNL     1      53.049  25.287 -14.348  0.00  0.00    +0.220 A 
ATOM      9  N   UNL     1      54.295  25.077 -14.918  0.00  0.00    -0.283 N 
ATOM     36  H   UNL     1      55.118  25.007 -14.320  0.00  0.00    +0.155 HD
ATOM     37  N   UNL     1      52.973  25.374 -13.003  0.00  0.00    -0.214 NA
BRANCH   4   3
ATOM      1  C   UNL     1      51.380  24.707  -8.561  0.00  0.00    +0.020 A 
ATOM      2  C   UNL     1      51.308  24.587  -9.999  0.00  0.00    +0.013 A 
ATOM      3  C   UNL     1      51.823  25.643 -10.861  0.00  0.00    +0.019 A 
ATOM     38  C   UNL     1      52.411  26.816 -10.231  0.00  0.00    +0.120 A 
ATOM     39  N   UNL     1      52.466  26.904  -8.844  0.00  0.00    -0.263 NA
ATOM     40  C   UNL     1      51.971  25.895  -8.004  0.00  0.00    +0.111 A 
ENDBRANCH   4   3
ENDBRANCH  10   9
BRANCH  12  13
ATOM     13  N   UNL     1      53.883  22.327 -19.044  0.00  0.00    -0.281 N 
ATOM     14  C   UNL     1      54.745  21.373 -19.560  0.00  0.00    +0.248 C 
ATOM     30  O   UNL     1      55.949  21.533 -19.700  0.00  0.00    -0.270 OA
ATOM     31  H   UNL     1      52.887  22.141 -19.162  0.00  0.00    +0.155 HD
BRANCH  14  15
ATOM     15  C   UNL     1      54.188  20.057 -19.997  0.00  0.00    +0.037 A 
ATOM     16  C   UNL     1      54.063  19.719 -21.417  0.00  0.00    +0.013 A 
ATOM     17  C   UNL     1      53.506  18.449 -21.812  0.00  0.00    +0.005 A 
ATOM     18  C   UNL     1      53.071  17.507 -20.783  0.00  0.00    -0.033 A 
ATOM     28  C   UNL     1      53.212  17.866 -19.382  0.00  0.00    +0.005 A 
ATOM     29  C   UNL     1      53.756  19.110 -18.991  0.00  0.00    +0.013 A 
BRANCH  18  19
ATOM     19  C   UNL     1      52.447  16.138 -21.112  0.00  0.00    +0.119 C 
BRANCH  19  20
ATOM     20  N   UNL     1      51.864  15.362 -19.978  0.00  0.00    -0.302 NA
ATOM     21  C   UNL     1      52.582  14.026 -19.767  0.00  0.00    +0.066 C 
ATOM     22  C   UNL     1      51.974  13.237 -18.562  0.00  0.00    -0.064 C 
ATOM     23  N   UNL     1      50.480  13.016 -18.802  0.00  0.00    +0.379 N 
ATOM     24  C   UNL     1      49.917  12.224 -17.699  0.00  0.00    -0.096 C 
ATOM     25  H   UNL     1      50.372  12.418 -19.737  0.00  0.00    -0.082 HD
ATOM     26  C   UNL     1      49.758  14.339 -19.016  0.00  0.00    -0.064 C 
ATOM     27  C   UNL     1      50.389  15.129 -20.197  0.00  0.00    +0.066 C 
ENDBRANCH  19  20
ENDBRANCH  18  19
ENDBRANCH  14  15
ENDBRANCH  12  13
TORSDOF 6
ENDMDL
