MODEL 1
REMARK VINA RESULT:      -6.6      0.000      0.000
REMARK  Name = C:\Users\Docking\Desktop\test protocol\1iep_ligandH.pdb
REMARK  8 active torsions:
REMARK  status: ('A' for Active; 'I' for Inactive)
REMARK    1  A    between atoms: _5  and  _11
REMARK    2  A    between atoms: _19  and  _21
REMARK    3  A    between atoms: _22  and  _66
REMARK    4  A    between atoms: _27  and  _30
REMARK    5  A    between atoms: _32  and  _33
REMARK    6  A    between atoms: _38  and  _43
REMARK    7  A    between atoms: _43  and  _46
REMARK    8  A    between atoms: _53  and  _55
REMARK                            x       y       z     vdW  Elec       q    Type
REMARK                         _______ _______ _______ _____ _____    ______ ____
ROOT
ATOM     10  C   UNL     1      28.299  37.465   6.334  0.00  0.00    +0.038 A 
ATOM     11  C   UNL     1      28.742  37.921   7.602  0.00  0.00    +0.047 A 
ATOM     12  C   UNL     1      29.376  39.221   7.756  0.00  0.00    +0.035 A 
ATOM     32  C   UNL     1      29.540  40.033   6.596  0.00  0.00    +0.024 A 
ATOM     33  C   UNL     1      29.096  39.586   5.299  0.00  0.00    +0.007 A 
ATOM     34  C   UNL     1      28.473  38.303   5.142  0.00  0.00    -0.029 A 
ATOM     35  C   UNL     1      28.022  37.872   3.726  0.00  0.00    +0.045 C 
ENDROOT
BRANCH  10   9
ATOM      4  C   UNL     1      24.460  34.590   6.497  0.00  0.00    +0.077 A 
ATOM      5  C   UNL     1      23.583  35.680   6.814  0.00  0.00    +0.048 A 
ATOM      6  C   UNL     1      24.161  36.964   6.934  0.00  0.00    +0.116 A 
ATOM      7  N   UNL     1      25.515  37.133   6.747  0.00  0.00    -0.223 NA
ATOM      8  C   UNL     1      26.333  36.060   6.444  0.00  0.00    +0.220 A 
ATOM      9  N   UNL     1      27.697  36.208   6.245  0.00  0.00    -0.283 N 
ATOM     36  H   UNL     1      28.267  35.391   6.030  0.00  0.00    +0.155 HD
ATOM     37  N   UNL     1      25.806  34.824   6.326  0.00  0.00    -0.214 NA
BRANCH   4   3
ATOM      1  C   UNL     1      22.261  31.442   5.748  0.00  0.00    +0.020 A 
ATOM      2  C   UNL     1      22.656  32.825   5.889  0.00  0.00    +0.013 A 
ATOM      3  C   UNL     1      23.999  33.175   6.335  0.00  0.00    +0.019 A 
ATOM     38  C   UNL     1      24.926  32.093   6.631  0.00  0.00    +0.120 A 
ATOM     39  N   UNL     1      24.517  30.770   6.487  0.00  0.00    -0.263 NA
ATOM     40  C   UNL     1      23.226  30.422   6.061  0.00  0.00    +0.111 A 
ENDBRANCH   4   3
ENDBRANCH  10   9
BRANCH  12  13
ATOM     13  N   UNL     1      29.853  39.733   9.017  0.00  0.00    -0.281 N 
ATOM     14  C   UNL     1      31.076  39.498   9.623  0.00  0.00    +0.248 C 
ATOM     30  O   UNL     1      31.867  38.635   9.272  0.00  0.00    -0.270 OA
ATOM     31  H   UNL     1      29.211  40.342   9.523  0.00  0.00    +0.155 HD
BRANCH  14  15
ATOM     15  C   UNL     1      31.472  40.332  10.798  0.00  0.00    +0.037 A 
ATOM     16  C   UNL     1      32.444  39.848  11.781  0.00  0.00    +0.013 A 
ATOM     17  C   UNL     1      32.795  40.666  12.915  0.00  0.00    +0.005 A 
ATOM     18  C   UNL     1      32.173  41.978  13.071  0.00  0.00    -0.033 A 
ATOM     28  C   UNL     1      31.216  42.436  12.078  0.00  0.00    +0.005 A 
ATOM     29  C   UNL     1      30.868  41.637  10.966  0.00  0.00    +0.013 A 
BRANCH  18  19
ATOM     19  C   UNL     1      32.472  42.910  14.261  0.00  0.00    +0.119 C 
BRANCH  19  20
ATOM     20  N   UNL     1      31.383  43.834  14.696  0.00  0.00    -0.302 NA
ATOM     21  C   UNL     1      31.882  45.273  14.859  0.00  0.00    +0.066 C 
ATOM     22  C   UNL     1      30.726  46.231  15.293  0.00  0.00    -0.064 C 
ATOM     23  N   UNL     1      30.106  45.721  16.595  0.00  0.00    +0.379 N 
ATOM     24  C   UNL     1      29.057  46.652  17.036  0.00  0.00    -0.096 C 
ATOM     25  H   UNL     1      30.906  45.720  17.372  0.00  0.00    -0.082 HD
ATOM     26  C   UNL     1      29.610  44.291  16.443  0.00  0.00    -0.064 C 
ATOM     27  C   UNL     1      30.761  43.352  15.983  0.00  0.00    +0.066 C 
ENDBRANCH  19  20
ENDBRANCH  18  19
ENDBRANCH  14  15
ENDBRANCH  12  13
TORSDOF 6
ENDMDL
MODEL 2
REMARK VINA RESULT:      -6.5     11.626     18.899
REMARK  Name = C:\Users\Docking\Desktop\test protocol\1iep_ligandH.pdb
REMARK  8 active torsions:
REMARK  status: ('A' for Active; 'I' for Inactive)
REMARK    1  A    between atoms: _5  and  _11
REMARK    2  A    between atoms: _19  and  _21
REMARK    3  A    between atoms: _22  and  _66
REMARK    4  A    between atoms: _27  and  _30
REMARK    5  A    between atoms: _32  and  _33
REMARK    6  A    between atoms: _38  and  _43
REMARK    7  A    between atoms: _43  and  _46
REMARK    8  A    between atoms: _53  and  _55
REMARK                            x       y       z     vdW  Elec       q    Type
REMARK                         _______ _______ _______ _____ _____    ______ ____
ROOT
ATOM     10  C   UNL     1      17.664  38.070   9.361  0.00  0.00    +0.038 A 
ATOM     11  C   UNL     1      16.253  38.095   9.216  0.00  0.00    +0.047 A 
ATOM     12  C   UNL     1      15.550  37.033   8.514  0.00  0.00    +0.035 A 
ATOM     32  C   UNL     1      16.315  35.958   7.975  0.00  0.00    +0.024 A 
ATOM     33  C   UNL     1      17.750  35.917   8.112  0.00  0.00    +0.007 A 
ATOM     34  C   UNL     1      18.449  36.963   8.801  0.00  0.00    -0.029 A 
ATOM     35  C   UNL     1      19.989  36.871   8.913  0.00  0.00    +0.045 C 
ENDROOT
BRANCH  10   9
ATOM      4  C   UNL     1      19.622  42.449   9.520  0.00  0.00    +0.077 A 
ATOM      5  C   UNL     1      19.410  42.660   8.117  0.00  0.00    +0.048 A 
ATOM      6  C   UNL     1      18.800  41.614   7.389  0.00  0.00    +0.116 A 
ATOM      7  N   UNL     1      18.433  40.448   8.027  0.00  0.00    -0.223 NA
ATOM      8  C   UNL     1      18.655  40.277   9.381  0.00  0.00    +0.220 A 
ATOM      9  N   UNL     1      18.287  39.116  10.045  0.00  0.00    -0.283 N 
ATOM     36  H   UNL     1      18.474  39.026  11.043  0.00  0.00    +0.155 HD
ATOM     37  N   UNL     1      19.237  41.260  10.098  0.00  0.00    -0.214 NA
BRANCH   4   3
ATOM      1  C   UNL     1      21.115  44.226  12.669  0.00  0.00    +0.020 A 
ATOM      2  C   UNL     1      20.503  43.214  11.839  0.00  0.00    +0.013 A 
ATOM      3  C   UNL     1      20.253  43.462  10.425  0.00  0.00    +0.019 A 
ATOM     38  C   UNL     1      20.637  44.754   9.877  0.00  0.00    +0.120 A 
ATOM     39  N   UNL     1      21.224  45.710  10.701  0.00  0.00    -0.263 NA
ATOM     40  C   UNL     1      21.467  45.483  12.064  0.00  0.00    +0.111 A 
ENDBRANCH   4   3
ENDBRANCH  10   9
BRANCH  12  13
ATOM     13  N   UNL     1      14.120  37.009   8.329  0.00  0.00    -0.281 N 
ATOM     14  C   UNL     1      13.417  36.795   7.154  0.00  0.00    +0.248 C 
ATOM     30  O   UNL     1      13.917  36.804   6.039  0.00  0.00    -0.270 OA
ATOM     31  H   UNL     1      13.558  37.168   9.165  0.00  0.00    +0.155 HD
BRANCH  14  15
ATOM     15  C   UNL     1      11.945  36.550   7.228  0.00  0.00    +0.037 A 
ATOM     16  C   UNL     1      11.317  36.058   8.457  0.00  0.00    +0.013 A 
ATOM     17  C   UNL     1       9.897  35.814   8.496  0.00  0.00    +0.005 A 
ATOM     18  C   UNL     1       9.094  36.064   7.301  0.00  0.00    -0.033 A 
ATOM     28  C   UNL     1       9.742  36.557   6.097  0.00  0.00    +0.005 A 
ATOM     29  C   UNL     1      11.134  36.797   6.055  0.00  0.00    +0.013 A 
BRANCH  18  19
ATOM     19  C   UNL     1       7.576  35.811   7.246  0.00  0.00    +0.119 C 
BRANCH  19  20
ATOM     20  N   UNL     1       7.110  34.403   7.424  0.00  0.00    -0.302 NA
ATOM     21  C   UNL     1       7.838  33.434   6.488  0.00  0.00    +0.066 C 
ATOM     22  C   UNL     1       7.355  31.963   6.704  0.00  0.00    -0.064 C 
ATOM     23  N   UNL     1       5.842  31.890   6.489  0.00  0.00    +0.379 N 
ATOM     24  C   UNL     1       5.393  30.498   6.635  0.00  0.00    -0.096 C 
ATOM     25  H   UNL     1       5.634  32.205   5.440  0.00  0.00    -0.082 HD
ATOM     26  C   UNL     1       5.110  32.853   7.414  0.00  0.00    -0.064 C 
ATOM     27  C   UNL     1       5.619  34.307   7.212  0.00  0.00    +0.066 C 
ENDBRANCH  19  20
ENDBRANCH  18  19
ENDBRANCH  14  15
ENDBRANCH  12  13
TORSDOF 6
ENDMDL
MODEL 3
REMARK VINA RESULT:      -6.4     13.069     20.207
REMARK  Name = C:\Users\Docking\Desktop\test protocol\1iep_ligandH.pdb
REMARK  8 active torsions:
REMARK  status: ('A' for Active; 'I' for Inactive)
REMARK    1  A    between atoms: _5  and  _11
REMARK    2  A    between atoms: _19  and  _21
REMARK    3  A    between atoms: _22  and  _66
REMARK    4  A    between atoms: _27  and  _30
REMARK    5  A    between atoms: _32  and  _33
REMARK    6  A    between atoms: _38  and  _43
REMARK    7  A    between atoms: _43  and  _46
REMARK    8  A    between atoms: _53  and  _55
REMARK                            x       y       z     vdW  Elec       q    Type
REMARK                         _______ _______ _______ _____ _____    ______ ____
ROOT
ATOM     10  C   UNL     1      15.914  36.886   9.179  0.00  0.00    +0.038 A 
ATOM     11  C   UNL     1      14.519  37.104   9.048  0.00  0.00    +0.047 A 
ATOM     12  C   UNL     1      13.648  36.085   8.482  0.00  0.00    +0.035 A 
ATOM     32  C   UNL     1      14.232  34.855   8.062  0.00  0.00    +0.024 A 
ATOM     33  C   UNL     1      15.648  34.617   8.186  0.00  0.00    +0.007 A 
ATOM     34  C   UNL     1      16.513  35.619   8.741  0.00  0.00    -0.029 A 
ATOM     35  C   UNL     1      18.025  35.312   8.844  0.00  0.00    +0.045 C 
ENDROOT
BRANCH  10   9
ATOM      4  C   UNL     1      18.368  40.997   8.839  0.00  0.00    +0.077 A 
ATOM      5  C   UNL     1      18.074  41.126   7.441  0.00  0.00    +0.048 A 
ATOM      6  C   UNL     1      17.295  40.108   6.845  0.00  0.00    +0.116 A 
ATOM      7  N   UNL     1      16.848  39.047   7.601  0.00  0.00    -0.223 NA
ATOM      8  C   UNL     1      17.150  38.953   8.948  0.00  0.00    +0.220 A 
ATOM      9  N   UNL     1      16.704  37.898   9.729  0.00  0.00    -0.283 N 
ATOM     36  H   UNL     1      16.954  37.861  10.717  0.00  0.00    +0.155 HD
ATOM     37  N   UNL     1      17.894  39.910   9.539  0.00  0.00    -0.214 NA
BRANCH   4   3
ATOM      1  C   UNL     1      20.178  44.283   9.946  0.00  0.00    +0.020 A 
ATOM      2  C   UNL     1      19.389  43.362   9.161  0.00  0.00    +0.013 A 
ATOM      3  C   UNL     1      19.176  41.992   9.612  0.00  0.00    +0.019 A 
ATOM     38  C   UNL     1      19.781  41.584  10.871  0.00  0.00    +0.120 A 
ATOM     39  N   UNL     1      20.537  42.493  11.605  0.00  0.00    -0.263 NA
ATOM     40  C   UNL     1      20.750  43.813  11.180  0.00  0.00    +0.111 A 
ENDBRANCH   4   3
ENDBRANCH  10   9
BRANCH  12  13
ATOM     13  N   UNL     1      12.225  36.253   8.317  0.00  0.00    -0.281 N 
ATOM     14  C   UNL     1      11.523  36.458   7.141  0.00  0.00    +0.248 C 
ATOM     30  O   UNL     1      12.036  36.742   6.070  0.00  0.00    -0.270 OA
ATOM     31  H   UNL     1      11.669  36.216   9.172  0.00  0.00    +0.155 HD
BRANCH  14  15
ATOM     15  C   UNL     1      10.032  36.344   7.162  0.00  0.00    +0.037 A 
ATOM     16  C   UNL     1       9.243  36.485   5.936  0.00  0.00    +0.013 A 
ATOM     17  C   UNL     1       7.805  36.388   5.986  0.00  0.00    +0.005 A 
ATOM     18  C   UNL     1       7.148  36.147   7.268  0.00  0.00    -0.033 A 
ATOM     28  C   UNL     1       7.956  36.005   8.468  0.00  0.00    +0.005 A 
ATOM     29  C   UNL     1       9.365  36.101   8.423  0.00  0.00    +0.013 A 
BRANCH  18  19
ATOM     19  C   UNL     1       5.619  36.050   7.419  0.00  0.00    +0.119 C 
BRANCH  19  20
ATOM     20  N   UNL     1       4.908  35.056   6.560  0.00  0.00    -0.302 NA
ATOM     21  C   UNL     1       3.407  35.342   6.472  0.00  0.00    +0.066 C 
ATOM     22  C   UNL     1       2.683  34.306   5.552  0.00  0.00    -0.064 C 
ATOM     23  N   UNL     1       2.935  32.893   6.082  0.00  0.00    +0.379 N 
ATOM     24  C   UNL     1       2.209  31.921   5.253  0.00  0.00    -0.096 C 
ATOM     25  H   UNL     1       2.515  32.839   7.113  0.00  0.00    -0.082 HD
ATOM     26  C   UNL     1       4.426  32.601   6.175  0.00  0.00    -0.064 C 
ATOM     27  C   UNL     1       5.141  33.654   7.068  0.00  0.00    +0.066 C 
ENDBRANCH  19  20
ENDBRANCH  18  19
ENDBRANCH  14  15
ENDBRANCH  12  13
TORSDOF 6
ENDMDL
MODEL 4
REMARK VINA RESULT:      -6.3     11.871     14.763
REMARK  Name = C:\Users\Docking\Desktop\test protocol\1iep_ligandH.pdb
REMARK  8 active torsions:
REMARK  status: ('A' for Active; 'I' for Inactive)
REMARK    1  A    between atoms: _5  and  _11
REMARK    2  A    between atoms: _19  and  _21
REMARK    3  A    between atoms: _22  and  _66
REMARK    4  A    between atoms: _27  and  _30
REMARK    5  A    between atoms: _32  and  _33
REMARK    6  A    between atoms: _38  and  _43
REMARK    7  A    between atoms: _43  and  _46
REMARK    8  A    between atoms: _53  and  _55
REMARK                            x       y       z     vdW  Elec       q    Type
REMARK                         _______ _______ _______ _____ _____    ______ ____
ROOT
ATOM     10  C   UNL     1      13.012  35.708   8.497  0.00  0.00    +0.038 A 
ATOM     11  C   UNL     1      13.741  36.925   8.487  0.00  0.00    +0.047 A 
ATOM     12  C   UNL     1      15.193  36.931   8.392  0.00  0.00    +0.035 A 
ATOM     32  C   UNL     1      15.870  35.679   8.306  0.00  0.00    +0.024 A 
ATOM     33  C   UNL     1      15.144  34.434   8.316  0.00  0.00    +0.007 A 
ATOM     34  C   UNL     1      13.712  34.421   8.412  0.00  0.00    -0.029 A 
ATOM     35  C   UNL     1      12.987  33.055   8.425  0.00  0.00    +0.045 C 
ENDROOT
BRANCH  10   9
ATOM      4  C   UNL     1       8.667  36.432   6.590  0.00  0.00    +0.077 A 
ATOM      5  C   UNL     1       9.220  36.759   5.308  0.00  0.00    +0.048 A 
ATOM      6  C   UNL     1      10.627  36.736   5.182  0.00  0.00    +0.116 A 
ATOM      7  N   UNL     1      11.413  36.409   6.265  0.00  0.00    -0.223 NA
ATOM      8  C   UNL     1      10.848  36.101   7.489  0.00  0.00    +0.220 A 
ATOM      9  N   UNL     1      11.619  35.761   8.590  0.00  0.00    -0.283 N 
ATOM     36  H   UNL     1      11.165  35.547   9.478  0.00  0.00    +0.155 HD
ATOM     37  N   UNL     1       9.507  36.117   7.635  0.00  0.00    -0.214 NA
BRANCH   4   3
ATOM      1  C   UNL     1       5.186  35.604   8.171  0.00  0.00    +0.020 A 
ATOM      2  C   UNL     1       6.611  35.590   7.933  0.00  0.00    +0.013 A 
ATOM      3  C   UNL     1       7.198  36.409   6.880  0.00  0.00    +0.019 A 
ATOM     38  C   UNL     1       6.309  37.239   6.081  0.00  0.00    +0.120 A 
ATOM     39  N   UNL     1       4.941  37.232   6.333  0.00  0.00    -0.263 NA
ATOM     40  C   UNL     1       4.364  36.446   7.342  0.00  0.00    +0.111 A 
ENDBRANCH   4   3
ENDBRANCH  10   9
BRANCH  12  13
ATOM     13  N   UNL     1      15.988  38.134   8.386  0.00  0.00    -0.281 N 
ATOM     14  C   UNL     1      16.310  38.948   9.460  0.00  0.00    +0.248 C 
ATOM     30  O   UNL     1      15.784  38.880  10.560  0.00  0.00    -0.270 OA
ATOM     31  H   UNL     1      16.357  38.421   7.479  0.00  0.00    +0.155 HD
BRANCH  14  15
ATOM     15  C   UNL     1      17.359  39.997   9.281  0.00  0.00    +0.037 A 
ATOM     16  C   UNL     1      17.032  41.311   8.720  0.00  0.00    +0.013 A 
ATOM     17  C   UNL     1      18.066  42.299   8.543  0.00  0.00    +0.005 A 
ATOM     18  C   UNL     1      19.438  41.977   8.928  0.00  0.00    -0.033 A 
ATOM     28  C   UNL     1      19.734  40.668   9.487  0.00  0.00    +0.005 A 
ATOM     29  C   UNL     1      18.723  39.697   9.661  0.00  0.00    +0.013 A 
BRANCH  18  19
ATOM     19  C   UNL     1      20.609  42.963   8.755  0.00  0.00    +0.119 C 
BRANCH  19  20
ATOM     20  N   UNL     1      21.247  43.492   9.997  0.00  0.00    -0.302 NA
ATOM     21  C   UNL     1      20.227  43.716  11.116  0.00  0.00    +0.066 C 
ATOM     22  C   UNL     1      20.915  44.248  12.416  0.00  0.00    -0.064 C 
ATOM     23  N   UNL     1      21.665  45.543  12.098  0.00  0.00    +0.379 N 
ATOM     24  C   UNL     1      22.265  46.077  13.330  0.00  0.00    -0.096 C 
ATOM     25  H   UNL     1      20.918  46.287  11.737  0.00  0.00    -0.082 HD
ATOM     26  C   UNL     1      22.680  45.329  10.984  0.00  0.00    -0.064 C 
ATOM     27  C   UNL     1      21.990  44.773   9.708  0.00  0.00    +0.066 C 
ENDBRANCH  19  20
ENDBRANCH  18  19
ENDBRANCH  14  15
ENDBRANCH  12  13
TORSDOF 6
ENDMDL
MODEL 5
REMARK VINA RESULT:      -6.3      1.599      2.360
REMARK  Name = C:\Users\Docking\Desktop\test protocol\1iep_ligandH.pdb
REMARK  8 active torsions:
REMARK  status: ('A' for Active; 'I' for Inactive)
REMARK    1  A    between atoms: _5  and  _11
REMARK    2  A    between atoms: _19  and  _21
REMARK    3  A    between atoms: _22  and  _66
REMARK    4  A    between atoms: _27  and  _30
REMARK    5  A    between atoms: _32  and  _33
REMARK    6  A    between atoms: _38  and  _43
REMARK    7  A    between atoms: _43  and  _46
REMARK    8  A    between atoms: _53  and  _55
REMARK                            x       y       z     vdW  Elec       q    Type
REMARK                         _______ _______ _______ _____ _____    ______ ____
ROOT
ATOM     10  C   UNL     1      28.202  37.295   6.111  0.00  0.00    +0.038 A 
ATOM     11  C   UNL     1      28.638  37.760   7.378  0.00  0.00    +0.047 A 
ATOM     12  C   UNL     1      29.259  39.067   7.527  0.00  0.00    +0.035 A 
ATOM     32  C   UNL     1      29.419  39.875   6.364  0.00  0.00    +0.024 A 
ATOM     33  C   UNL     1      28.982  39.418   5.068  0.00  0.00    +0.007 A 
ATOM     34  C   UNL     1      28.371  38.128   4.915  0.00  0.00    -0.029 A 
ATOM     35  C   UNL     1      27.928  37.686   3.501  0.00  0.00    +0.045 C 
ENDROOT
BRANCH  10   9
ATOM      4  C   UNL     1      24.420  34.358   6.449  0.00  0.00    +0.077 A 
ATOM      5  C   UNL     1      23.553  35.426   6.855  0.00  0.00    +0.048 A 
ATOM      6  C   UNL     1      24.120  36.715   6.972  0.00  0.00    +0.116 A 
ATOM      7  N   UNL     1      25.457  36.909   6.700  0.00  0.00    -0.223 NA
ATOM      8  C   UNL     1      26.267  35.857   6.312  0.00  0.00    +0.220 A 
ATOM      9  N   UNL     1      27.612  36.032   6.026  0.00  0.00    -0.283 N 
ATOM     36  H   UNL     1      28.177  35.229   5.750  0.00  0.00    +0.155 HD
ATOM     37  N   UNL     1      25.749  34.617   6.195  0.00  0.00    -0.214 NA
BRANCH   4   3
ATOM      1  C   UNL     1      24.366  30.450   6.289  0.00  0.00    +0.020 A 
ATOM      2  C   UNL     1      24.853  31.799   6.467  0.00  0.00    +0.013 A 
ATOM      3  C   UNL     1      23.968  32.942   6.277  0.00  0.00    +0.019 A 
ATOM     38  C   UNL     1      22.585  32.683   5.906  0.00  0.00    +0.120 A 
ATOM     39  N   UNL     1      22.144  31.374   5.740  0.00  0.00    -0.263 NA
ATOM     40  C   UNL     1      22.987  30.266   5.918  0.00  0.00    +0.111 A 
ENDBRANCH   4   3
ENDBRANCH  10   9
BRANCH  12  13
ATOM     13  N   UNL     1      29.728  39.589   8.786  0.00  0.00    -0.281 N 
ATOM     14  C   UNL     1      31.001  39.498   9.325  0.00  0.00    +0.248 C 
ATOM     30  O   UNL     1      31.881  38.764   8.899  0.00  0.00    -0.270 OA
ATOM     31  H   UNL     1      29.038  40.087   9.349  0.00  0.00    +0.155 HD
BRANCH  14  15
ATOM     15  C   UNL     1      31.343  40.332  10.517  0.00  0.00    +0.037 A 
ATOM     16  C   UNL     1      32.273  39.849  11.541  0.00  0.00    +0.013 A 
ATOM     17  C   UNL     1      32.572  40.667  12.690  0.00  0.00    +0.005 A 
ATOM     18  C   UNL     1      31.939  41.977  12.820  0.00  0.00    -0.033 A 
ATOM     28  C   UNL     1      31.024  42.433  11.787  0.00  0.00    +0.005 A 
ATOM     29  C   UNL     1      30.728  41.634  10.660  0.00  0.00    +0.013 A 
BRANCH  18  19
ATOM     19  C   UNL     1      32.183  42.907  14.023  0.00  0.00    +0.119 C 
BRANCH  19  20
ATOM     20  N   UNL     1      32.846  42.315  15.223  0.00  0.00    -0.302 NA
ATOM     21  C   UNL     1      32.096  42.645  16.516  0.00  0.00    +0.066 C 
ATOM     22  C   UNL     1      32.791  41.998  17.758  0.00  0.00    -0.064 C 
ATOM     23  N   UNL     1      34.241  42.478  17.836  0.00  0.00    +0.379 N 
ATOM     24  C   UNL     1      34.880  41.918  19.035  0.00  0.00    -0.096 C 
ATOM     25  H   UNL     1      34.224  43.587  17.948  0.00  0.00    -0.082 HD
ATOM     26  C   UNL     1      34.994  42.156  16.553  0.00  0.00    -0.064 C 
ATOM     27  C   UNL     1      34.279  42.779  15.321  0.00  0.00    +0.066 C 
ENDBRANCH  19  20
ENDBRANCH  18  19
ENDBRANCH  14  15
ENDBRANCH  12  13
TORSDOF 6
ENDMDL
