MODEL 1
REMARK VINA RESULT:      -8.3      0.000      0.000
REMARK  Name = C:\Users\Docking\Desktop\test protocol\1iep_ligandH.pdb
REMARK  8 active torsions:
REMARK  status: ('A' for Active; 'I' for Inactive)
REMARK    1  A    between atoms: _5  and  _11
REMARK    2  A    between atoms: _19  and  _21
REMARK    3  A    between atoms: _22  and  _66
REMARK    4  A    between atoms: _27  and  _30
REMARK    5  A    between atoms: _32  and  _33
REMARK    6  A    between atoms: _38  and  _43
REMARK    7  A    between atoms: _43  and  _46
REMARK    8  A    between atoms: _53  and  _55
REMARK                            x       y       z     vdW  Elec       q    Type
REMARK                         _______ _______ _______ _____ _____    ______ ____
ROOT
ATOM     10  C   UNL     1      25.855  10.552   2.818  0.00  0.00    +0.038 A 
ATOM     11  C   UNL     1      27.084   9.920   3.138  0.00  0.00    +0.047 A 
ATOM     12  C   UNL     1      27.659   8.908   2.266  0.00  0.00    +0.035 A 
ATOM     32  C   UNL     1      26.957   8.566   1.073  0.00  0.00    +0.024 A 
ATOM     33  C   UNL     1      25.706   9.198   0.733  0.00  0.00    +0.007 A 
ATOM     34  C   UNL     1      25.133  10.195   1.591  0.00  0.00    -0.029 A 
ATOM     35  C   UNL     1      23.786  10.835   1.180  0.00  0.00    +0.045 C 
ENDROOT
BRANCH  10   9
ATOM      4  C   UNL     1      22.822  11.976   6.255  0.00  0.00    +0.077 A 
ATOM      5  C   UNL     1      22.174  10.697   6.295  0.00  0.00    +0.048 A 
ATOM      6  C   UNL     1      22.646   9.702   5.410  0.00  0.00    +0.116 A 
ATOM      7  N   UNL     1      23.690   9.977   4.553  0.00  0.00    -0.223 NA
ATOM      8  C   UNL     1      24.292  11.221   4.539  0.00  0.00    +0.220 A 
ATOM      9  N   UNL     1      25.349  11.517   3.692  0.00  0.00    -0.283 N 
ATOM     36  H   UNL     1      25.761  12.450   3.706  0.00  0.00    +0.155 HD
ATOM     37  N   UNL     1      23.859  12.189   5.374  0.00  0.00    -0.214 NA
BRANCH   4   3
ATOM      1  C   UNL     1      21.497  14.102   9.259  0.00  0.00    +0.020 A 
ATOM      2  C   UNL     1      21.849  12.956   8.453  0.00  0.00    +0.013 A 
ATOM      3  C   UNL     1      22.439  13.128   7.131  0.00  0.00    +0.019 A 
ATOM     38  C   UNL     1      22.663  14.483   6.652  0.00  0.00    +0.120 A 
ATOM     39  N   UNL     1      22.313  15.568   7.450  0.00  0.00    -0.263 NA
ATOM     40  C   UNL     1      21.743  15.415   8.722  0.00  0.00    +0.111 A 
ENDBRANCH   4   3
ENDBRANCH  10   9
BRANCH  12  13
ATOM     13  N   UNL     1      28.899   8.226   2.543  0.00  0.00    -0.281 N 
ATOM     14  C   UNL     1      30.081   8.283   1.823  0.00  0.00    +0.248 C 
ATOM     30  O   UNL     1      30.187   8.764   0.705  0.00  0.00    -0.270 OA
ATOM     31  H   UNL     1      28.906   7.629   3.370  0.00  0.00    +0.155 HD
BRANCH  14  15
ATOM     15  C   UNL     1      31.322   7.708   2.426  0.00  0.00    +0.037 A 
ATOM     16  C   UNL     1      32.650   8.095   1.944  0.00  0.00    +0.013 A 
ATOM     17  C   UNL     1      33.831   7.512   2.532  0.00  0.00    +0.005 A 
ATOM     18  C   UNL     1      33.687   6.537   3.610  0.00  0.00    -0.033 A 
ATOM     28  C   UNL     1      32.357   6.176   4.073  0.00  0.00    +0.005 A 
ATOM     29  C   UNL     1      31.198   6.744   3.498  0.00  0.00    +0.013 A 
BRANCH  18  19
ATOM     19  C   UNL     1      34.890   5.849   4.282  0.00  0.00    +0.119 C 
BRANCH  19  20
ATOM     20  N   UNL     1      36.160   5.777   3.499  0.00  0.00    -0.302 NA
ATOM     21  C   UNL     1      36.165   4.600   2.520  0.00  0.00    +0.066 C 
ATOM     22  C   UNL     1      37.492   4.552   1.694  0.00  0.00    -0.064 C 
ATOM     23  N   UNL     1      38.682   4.466   2.651  0.00  0.00    +0.379 N 
ATOM     24  C   UNL     1      39.928   4.363   1.876  0.00  0.00    -0.096 C 
ATOM     25  H   UNL     1      38.573   3.527   3.242  0.00  0.00    -0.082 HD
ATOM     26  C   UNL     1      38.684   5.631   3.630  0.00  0.00    -0.064 C 
ATOM     27  C   UNL     1      37.349   5.687   4.425  0.00  0.00    +0.066 C 
ENDBRANCH  19  20
ENDBRANCH  18  19
ENDBRANCH  14  15
ENDBRANCH  12  13
TORSDOF 6
ENDMDL
MODEL 2
REMARK VINA RESULT:      -8.3      6.997     10.765
REMARK  Name = C:\Users\Docking\Desktop\test protocol\1iep_ligandH.pdb
REMARK  8 active torsions:
REMARK  status: ('A' for Active; 'I' for Inactive)
REMARK    1  A    between atoms: _5  and  _11
REMARK    2  A    between atoms: _19  and  _21
REMARK    3  A    between atoms: _22  and  _66
REMARK    4  A    between atoms: _27  and  _30
REMARK    5  A    between atoms: _32  and  _33
REMARK    6  A    between atoms: _38  and  _43
REMARK    7  A    between atoms: _43  and  _46
REMARK    8  A    between atoms: _53  and  _55
REMARK                            x       y       z     vdW  Elec       q    Type
REMARK                         _______ _______ _______ _____ _____    ______ ____
ROOT
ATOM     10  C   UNL     1      22.742  17.000   8.140  0.00  0.00    +0.038 A 
ATOM     11  C   UNL     1      23.142  15.817   7.467  0.00  0.00    +0.047 A 
ATOM     12  C   UNL     1      22.700  14.507   7.920  0.00  0.00    +0.035 A 
ATOM     32  C   UNL     1      21.850  14.439   9.062  0.00  0.00    +0.024 A 
ATOM     33  C   UNL     1      21.434  15.631   9.759  0.00  0.00    +0.007 A 
ATOM     34  C   UNL     1      21.868  16.926   9.317  0.00  0.00    -0.029 A 
ATOM     35  C   UNL     1      21.397  18.169  10.107  0.00  0.00    +0.045 C 
ENDROOT
BRANCH  10   9
ATOM      4  C   UNL     1      26.024  20.493   7.882  0.00  0.00    +0.077 A 
ATOM      5  C   UNL     1      26.897  19.820   8.800  0.00  0.00    +0.048 A 
ATOM      6  C   UNL     1      26.462  18.581   9.321  0.00  0.00    +0.116 A 
ATOM      7  N   UNL     1      25.242  18.063   8.945  0.00  0.00    -0.223 NA
ATOM      8  C   UNL     1      24.422  18.738   8.059  0.00  0.00    +0.220 A 
ATOM      9  N   UNL     1      23.195  18.231   7.661  0.00  0.00    -0.283 N 
ATOM     36  H   UNL     1      22.617  18.763   7.011  0.00  0.00    +0.155 HD
ATOM     37  N   UNL     1      24.815  19.924   7.549  0.00  0.00    -0.214 NA
BRANCH   4   3
ATOM      1  C   UNL     1      26.883  24.271   7.345  0.00  0.00    +0.020 A 
ATOM      2  C   UNL     1      26.576  23.026   8.011  0.00  0.00    +0.013 A 
ATOM      3  C   UNL     1      26.344  21.808   7.244  0.00  0.00    +0.019 A 
ATOM     38  C   UNL     1      26.432  21.885   5.793  0.00  0.00    +0.120 A 
ATOM     39  N   UNL     1      26.728  23.099   5.180  0.00  0.00    -0.263 NA
ATOM     40  C   UNL     1      26.952  24.277   5.908  0.00  0.00    +0.111 A 
ENDBRANCH   4   3
ENDBRANCH  10   9
BRANCH  12  13
ATOM     13  N   UNL     1      23.080  13.272   7.282  0.00  0.00    -0.281 N 
ATOM     14  C   UNL     1      22.349  12.521   6.377  0.00  0.00    +0.248 C 
ATOM     30  O   UNL     1      21.162  12.688   6.140  0.00  0.00    -0.270 OA
ATOM     31  H   UNL     1      24.001  12.906   7.527  0.00  0.00    +0.155 HD
BRANCH  14  15
ATOM     15  C   UNL     1      23.031  11.414   5.638  0.00  0.00    +0.037 A 
ATOM     16  C   UNL     1      22.493  10.051   5.646  0.00  0.00    +0.013 A 
ATOM     17  C   UNL     1      23.180   8.999   4.939  0.00  0.00    +0.005 A 
ATOM     18  C   UNL     1      24.412   9.307   4.218  0.00  0.00    -0.033 A 
ATOM     28  C   UNL     1      24.920  10.669   4.223  0.00  0.00    +0.005 A 
ATOM     29  C   UNL     1      24.251  11.703   4.915  0.00  0.00    +0.013 A 
BRANCH  18  19
ATOM     19  C   UNL     1      25.223   8.243   3.454  0.00  0.00    +0.119 C 
BRANCH  19  20
ATOM     20  N   UNL     1      24.637   7.718   2.185  0.00  0.00    -0.302 NA
ATOM     21  C   UNL     1      23.820   6.444   2.412  0.00  0.00    +0.066 C 
ATOM     22  C   UNL     1      23.196   5.921   1.077  0.00  0.00    -0.064 C 
ATOM     23  N   UNL     1      24.310   5.675   0.059  0.00  0.00    +0.379 N 
ATOM     24  C   UNL     1      23.733   5.129  -1.178  0.00  0.00    -0.096 C 
ATOM     25  H   UNL     1      24.992   4.902   0.484  0.00  0.00    -0.082 HD
ATOM     26  C   UNL     1      25.130   6.937  -0.172  0.00  0.00    -0.064 C 
ATOM     27  C   UNL     1      25.721   7.464   1.166  0.00  0.00    +0.066 C 
ENDBRANCH  19  20
ENDBRANCH  18  19
ENDBRANCH  14  15
ENDBRANCH  12  13
TORSDOF 6
ENDMDL
MODEL 3
REMARK VINA RESULT:      -8.3     12.859     18.424
REMARK  Name = C:\Users\Docking\Desktop\test protocol\1iep_ligandH.pdb
REMARK  8 active torsions:
REMARK  status: ('A' for Active; 'I' for Inactive)
REMARK    1  A    between atoms: _5  and  _11
REMARK    2  A    between atoms: _19  and  _21
REMARK    3  A    between atoms: _22  and  _66
REMARK    4  A    between atoms: _27  and  _30
REMARK    5  A    between atoms: _32  and  _33
REMARK    6  A    between atoms: _38  and  _43
REMARK    7  A    between atoms: _43  and  _46
REMARK    8  A    between atoms: _53  and  _55
REMARK                            x       y       z     vdW  Elec       q    Type
REMARK                         _______ _______ _______ _____ _____    ______ ____
ROOT
ATOM     10  C   UNL     1      25.058  20.444   8.370  0.00  0.00    +0.038 A 
ATOM     11  C   UNL     1      25.357  21.830   8.346  0.00  0.00    +0.047 A 
ATOM     12  C   UNL     1      26.731  22.303   8.281  0.00  0.00    +0.035 A 
ATOM     32  C   UNL     1      27.777  21.335   8.238  0.00  0.00    +0.024 A 
ATOM     33  C   UNL     1      27.491  19.922   8.263  0.00  0.00    +0.007 A 
ATOM     34  C   UNL     1      26.137  19.450   8.330  0.00  0.00    -0.029 A 
ATOM     35  C   UNL     1      25.890  17.924   8.360  0.00  0.00    +0.045 C 
ENDROOT
BRANCH  10   9
ATOM      4  C   UNL     1      21.209  18.905  10.791  0.00  0.00    +0.077 A 
ATOM      5  C   UNL     1      21.931  18.865  12.030  0.00  0.00    +0.048 A 
ATOM      6  C   UNL     1      23.293  19.240  12.000  0.00  0.00    +0.116 A 
ATOM      7  N   UNL     1      23.878  19.627  10.814  0.00  0.00    -0.223 NA
ATOM      8  C   UNL     1      23.154  19.653   9.636  0.00  0.00    +0.220 A 
ATOM      9  N   UNL     1      23.720  20.046   8.433  0.00  0.00    -0.283 N 
ATOM     36  H   UNL     1      23.154  20.045   7.585  0.00  0.00    +0.155 HD
ATOM     37  N   UNL     1      21.852  19.298   9.638  0.00  0.00    -0.214 NA
BRANCH   4   3
ATOM      1  C   UNL     1      17.332  18.774  11.295  0.00  0.00    +0.020 A 
ATOM      2  C   UNL     1      18.714  19.162  11.459  0.00  0.00    +0.013 A 
ATOM      3  C   UNL     1      19.763  18.540  10.661  0.00  0.00    +0.019 A 
ATOM     38  C   UNL     1      19.377  17.522   9.696  0.00  0.00    +0.120 A 
ATOM     39  N   UNL     1      18.038  17.167   9.560  0.00  0.00    -0.263 NA
ATOM     40  C   UNL     1      17.020  17.757  10.325  0.00  0.00    +0.111 A 
ENDBRANCH   4   3
ENDBRANCH  10   9
BRANCH  12  13
ATOM     13  N   UNL     1      27.096  23.697   8.262  0.00  0.00    -0.281 N 
ATOM     14  C   UNL     1      26.667  24.678   7.383  0.00  0.00    +0.248 C 
ATOM     30  O   UNL     1      26.066  24.458   6.342  0.00  0.00    -0.270 OA
ATOM     31  H   UNL     1      27.750  23.998   8.985  0.00  0.00    +0.155 HD
BRANCH  14  15
ATOM     15  C   UNL     1      26.961  26.109   7.698  0.00  0.00    +0.037 A 
ATOM     16  C   UNL     1      25.972  27.161   7.449  0.00  0.00    +0.013 A 
ATOM     17  C   UNL     1      26.287  28.536   7.747  0.00  0.00    +0.005 A 
ATOM     18  C   UNL     1      27.599  28.866   8.298  0.00  0.00    -0.033 A 
ATOM     28  C   UNL     1      28.560  27.803   8.540  0.00  0.00    +0.005 A 
ATOM     29  C   UNL     1      28.254  26.454   8.249  0.00  0.00    +0.013 A 
BRANCH  18  19
ATOM     19  C   UNL     1      28.029  30.308   8.626  0.00  0.00    +0.119 C 
BRANCH  19  20
ATOM     20  N   UNL     1      28.467  30.590  10.025  0.00  0.00    -0.302 NA
ATOM     21  C   UNL     1      27.348  31.215  10.863  0.00  0.00    +0.066 C 
ATOM     22  C   UNL     1      27.817  31.482  12.331  0.00  0.00    -0.064 C 
ATOM     23  N   UNL     1      29.050  32.387  12.312  0.00  0.00    +0.379 N 
ATOM     24  C   UNL     1      29.458  32.688  13.692  0.00  0.00    -0.096 C 
ATOM     25  H   UNL     1      28.756  33.348  11.829  0.00  0.00    -0.082 HD
ATOM     26  C   UNL     1      30.167  31.775  11.479  0.00  0.00    -0.064 C 
ATOM     27  C   UNL     1      29.681  31.486  10.031  0.00  0.00    +0.066 C 
ENDBRANCH  19  20
ENDBRANCH  18  19
ENDBRANCH  14  15
ENDBRANCH  12  13
TORSDOF 6
ENDMDL
MODEL 4
REMARK VINA RESULT:      -8.2      5.584     10.508
REMARK  Name = C:\Users\Docking\Desktop\test protocol\1iep_ligandH.pdb
REMARK  8 active torsions:
REMARK  status: ('A' for Active; 'I' for Inactive)
REMARK    1  A    between atoms: _5  and  _11
REMARK    2  A    between atoms: _19  and  _21
REMARK    3  A    between atoms: _22  and  _66
REMARK    4  A    between atoms: _27  and  _30
REMARK    5  A    between atoms: _32  and  _33
REMARK    6  A    between atoms: _38  and  _43
REMARK    7  A    between atoms: _43  and  _46
REMARK    8  A    between atoms: _53  and  _55
REMARK                            x       y       z     vdW  Elec       q    Type
REMARK                         _______ _______ _______ _____ _____    ______ ____
ROOT
ATOM     10  C   UNL     1      22.634  17.406   8.340  0.00  0.00    +0.038 A 
ATOM     11  C   UNL     1      22.992  16.200   7.685  0.00  0.00    +0.047 A 
ATOM     12  C   UNL     1      22.488  14.915   8.144  0.00  0.00    +0.035 A 
ATOM     32  C   UNL     1      21.617  14.896   9.272  0.00  0.00    +0.024 A 
ATOM     33  C   UNL     1      21.242  16.111   9.951  0.00  0.00    +0.007 A 
ATOM     34  C   UNL     1      21.739  17.382   9.504  0.00  0.00    -0.029 A 
ATOM     35  C   UNL     1      21.310  18.652  10.274  0.00  0.00    +0.045 C 
ENDROOT
BRANCH  10   9
ATOM      4  C   UNL     1      26.124  20.682   7.991  0.00  0.00    +0.077 A 
ATOM      5  C   UNL     1      26.987  19.942   8.866  0.00  0.00    +0.048 A 
ATOM      6  C   UNL     1      26.492  18.727   9.390  0.00  0.00    +0.116 A 
ATOM      7  N   UNL     1      25.227  18.294   9.057  0.00  0.00    -0.223 NA
ATOM      8  C   UNL     1      24.420  19.032   8.212  0.00  0.00    +0.220 A 
ATOM      9  N   UNL     1      23.147  18.611   7.857  0.00  0.00    -0.283 N 
ATOM     36  H   UNL     1      22.580  19.189   7.237  0.00  0.00    +0.155 HD
ATOM     37  N   UNL     1      24.869  20.197   7.699  0.00  0.00    -0.214 NA
BRANCH   4   3
ATOM      1  C   UNL     1      27.229  24.396   7.461  0.00  0.00    +0.020 A 
ATOM      2  C   UNL     1      26.868  23.165   8.125  0.00  0.00    +0.013 A 
ATOM      3  C   UNL     1      26.505  21.982   7.354  0.00  0.00    +0.019 A 
ATOM     38  C   UNL     1      26.517  22.080   5.902  0.00  0.00    +0.120 A 
ATOM     39  N   UNL     1      26.868  23.279   5.291  0.00  0.00    -0.263 NA
ATOM     40  C   UNL     1      27.218  24.424   6.022  0.00  0.00    +0.111 A 
ENDBRANCH   4   3
ENDBRANCH  10   9
BRANCH  12  13
ATOM     13  N   UNL     1      22.824  13.658   7.524  0.00  0.00    -0.281 N 
ATOM     14  C   UNL     1      22.036  12.882   6.689  0.00  0.00    +0.248 C 
ATOM     30  O   UNL     1      20.837  13.048   6.520  0.00  0.00    -0.270 OA
ATOM     31  H   UNL     1      23.756  13.295   7.725  0.00  0.00    +0.155 HD
BRANCH  14  15
ATOM     15  C   UNL     1      22.668  11.749   5.947  0.00  0.00    +0.037 A 
ATOM     16  C   UNL     1      22.120  10.393   6.020  0.00  0.00    +0.013 A 
ATOM     17  C   UNL     1      22.759   9.315   5.308  0.00  0.00    +0.005 A 
ATOM     18  C   UNL     1      23.954   9.590   4.514  0.00  0.00    -0.033 A 
ATOM     28  C   UNL     1      24.474  10.946   4.455  0.00  0.00    +0.005 A 
ATOM     29  C   UNL     1      23.851  12.005   5.153  0.00  0.00    +0.013 A 
BRANCH  18  19
ATOM     19  C   UNL     1      24.713   8.497   3.739  0.00  0.00    +0.119 C 
BRANCH  19  20
ATOM     20  N   UNL     1      25.708   8.947   2.720  0.00  0.00    -0.302 NA
ATOM     21  C   UNL     1      25.702   8.053   1.477  0.00  0.00    +0.066 C 
ATOM     22  C   UNL     1      26.732   8.552   0.412  0.00  0.00    -0.064 C 
ATOM     23  N   UNL     1      28.127   8.599   1.039  0.00  0.00    +0.379 N 
ATOM     24  C   UNL     1      29.107   9.011   0.024  0.00  0.00    -0.096 C 
ATOM     25  H   UNL     1      28.388   7.563   1.360  0.00  0.00    -0.082 HD
ATOM     26  C   UNL     1      28.141   9.483   2.277  0.00  0.00    -0.064 C 
ATOM     27  C   UNL     1      27.093   8.997   3.317  0.00  0.00    +0.066 C 
ENDBRANCH  19  20
ENDBRANCH  18  19
ENDBRANCH  14  15
ENDBRANCH  12  13
TORSDOF 6
ENDMDL
MODEL 5
REMARK VINA RESULT:      -8.1      3.441     12.907
REMARK  Name = C:\Users\Docking\Desktop\test protocol\1iep_ligandH.pdb
REMARK  8 active torsions:
REMARK  status: ('A' for Active; 'I' for Inactive)
REMARK    1  A    between atoms: _5  and  _11
REMARK    2  A    between atoms: _19  and  _21
REMARK    3  A    between atoms: _22  and  _66
REMARK    4  A    between atoms: _27  and  _30
REMARK    5  A    between atoms: _32  and  _33
REMARK    6  A    between atoms: _38  and  _43
REMARK    7  A    between atoms: _43  and  _46
REMARK    8  A    between atoms: _53  and  _55
REMARK                            x       y       z     vdW  Elec       q    Type
REMARK                         _______ _______ _______ _____ _____    ______ ____
ROOT
ATOM     10  C   UNL     1      25.570   9.307   3.937  0.00  0.00    +0.038 A 
ATOM     11  C   UNL     1      25.271  10.568   4.514  0.00  0.00    +0.047 A 
ATOM     12  C   UNL     1      23.925  11.116   4.468  0.00  0.00    +0.035 A 
ATOM     32  C   UNL     1      22.905  10.352   3.829  0.00  0.00    +0.024 A 
ATOM     33  C   UNL     1      23.192   9.069   3.237  0.00  0.00    +0.007 A 
ATOM     34  C   UNL     1      24.519   8.524   3.277  0.00  0.00    -0.029 A 
ATOM     35  C   UNL     1      24.770   7.147   2.620  0.00  0.00    +0.045 C 
ENDROOT
BRANCH  10   9
ATOM      4  C   UNL     1      29.857   8.395   1.981  0.00  0.00    +0.077 A 
ATOM      5  C   UNL     1      29.443   8.888   0.699  0.00  0.00    +0.048 A 
ATOM      6  C   UNL     1      28.117   9.361   0.583  0.00  0.00    +0.116 A 
ATOM      7  N   UNL     1      27.276   9.338   1.675  0.00  0.00    -0.223 NA
ATOM      8  C   UNL     1      27.707   8.854   2.897  0.00  0.00    +0.220 A 
ATOM      9  N   UNL     1      26.880   8.829   4.010  0.00  0.00    -0.283 N 
ATOM     36  H   UNL     1      27.233   8.458   4.891  0.00  0.00    +0.155 HD
ATOM     37  N   UNL     1      28.968   8.396   3.033  0.00  0.00    -0.214 NA
BRANCH   4   3
ATOM      1  C   UNL     1      33.388   7.829   3.567  0.00  0.00    +0.020 A 
ATOM      2  C   UNL     1      32.071   8.376   3.337  0.00  0.00    +0.013 A 
ATOM      3  C   UNL     1      31.229   7.865   2.263  0.00  0.00    +0.019 A 
ATOM     38  C   UNL     1      31.753   6.790   1.434  0.00  0.00    +0.120 A 
ATOM     39  N   UNL     1      33.026   6.284   1.678  0.00  0.00    -0.263 NA
ATOM     40  C   UNL     1      33.846   6.769   2.708  0.00  0.00    +0.111 A 
ENDBRANCH   4   3
ENDBRANCH  10   9
BRANCH  12  13
ATOM     13  N   UNL     1      23.563  12.395   5.029  0.00  0.00    -0.281 N 
ATOM     14  C   UNL     1      22.729  12.647   6.106  0.00  0.00    +0.248 C 
ATOM     30  O   UNL     1      21.994  11.817   6.620  0.00  0.00    -0.270 OA
ATOM     31  H   UNL     1      23.972  13.213   4.578  0.00  0.00    +0.155 HD
BRANCH  14  15
ATOM     15  C   UNL     1      22.696  14.024   6.687  0.00  0.00    +0.037 A 
ATOM     16  C   UNL     1      22.194  14.265   8.042  0.00  0.00    +0.013 A 
ATOM     17  C   UNL     1      22.158  15.605   8.572  0.00  0.00    +0.005 A 
ATOM     18  C   UNL     1      22.627  16.715   7.746  0.00  0.00    -0.033 A 
ATOM     28  C   UNL     1      23.124  16.446   6.407  0.00  0.00    +0.005 A 
ATOM     29  C   UNL     1      23.161  15.134   5.884  0.00  0.00    +0.013 A 
BRANCH  18  19
ATOM     19  C   UNL     1      22.604  18.179   8.221  0.00  0.00    +0.119 C 
BRANCH  19  20
ATOM     20  N   UNL     1      23.901  18.921   8.214  0.00  0.00    -0.302 NA
ATOM     21  C   UNL     1      25.016  18.134   8.909  0.00  0.00    +0.066 C 
ATOM     22  C   UNL     1      26.370  18.914   8.872  0.00  0.00    -0.064 C 
ATOM     23  N   UNL     1      26.185  20.284   9.527  0.00  0.00    +0.379 N 
ATOM     24  C   UNL     1      27.470  20.997   9.546  0.00  0.00    -0.096 C 
ATOM     25  H   UNL     1      25.876  20.114  10.585  0.00  0.00    -0.082 HD
ATOM     26  C   UNL     1      25.076  21.072   8.844  0.00  0.00    -0.064 C 
ATOM     27  C   UNL     1      23.741  20.275   8.860  0.00  0.00    +0.066 C 
ENDBRANCH  19  20
ENDBRANCH  18  19
ENDBRANCH  14  15
ENDBRANCH  12  13
TORSDOF 6
ENDMDL
