MODEL 1
REMARK VINA RESULT:      -8.3      0.000      0.000
REMARK  Name = C:\Users\Docking\Desktop\test protocol\1iep_ligandH.pdb
REMARK  8 active torsions:
REMARK  status: ('A' for Active; 'I' for Inactive)
REMARK    1  A    between atoms: _5  and  _11
REMARK    2  A    between atoms: _19  and  _21
REMARK    3  A    between atoms: _22  and  _66
REMARK    4  A    between atoms: _27  and  _30
REMARK    5  A    between atoms: _32  and  _33
REMARK    6  A    between atoms: _38  and  _43
REMARK    7  A    between atoms: _43  and  _46
REMARK    8  A    between atoms: _53  and  _55
REMARK                            x       y       z     vdW  Elec       q    Type
REMARK                         _______ _______ _______ _____ _____    ______ ____
ROOT
ATOM     10  C   UNL     1       5.264  -0.949  22.060  0.00  0.00    +0.038 A 
ATOM     11  C   UNL     1       4.774  -1.022  20.731  0.00  0.00    +0.047 A 
ATOM     12  C   UNL     1       5.344  -1.953  19.769  0.00  0.00    +0.035 A 
ATOM     32  C   UNL     1       6.410  -2.797  20.196  0.00  0.00    +0.024 A 
ATOM     33  C   UNL     1       6.921  -2.735  21.543  0.00  0.00    +0.007 A 
ATOM     34  C   UNL     1       6.365  -1.817  22.495  0.00  0.00    -0.029 A 
ATOM     35  C   UNL     1       6.956  -1.789  23.924  0.00  0.00    +0.045 C 
ENDROOT
BRANCH  10   9
ATOM      4  C   UNL     1       5.298   3.167  24.528  0.00  0.00    +0.077 A 
ATOM      5  C   UNL     1       6.601   3.517  24.041  0.00  0.00    +0.048 A 
ATOM      6  C   UNL     1       7.232   2.607  23.163  0.00  0.00    +0.116 A 
ATOM      7  N   UNL     1       6.597   1.438  22.805  0.00  0.00    -0.223 NA
ATOM      8  C   UNL     1       5.341   1.130  23.294  0.00  0.00    +0.220 A 
ATOM      9  N   UNL     1       4.680  -0.037  22.942  0.00  0.00    -0.283 N 
ATOM     36  H   UNL     1       3.757  -0.231  23.330  0.00  0.00    +0.155 HD
ATOM     37  N   UNL     1       4.718   1.982  24.136  0.00  0.00    -0.214 NA
BRANCH   4   3
ATOM      1  C   UNL     1       4.267   5.483  27.507  0.00  0.00    +0.020 A 
ATOM      2  C   UNL     1       5.079   4.662  26.639  0.00  0.00    +0.013 A 
ATOM      3  C   UNL     1       4.503   4.027  25.461  0.00  0.00    +0.019 A 
ATOM     38  C   UNL     1       3.090   4.245  25.186  0.00  0.00    +0.120 A 
ATOM     39  N   UNL     1       2.333   5.040  26.041  0.00  0.00    -0.263 NA
ATOM     40  C   UNL     1       2.876   5.655  27.179  0.00  0.00    +0.111 A 
ENDBRANCH   4   3
ENDBRANCH  10   9
BRANCH  12  13
ATOM     13  N   UNL     1       4.893  -2.067  18.404  0.00  0.00    -0.281 N 
ATOM     14  C   UNL     1       4.313  -3.164  17.787  0.00  0.00    +0.248 C 
ATOM     30  O   UNL     1       4.289  -4.290  18.261  0.00  0.00    -0.270 OA
ATOM     31  H   UNL     1       5.016  -1.238  17.822  0.00  0.00    +0.155 HD
BRANCH  14  15
ATOM     15  C   UNL     1       3.681  -2.986  16.445  0.00  0.00    +0.037 A 
ATOM     16  C   UNL     1       2.463  -3.712  16.076  0.00  0.00    +0.013 A 
ATOM     17  C   UNL     1       1.884  -3.536  14.768  0.00  0.00    +0.005 A 
ATOM     18  C   UNL     1       2.522  -2.627  13.819  0.00  0.00    -0.033 A 
ATOM     28  C   UNL     1       3.727  -1.915  14.212  0.00  0.00    +0.005 A 
ATOM     29  C   UNL     1       4.298  -2.086  15.493  0.00  0.00    +0.013 A 
BRANCH  18  19
ATOM     19  C   UNL     1       1.986  -2.393  12.394  0.00  0.00    +0.119 C 
BRANCH  19  20
ATOM     20  N   UNL     1       1.778  -0.978  11.965  0.00  0.00    -0.302 NA
ATOM     21  C   UNL     1       0.618  -0.315  12.713  0.00  0.00    +0.066 C 
ATOM     22  C   UNL     1       0.429   1.172  12.268  0.00  0.00    -0.064 C 
ATOM     23  N   UNL     1       0.200   1.224  10.756  0.00  0.00    +0.379 N 
ATOM     24  C   UNL     1      -0.036   2.615  10.343  0.00  0.00    -0.096 C 
ATOM     25  H   UNL     1      -0.726   0.644  10.535  0.00  0.00    -0.082 HD
ATOM     26  C   UNL     1       1.348   0.564  10.005  0.00  0.00    -0.064 C 
ATOM     27  C   UNL     1       1.546  -0.904  10.476  0.00  0.00    +0.066 C 
ENDBRANCH  19  20
ENDBRANCH  18  19
ENDBRANCH  14  15
ENDBRANCH  12  13
TORSDOF 6
ENDMDL
MODEL 2
REMARK VINA RESULT:      -8.3      7.277     12.100
REMARK  Name = C:\Users\Docking\Desktop\test protocol\1iep_ligandH.pdb
REMARK  8 active torsions:
REMARK  status: ('A' for Active; 'I' for Inactive)
REMARK    1  A    between atoms: _5  and  _11
REMARK    2  A    between atoms: _19  and  _21
REMARK    3  A    between atoms: _22  and  _66
REMARK    4  A    between atoms: _27  and  _30
REMARK    5  A    between atoms: _32  and  _33
REMARK    6  A    between atoms: _38  and  _43
REMARK    7  A    between atoms: _43  and  _46
REMARK    8  A    between atoms: _53  and  _55
REMARK                            x       y       z     vdW  Elec       q    Type
REMARK                         _______ _______ _______ _____ _____    ______ ____
ROOT
ATOM     10  C   UNL     1       4.271  -4.187  15.780  0.00  0.00    +0.038 A 
ATOM     11  C   UNL     1       3.479  -4.846  16.755  0.00  0.00    +0.047 A 
ATOM     12  C   UNL     1       3.972  -6.020  17.457  0.00  0.00    +0.035 A 
ATOM     32  C   UNL     1       5.279  -6.496  17.143  0.00  0.00    +0.024 A 
ATOM     33  C   UNL     1       6.097  -5.839  16.154  0.00  0.00    +0.007 A 
ATOM     34  C   UNL     1       5.614  -4.681  15.457  0.00  0.00    -0.029 A 
ATOM     35  C   UNL     1       6.532  -4.021  14.402  0.00  0.00    +0.045 C 
ENDROOT
BRANCH  10   9
ATOM      4  C   UNL     1       1.819  -2.110  12.215  0.00  0.00    +0.077 A 
ATOM      5  C   UNL     1       1.585  -3.367  11.564  0.00  0.00    +0.048 A 
ATOM      6  C   UNL     1       2.119  -4.524  12.176  0.00  0.00    +0.116 A 
ATOM      7  N   UNL     1       2.831  -4.419  13.351  0.00  0.00    -0.223 NA
ATOM      8  C   UNL     1       3.040  -3.191  13.951  0.00  0.00    +0.220 A 
ATOM      9  N   UNL     1       3.747  -3.063  15.137  0.00  0.00    -0.283 N 
ATOM     36  H   UNL     1       3.886  -2.139  15.544  0.00  0.00    +0.155 HD
ATOM     37  N   UNL     1       2.542  -2.072  13.386  0.00  0.00    -0.214 NA
BRANCH   4   3
ATOM      1  C   UNL     1       0.191   1.439  11.983  0.00  0.00    +0.020 A 
ATOM      2  C   UNL     1       0.657   0.188  12.537  0.00  0.00    +0.013 A 
ATOM      3  C   UNL     1       1.317  -0.800  11.693  0.00  0.00    +0.019 A 
ATOM     38  C   UNL     1       1.493  -0.489  10.282  0.00  0.00    +0.120 A 
ATOM     39  N   UNL     1       1.032   0.723   9.777  0.00  0.00    -0.263 NA
ATOM     40  C   UNL     1       0.394   1.681  10.579  0.00  0.00    +0.111 A 
ENDBRANCH   4   3
ENDBRANCH  10   9
BRANCH  12  13
ATOM     13  N   UNL     1       3.210  -6.736  18.451  0.00  0.00    -0.281 N 
ATOM     14  C   UNL     1       3.207  -6.543  19.823  0.00  0.00    +0.248 C 
ATOM     30  O   UNL     1       4.024  -5.865  20.427  0.00  0.00    -0.270 OA
ATOM     31  H   UNL     1       2.600  -7.474  18.100  0.00  0.00    +0.155 HD
BRANCH  14  15
ATOM     15  C   UNL     1       2.152  -7.212  20.643  0.00  0.00    +0.037 A 
ATOM     16  C   UNL     1       1.505  -6.520  21.761  0.00  0.00    +0.013 A 
ATOM     17  C   UNL     1       0.503  -7.195  22.547  0.00  0.00    +0.005 A 
ATOM     18  C   UNL     1       0.140  -8.571  22.216  0.00  0.00    -0.033 A 
ATOM     28  C   UNL     1       0.794  -9.232  21.099  0.00  0.00    +0.005 A 
ATOM     29  C   UNL     1       1.778  -8.574  20.327  0.00  0.00    +0.013 A 
BRANCH  18  19
ATOM     19  C   UNL     1      -0.904  -9.375  23.013  0.00  0.00    +0.119 C 
BRANCH  19  20
ATOM     20  N   UNL     1      -2.318  -9.320  22.538  0.00  0.00    -0.302 NA
ATOM     21  C   UNL     1      -3.008  -8.013  22.938  0.00  0.00    +0.066 C 
ATOM     22  C   UNL     1      -4.480  -7.963  22.413  0.00  0.00    -0.064 C 
ATOM     23  N   UNL     1      -5.252  -9.169  22.951  0.00  0.00    +0.379 N 
ATOM     24  C   UNL     1      -6.651  -9.094  22.507  0.00  0.00    -0.096 C 
ATOM     25  H   UNL     1      -5.246  -9.105  24.064  0.00  0.00    -0.082 HD
ATOM     26  C   UNL     1      -4.571 -10.473  22.560  0.00  0.00    -0.064 C 
ATOM     27  C   UNL     1      -3.100 -10.501  23.061  0.00  0.00    +0.066 C 
ENDBRANCH  19  20
ENDBRANCH  18  19
ENDBRANCH  14  15
ENDBRANCH  12  13
TORSDOF 6
ENDMDL
MODEL 3
REMARK VINA RESULT:      -8.2     14.140     17.735
REMARK  Name = C:\Users\Docking\Desktop\test protocol\1iep_ligandH.pdb
REMARK  8 active torsions:
REMARK  status: ('A' for Active; 'I' for Inactive)
REMARK    1  A    between atoms: _5  and  _11
REMARK    2  A    between atoms: _19  and  _21
REMARK    3  A    between atoms: _22  and  _66
REMARK    4  A    between atoms: _27  and  _30
REMARK    5  A    between atoms: _32  and  _33
REMARK    6  A    between atoms: _38  and  _43
REMARK    7  A    between atoms: _43  and  _46
REMARK    8  A    between atoms: _53  and  _55
REMARK                            x       y       z     vdW  Elec       q    Type
REMARK                         _______ _______ _______ _____ _____    ______ ____
ROOT
ATOM     10  C   UNL     1      -9.806 -11.340  14.043  0.00  0.00    +0.038 A 
ATOM     11  C   UNL     1      -8.421 -11.087  13.871  0.00  0.00    +0.047 A 
ATOM     12  C   UNL     1      -7.695 -11.615  12.726  0.00  0.00    +0.035 A 
ATOM     32  C   UNL     1      -8.413 -12.395  11.773  0.00  0.00    +0.024 A 
ATOM     33  C   UNL     1      -9.821 -12.663  11.932  0.00  0.00    +0.007 A 
ATOM     34  C   UNL     1     -10.541 -12.147  13.061  0.00  0.00    -0.029 A 
ATOM     35  C   UNL     1     -12.048 -12.472  13.184  0.00  0.00    +0.045 C 
ENDROOT
BRANCH  10   9
ATOM      4  C   UNL     1     -10.987 -11.439  18.694  0.00  0.00    +0.077 A 
ATOM      5  C   UNL     1     -10.279 -12.668  18.908  0.00  0.00    +0.048 A 
ATOM      6  C   UNL     1      -9.629 -13.246  17.794  0.00  0.00    +0.116 A 
ATOM      7  N   UNL     1      -9.691 -12.632  16.562  0.00  0.00    -0.223 NA
ATOM      8  C   UNL     1     -10.384 -11.448  16.389  0.00  0.00    +0.220 A 
ATOM      9  N   UNL     1     -10.452 -10.809  15.161  0.00  0.00    -0.283 N 
ATOM     36  H   UNL     1     -10.980  -9.941  15.073  0.00  0.00    +0.155 HD
ATOM     37  N   UNL     1     -11.014 -10.877  17.437  0.00  0.00    -0.214 NA
BRANCH   4   3
ATOM      1  C   UNL     1     -11.801  -9.370  21.912  0.00  0.00    +0.020 A 
ATOM      2  C   UNL     1     -11.046 -10.067  20.896  0.00  0.00    +0.013 A 
ATOM      3  C   UNL     1     -11.721 -10.705  19.773  0.00  0.00    +0.019 A 
ATOM     38  C   UNL     1     -13.172 -10.618  19.705  0.00  0.00    +0.120 A 
ATOM     39  N   UNL     1     -13.872  -9.941  20.699  0.00  0.00    -0.263 NA
ATOM     40  C   UNL     1     -13.234  -9.325  21.785  0.00  0.00    +0.111 A 
ENDBRANCH   4   3
ENDBRANCH  10   9
BRANCH  12  13
ATOM     13  N   UNL     1      -6.288 -11.397  12.503  0.00  0.00    -0.281 N 
ATOM     14  C   UNL     1      -5.221 -12.075  13.071  0.00  0.00    +0.248 C 
ATOM     30  O   UNL     1      -5.313 -12.834  14.024  0.00  0.00    -0.270 OA
ATOM     31  H   UNL     1      -6.048 -10.653  11.848  0.00  0.00    +0.155 HD
BRANCH  14  15
ATOM     15  C   UNL     1      -3.852 -11.868  12.507  0.00  0.00    +0.037 A 
ATOM     16  C   UNL     1      -3.657 -11.254  11.191  0.00  0.00    +0.013 A 
ATOM     17  C   UNL     1      -2.327 -11.082  10.663  0.00  0.00    +0.005 A 
ATOM     18  C   UNL     1      -1.180 -11.524  11.453  0.00  0.00    -0.033 A 
ATOM     28  C   UNL     1      -1.402 -12.126  12.758  0.00  0.00    +0.005 A 
ATOM     29  C   UNL     1      -2.705 -12.297  13.278  0.00  0.00    +0.013 A 
BRANCH  18  19
ATOM     19  C   UNL     1       0.274 -11.400  10.960  0.00  0.00    +0.119 C 
BRANCH  19  20
ATOM     20  N   UNL     1       0.699 -10.077  10.413  0.00  0.00    -0.302 NA
ATOM     21  C   UNL     1       0.661 -10.050   8.882  0.00  0.00    +0.066 C 
ATOM     22  C   UNL     1       1.087  -8.652   8.327  0.00  0.00    -0.064 C 
ATOM     23  N   UNL     1       2.486  -8.307   8.840  0.00  0.00    +0.379 N 
ATOM     24  C   UNL     1       2.913  -7.019   8.274  0.00  0.00    -0.096 C 
ATOM     25  H   UNL     1       3.186  -9.090   8.466  0.00  0.00    -0.082 HD
ATOM     26  C   UNL     1       2.533  -8.334  10.362  0.00  0.00    -0.064 C 
ATOM     27  C   UNL     1       2.080  -9.719  10.904  0.00  0.00    +0.066 C 
ENDBRANCH  19  20
ENDBRANCH  18  19
ENDBRANCH  14  15
ENDBRANCH  12  13
TORSDOF 6
ENDMDL
MODEL 4
REMARK VINA RESULT:      -8.2      1.939      2.880
REMARK  Name = C:\Users\Docking\Desktop\test protocol\1iep_ligandH.pdb
REMARK  8 active torsions:
REMARK  status: ('A' for Active; 'I' for Inactive)
REMARK    1  A    between atoms: _5  and  _11
REMARK    2  A    between atoms: _19  and  _21
REMARK    3  A    between atoms: _22  and  _66
REMARK    4  A    between atoms: _27  and  _30
REMARK    5  A    between atoms: _32  and  _33
REMARK    6  A    between atoms: _38  and  _43
REMARK    7  A    between atoms: _43  and  _46
REMARK    8  A    between atoms: _53  and  _55
REMARK                            x       y       z     vdW  Elec       q    Type
REMARK                         _______ _______ _______ _____ _____    ______ ____
ROOT
ATOM     10  C   UNL     1       5.566  -0.797  22.451  0.00  0.00    +0.038 A 
ATOM     11  C   UNL     1       5.080  -0.937  21.126  0.00  0.00    +0.047 A 
ATOM     12  C   UNL     1       5.724  -1.835  20.179  0.00  0.00    +0.035 A 
ATOM     32  C   UNL     1       6.858  -2.578  20.617  0.00  0.00    +0.024 A 
ATOM     33  C   UNL     1       7.366  -2.447  21.960  0.00  0.00    +0.007 A 
ATOM     34  C   UNL     1       6.737  -1.561  22.898  0.00  0.00    -0.029 A 
ATOM     35  C   UNL     1       7.328  -1.456  24.323  0.00  0.00    +0.045 C 
ENDROOT
BRANCH  10   9
ATOM      4  C   UNL     1       5.272   3.343  24.861  0.00  0.00    +0.077 A 
ATOM      5  C   UNL     1       6.546   3.786  24.373  0.00  0.00    +0.048 A 
ATOM      6  C   UNL     1       7.249   2.915  23.510  0.00  0.00    +0.116 A 
ATOM      7  N   UNL     1       6.707   1.695  23.166  0.00  0.00    -0.223 NA
ATOM      8  C   UNL     1       5.477   1.298  23.656  0.00  0.00    +0.220 A 
ATOM      9  N   UNL     1       4.910   0.079  23.318  0.00  0.00    -0.283 N 
ATOM     36  H   UNL     1       4.003  -0.180  23.706  0.00  0.00    +0.155 HD
ATOM     37  N   UNL     1       4.787   2.111  24.484  0.00  0.00    -0.214 NA
BRANCH   4   3
ATOM      1  C   UNL     1       4.058   5.639  27.786  0.00  0.00    +0.020 A 
ATOM      2  C   UNL     1       4.935   4.872  26.931  0.00  0.00    +0.013 A 
ATOM      3  C   UNL     1       4.409   4.151  25.779  0.00  0.00    +0.019 A 
ATOM     38  C   UNL     1       2.979   4.228  25.517  0.00  0.00    +0.120 A 
ATOM     39  N   UNL     1       2.159   4.973  26.358  0.00  0.00    -0.263 NA
ATOM     40  C   UNL     1       2.654   5.670  27.471  0.00  0.00    +0.111 A 
ENDBRANCH   4   3
ENDBRANCH  10   9
BRANCH  12  13
ATOM     13  N   UNL     1       5.280  -2.012  18.819  0.00  0.00    -0.281 N 
ATOM     14  C   UNL     1       4.610  -3.096  18.275  0.00  0.00    +0.248 C 
ATOM     30  O   UNL     1       4.478  -4.176  18.831  0.00  0.00    -0.270 OA
ATOM     31  H   UNL     1       5.485  -1.245  18.178  0.00  0.00    +0.155 HD
BRANCH  14  15
ATOM     15  C   UNL     1       4.013  -2.966  16.911  0.00  0.00    +0.037 A 
ATOM     16  C   UNL     1       4.710  -2.247  15.842  0.00  0.00    +0.013 A 
ATOM     17  C   UNL     1       4.103  -2.122  14.540  0.00  0.00    +0.005 A 
ATOM     18  C   UNL     1       2.792  -2.719  14.301  0.00  0.00    -0.033 A 
ATOM     28  C   UNL     1       2.125  -3.432  15.378  0.00  0.00    +0.005 A 
ATOM     29  C   UNL     1       2.716  -3.556  16.655  0.00  0.00    +0.013 A 
BRANCH  18  19
ATOM     19  C   UNL     1       2.061  -2.617  12.949  0.00  0.00    +0.119 C 
BRANCH  19  20
ATOM     20  N   UNL     1       1.737  -3.895  12.248  0.00  0.00    -0.302 NA
ATOM     21  C   UNL     1       2.979  -4.539  11.625  0.00  0.00    +0.066 C 
ATOM     22  C   UNL     1       2.626  -5.887  10.915  0.00  0.00    -0.064 C 
ATOM     23  N   UNL     1       1.556  -5.635   9.852  0.00  0.00    +0.379 N 
ATOM     24  C   UNL     1       1.264  -6.889   9.144  0.00  0.00    -0.096 C 
ATOM     25  H   UNL     1       1.978  -4.918   9.111  0.00  0.00    -0.082 HD
ATOM     26  C   UNL     1       0.318  -4.992  10.463  0.00  0.00    -0.064 C 
ATOM     27  C   UNL     1       0.685  -3.669  11.191  0.00  0.00    +0.066 C 
ENDBRANCH  19  20
ENDBRANCH  18  19
ENDBRANCH  14  15
ENDBRANCH  12  13
TORSDOF 6
ENDMDL
MODEL 5
REMARK VINA RESULT:      -8.1      1.519      2.032
REMARK  Name = C:\Users\Docking\Desktop\test protocol\1iep_ligandH.pdb
REMARK  8 active torsions:
REMARK  status: ('A' for Active; 'I' for Inactive)
REMARK    1  A    between atoms: _5  and  _11
REMARK    2  A    between atoms: _19  and  _21
REMARK    3  A    between atoms: _22  and  _66
REMARK    4  A    between atoms: _27  and  _30
REMARK    5  A    between atoms: _32  and  _33
REMARK    6  A    between atoms: _38  and  _43
REMARK    7  A    between atoms: _43  and  _46
REMARK    8  A    between atoms: _53  and  _55
REMARK                            x       y       z     vdW  Elec       q    Type
REMARK                         _______ _______ _______ _____ _____    ______ ____
ROOT
ATOM     10  C   UNL     1       5.775  -0.243  22.459  0.00  0.00    +0.038 A 
ATOM     11  C   UNL     1       5.568  -0.114  21.062  0.00  0.00    +0.047 A 
ATOM     12  C   UNL     1       6.371  -0.865  20.109  0.00  0.00    +0.035 A 
ATOM     32  C   UNL     1       7.375  -1.741  20.614  0.00  0.00    +0.024 A 
ATOM     33  C   UNL     1       7.600  -1.883  22.031  0.00  0.00    +0.007 A 
ATOM     34  C   UNL     1       6.813  -1.144  22.976  0.00  0.00    -0.029 A 
ATOM     35  C   UNL     1       7.102  -1.331  24.483  0.00  0.00    +0.045 C 
ENDROOT
BRANCH  10   9
ATOM      4  C   UNL     1       4.968   3.591  25.231  0.00  0.00    +0.077 A 
ATOM      5  C   UNL     1       6.260   4.145  24.943  0.00  0.00    +0.048 A 
ATOM      6  C   UNL     1       7.105   3.408  24.083  0.00  0.00    +0.116 A 
ATOM      7  N   UNL     1       6.679   2.208  23.555  0.00  0.00    -0.223 NA
ATOM      8  C   UNL     1       5.427   1.702  23.854  0.00  0.00    +0.220 A 
ATOM      9  N   UNL     1       4.975   0.501  23.328  0.00  0.00    -0.283 N 
ATOM     36  H   UNL     1       4.048   0.158  23.579  0.00  0.00    +0.155 HD
ATOM     37  N   UNL     1       4.602   2.386  24.674  0.00  0.00    -0.214 NA
BRANCH   4   3
ATOM      1  C   UNL     1       2.022   4.195  27.731  0.00  0.00    +0.020 A 
ATOM      2  C   UNL     1       2.972   3.508  26.888  0.00  0.00    +0.013 A 
ATOM      3  C   UNL     1       3.961   4.253  26.119  0.00  0.00    +0.019 A 
ATOM     38  C   UNL     1       3.963   5.704  26.228  0.00  0.00    +0.120 A 
ATOM     39  N   UNL     1       3.035   6.339  27.048  0.00  0.00    -0.263 NA
ATOM     40  C   UNL     1       2.077   5.632  27.791  0.00  0.00    +0.111 A 
ENDBRANCH   4   3
ENDBRANCH  10   9
BRANCH  12  13
ATOM     13  N   UNL     1       6.211  -0.768  18.679  0.00  0.00    -0.281 N 
ATOM     14  C   UNL     1       5.693  -1.718  17.814  0.00  0.00    +0.248 C 
ATOM     30  O   UNL     1       5.485  -2.884  18.113  0.00  0.00    -0.270 OA
ATOM     31  H   UNL     1       6.517   0.107  18.253  0.00  0.00    +0.155 HD
BRANCH  14  15
ATOM     15  C   UNL     1       5.375  -1.318  16.410  0.00  0.00    +0.037 A 
ATOM     16  C   UNL     1       5.800  -0.023  15.873  0.00  0.00    +0.013 A 
ATOM     17  C   UNL     1       5.465   0.345  14.520  0.00  0.00    +0.005 A 
ATOM     18  C   UNL     1       4.700  -0.586  13.694  0.00  0.00    -0.033 A 
ATOM     28  C   UNL     1       4.295  -1.866  14.250  0.00  0.00    +0.005 A 
ATOM     29  C   UNL     1       4.621  -2.230  15.575  0.00  0.00    +0.013 A 
BRANCH  18  19
ATOM     19  C   UNL     1       4.279  -0.268  12.246  0.00  0.00    +0.119 C 
BRANCH  19  20
ATOM     20  N   UNL     1       2.993   0.466  12.054  0.00  0.00    -0.302 NA
ATOM     21  C   UNL     1       1.956  -0.379  11.308  0.00  0.00    +0.066 C 
ATOM     22  C   UNL     1       0.609   0.395  11.135  0.00  0.00    -0.064 C 
ATOM     23  N   UNL     1       0.871   1.709  10.396  0.00  0.00    +0.379 N 
ATOM     24  C   UNL     1      -0.402   2.412  10.180  0.00  0.00    -0.096 C 
ATOM     25  H   UNL     1       1.291   1.456   9.395  0.00  0.00    -0.082 HD
ATOM     26  C   UNL     1       1.902   2.554  11.129  0.00  0.00    -0.064 C 
ATOM     27  C   UNL     1       3.227   1.764  11.322  0.00  0.00    +0.066 C 
ENDBRANCH  19  20
ENDBRANCH  18  19
ENDBRANCH  14  15
ENDBRANCH  12  13
TORSDOF 6
ENDMDL
