MODEL 1
REMARK VINA RESULT:      -8.3      0.000      0.000
REMARK  Name = C:\Users\Docking\Desktop\test protocol\1iep_ligandH.pdb
REMARK  8 active torsions:
REMARK  status: ('A' for Active; 'I' for Inactive)
REMARK    1  A    between atoms: _5  and  _11
REMARK    2  A    between atoms: _19  and  _21
REMARK    3  A    between atoms: _22  and  _66
REMARK    4  A    between atoms: _27  and  _30
REMARK    5  A    between atoms: _32  and  _33
REMARK    6  A    between atoms: _38  and  _43
REMARK    7  A    between atoms: _43  and  _46
REMARK    8  A    between atoms: _53  and  _55
REMARK                            x       y       z     vdW  Elec       q    Type
REMARK                         _______ _______ _______ _____ _____    ______ ____
ROOT
ATOM     10  C   UNL     1      19.832  25.727   4.162  0.00  0.00    +0.038 A 
ATOM     11  C   UNL     1      18.480  25.546   4.553  0.00  0.00    +0.047 A 
ATOM     12  C   UNL     1      17.899  24.216   4.657  0.00  0.00    +0.035 A 
ATOM     32  C   UNL     1      18.724  23.093   4.359  0.00  0.00    +0.024 A 
ATOM     33  C   UNL     1      20.100  23.259   3.959  0.00  0.00    +0.007 A 
ATOM     34  C   UNL     1      20.678  24.568   3.852  0.00  0.00    -0.029 A 
ATOM     35  C   UNL     1      22.156  24.687   3.413  0.00  0.00    +0.045 C 
ENDROOT
BRANCH  10   9
ATOM      4  C   UNL     1      20.901  29.702   1.694  0.00  0.00    +0.077 A 
ATOM      5  C   UNL     1      20.435  29.134   0.462  0.00  0.00    +0.048 A 
ATOM      6  C   UNL     1      19.935  27.813   0.505  0.00  0.00    +0.116 A 
ATOM      7  N   UNL     1      19.906  27.122   1.697  0.00  0.00    -0.223 NA
ATOM      8  C   UNL     1      20.365  27.699   2.867  0.00  0.00    +0.220 A 
ATOM      9  N   UNL     1      20.338  27.026   4.079  0.00  0.00    -0.283 N 
ATOM     36  H   UNL     1      20.692  27.484   4.918  0.00  0.00    +0.155 HD
ATOM     37  N   UNL     1      20.849  28.959   2.852  0.00  0.00    -0.214 NA
BRANCH   4   3
ATOM      1  C   UNL     1      22.875  33.005   0.992  0.00  0.00    +0.020 A 
ATOM      2  C   UNL     1      22.369  31.661   0.832  0.00  0.00    +0.013 A 
ATOM      3  C   UNL     1      21.454  31.088   1.811  0.00  0.00    +0.019 A 
ATOM     38  C   UNL     1      21.067  31.909   2.949  0.00  0.00    +0.120 A 
ATOM     39  N   UNL     1      21.571  33.199   3.078  0.00  0.00    -0.263 NA
ATOM     40  C   UNL     1      22.454  33.760   2.142  0.00  0.00    +0.111 A 
ENDBRANCH   4   3
ENDBRANCH  10   9
BRANCH  12  13
ATOM     13  N   UNL     1      16.531  23.971   5.041  0.00  0.00    -0.281 N 
ATOM     14  C   UNL     1      16.068  23.261   6.137  0.00  0.00    +0.248 C 
ATOM     30  O   UNL     1      16.765  22.544   6.840  0.00  0.00    -0.270 OA
ATOM     31  H   UNL     1      15.817  24.369   4.431  0.00  0.00    +0.155 HD
BRANCH  14  15
ATOM     15  C   UNL     1      14.620  23.348   6.494  0.00  0.00    +0.037 A 
ATOM     16  C   UNL     1      13.629  23.847   5.537  0.00  0.00    +0.013 A 
ATOM     17  C   UNL     1      12.241  23.937   5.913  0.00  0.00    +0.005 A 
ATOM     18  C   UNL     1      11.834  23.525   7.255  0.00  0.00    -0.033 A 
ATOM     28  C   UNL     1      12.837  23.030   8.183  0.00  0.00    +0.005 A 
ATOM     29  C   UNL     1      14.199  22.941   7.818  0.00  0.00    +0.013 A 
BRANCH  18  19
ATOM     19  C   UNL     1      10.378  23.607   7.749  0.00  0.00    +0.119 C 
BRANCH  19  20
ATOM     20  N   UNL     1       9.728  24.952   7.743  0.00  0.00    -0.302 NA
ATOM     21  C   UNL     1      10.455  25.945   8.654  0.00  0.00    +0.066 C 
ATOM     22  C   UNL     1       9.775  27.353   8.618  0.00  0.00    -0.064 C 
ATOM     23  N   UNL     1       8.307  27.218   9.026  0.00  0.00    +0.379 N 
ATOM     24  C   UNL     1       7.680  28.547   9.049  0.00  0.00    -0.096 C 
ATOM     25  H   UNL     1       8.280  26.813  10.064  0.00  0.00    -0.082 HD
ATOM     26  C   UNL     1       7.578  26.230   8.127  0.00  0.00    -0.064 C 
ATOM     27  C   UNL     1       8.278  24.843   8.147  0.00  0.00    +0.066 C 
ENDBRANCH  19  20
ENDBRANCH  18  19
ENDBRANCH  14  15
ENDBRANCH  12  13
TORSDOF 6
ENDMDL
MODEL 2
REMARK VINA RESULT:      -8.2      2.377     12.450
REMARK  Name = C:\Users\Docking\Desktop\test protocol\1iep_ligandH.pdb
REMARK  8 active torsions:
REMARK  status: ('A' for Active; 'I' for Inactive)
REMARK    1  A    between atoms: _5  and  _11
REMARK    2  A    between atoms: _19  and  _21
REMARK    3  A    between atoms: _22  and  _66
REMARK    4  A    between atoms: _27  and  _30
REMARK    5  A    between atoms: _32  and  _33
REMARK    6  A    between atoms: _38  and  _43
REMARK    7  A    between atoms: _43  and  _46
REMARK    8  A    between atoms: _53  and  _55
REMARK                            x       y       z     vdW  Elec       q    Type
REMARK                         _______ _______ _______ _____ _____    ______ ____
ROOT
ATOM     10  C   UNL     1       9.718  23.535   8.489  0.00  0.00    +0.038 A 
ATOM     11  C   UNL     1      10.921  23.676   7.751  0.00  0.00    +0.047 A 
ATOM     12  C   UNL     1      12.152  23.038   8.191  0.00  0.00    +0.035 A 
ATOM     32  C   UNL     1      12.121  22.262   9.386  0.00  0.00    +0.024 A 
ATOM     33  C   UNL     1      10.908  22.110  10.149  0.00  0.00    +0.007 A 
ATOM     34  C   UNL     1       9.690  22.738   9.721  0.00  0.00    -0.029 A 
ATOM     35  C   UNL     1       8.420  22.546  10.582  0.00  0.00    +0.045 C 
ENDROOT
BRANCH  10   9
ATOM      4  C   UNL     1       6.938  27.411   7.955  0.00  0.00    +0.077 A 
ATOM      5  C   UNL     1       7.847  28.238   8.695  0.00  0.00    +0.048 A 
ATOM      6  C   UNL     1       9.015  27.626   9.202  0.00  0.00    +0.116 A 
ATOM      7  N   UNL     1       9.247  26.286   8.979  0.00  0.00    -0.223 NA
ATOM      8  C   UNL     1       8.348  25.516   8.263  0.00  0.00    +0.220 A 
ATOM      9  N   UNL     1       8.564  24.169   8.021  0.00  0.00    -0.283 N 
ATOM     36  H   UNL     1       7.874  23.634   7.494  0.00  0.00    +0.155 HD
ATOM     37  N   UNL     1       7.225  26.077   7.770  0.00  0.00    -0.214 NA
BRANCH   4   3
ATOM      1  C   UNL     1       3.787  29.590   7.165  0.00  0.00    +0.020 A 
ATOM      2  C   UNL     1       5.018  29.149   7.779  0.00  0.00    +0.013 A 
ATOM      3  C   UNL     1       5.662  27.913   7.353  0.00  0.00    +0.019 A 
ATOM     38  C   UNL     1       5.031  27.141   6.294  0.00  0.00    +0.120 A 
ATOM     39  N   UNL     1       3.845  27.589   5.721  0.00  0.00    -0.263 NA
ATOM     40  C   UNL     1       3.214  28.776   6.124  0.00  0.00    +0.111 A 
ENDBRANCH   4   3
ENDBRANCH  10   9
BRANCH  12  13
ATOM     13  N   UNL     1      13.406  23.152   7.488  0.00  0.00    -0.281 N 
ATOM     14  C   UNL     1      13.647  22.945   6.139  0.00  0.00    +0.248 C 
ATOM     30  O   UNL     1      12.858  22.419   5.369  0.00  0.00    -0.270 OA
ATOM     31  H   UNL     1      14.213  23.418   8.052  0.00  0.00    +0.155 HD
BRANCH  14  15
ATOM     15  C   UNL     1      14.961  23.370   5.568  0.00  0.00    +0.037 A 
ATOM     16  C   UNL     1      15.065  23.878   4.197  0.00  0.00    +0.013 A 
ATOM     17  C   UNL     1      16.348  24.265   3.665  0.00  0.00    +0.005 A 
ATOM     18  C   UNL     1      17.537  24.147   4.505  0.00  0.00    -0.033 A 
ATOM     28  C   UNL     1      17.405  23.645   5.862  0.00  0.00    +0.005 A 
ATOM     29  C   UNL     1      16.150  23.263   6.387  0.00  0.00    +0.013 A 
BRANCH  18  19
ATOM     19  C   UNL     1      18.949  24.517   4.012  0.00  0.00    +0.119 C 
BRANCH  19  20
ATOM     20  N   UNL     1      19.057  25.626   3.019  0.00  0.00    -0.302 NA
ATOM     21  C   UNL     1      20.254  25.442   2.081  0.00  0.00    +0.066 C 
ATOM     22  C   UNL     1      20.339  26.600   1.033  0.00  0.00    -0.064 C 
ATOM     23  N   UNL     1      20.426  27.940   1.765  0.00  0.00    +0.379 N 
ATOM     24  C   UNL     1      20.564  29.026   0.784  0.00  0.00    -0.096 C 
ATOM     25  H   UNL     1      21.350  27.926   2.388  0.00  0.00    -0.082 HD
ATOM     26  C   UNL     1      19.241  28.130   2.702  0.00  0.00    -0.064 C 
ATOM     27  C   UNL     1      19.148  26.959   3.720  0.00  0.00    +0.066 C 
ENDBRANCH  19  20
ENDBRANCH  18  19
ENDBRANCH  14  15
ENDBRANCH  12  13
TORSDOF 6
ENDMDL
MODEL 3
REMARK VINA RESULT:      -8.1      3.910     12.829
REMARK  Name = C:\Users\Docking\Desktop\test protocol\1iep_ligandH.pdb
REMARK  8 active torsions:
REMARK  status: ('A' for Active; 'I' for Inactive)
REMARK    1  A    between atoms: _5  and  _11
REMARK    2  A    between atoms: _19  and  _21
REMARK    3  A    between atoms: _22  and  _66
REMARK    4  A    between atoms: _27  and  _30
REMARK    5  A    between atoms: _32  and  _33
REMARK    6  A    between atoms: _38  and  _43
REMARK    7  A    between atoms: _43  and  _46
REMARK    8  A    between atoms: _53  and  _55
REMARK                            x       y       z     vdW  Elec       q    Type
REMARK                         _______ _______ _______ _____ _____    ______ ____
ROOT
ATOM     10  C   UNL     1       9.653  23.802   8.226  0.00  0.00    +0.038 A 
ATOM     11  C   UNL     1      10.841  24.005   7.479  0.00  0.00    +0.047 A 
ATOM     12  C   UNL     1      12.098  23.394   7.883  0.00  0.00    +0.035 A 
ATOM     32  C   UNL     1      12.108  22.579   9.052  0.00  0.00    +0.024 A 
ATOM     33  C   UNL     1      10.909  22.362   9.824  0.00  0.00    +0.007 A 
ATOM     34  C   UNL     1       9.667  22.965   9.431  0.00  0.00    -0.029 A 
ATOM     35  C   UNL     1       8.415  22.703  10.300  0.00  0.00    +0.045 C 
ENDROOT
BRANCH  10   9
ATOM      4  C   UNL     1       6.714  27.583   7.911  0.00  0.00    +0.077 A 
ATOM      5  C   UNL     1       7.588  28.403   8.699  0.00  0.00    +0.048 A 
ATOM      6  C   UNL     1       8.781  27.812   9.172  0.00  0.00    +0.116 A 
ATOM      7  N   UNL     1       9.068  26.498   8.873  0.00  0.00    -0.223 NA
ATOM      8  C   UNL     1       8.202  25.734   8.112  0.00  0.00    +0.220 A 
ATOM      9  N   UNL     1       8.474  24.413   7.792  0.00  0.00    -0.283 N 
ATOM     36  H   UNL     1       7.806  23.881   7.234  0.00  0.00    +0.155 HD
ATOM     37  N   UNL     1       7.056  26.275   7.649  0.00  0.00    -0.214 NA
BRANCH   4   3
ATOM      1  C   UNL     1       3.489  29.688   7.220  0.00  0.00    +0.020 A 
ATOM      2  C   UNL     1       4.739  29.265   7.810  0.00  0.00    +0.013 A 
ATOM      3  C   UNL     1       5.418  28.066   7.336  0.00  0.00    +0.019 A 
ATOM     38  C   UNL     1       4.803  27.311   6.254  0.00  0.00    +0.120 A 
ATOM     39  N   UNL     1       3.598  27.742   5.707  0.00  0.00    -0.263 NA
ATOM     40  C   UNL     1       2.934  28.893   6.156  0.00  0.00    +0.111 A 
ENDBRANCH   4   3
ENDBRANCH  10   9
BRANCH  12  13
ATOM     13  N   UNL     1      13.338  23.571   7.169  0.00  0.00    -0.281 N 
ATOM     14  C   UNL     1      13.727  22.980   5.978  0.00  0.00    +0.248 C 
ATOM     30  O   UNL     1      13.151  22.039   5.454  0.00  0.00    -0.270 OA
ATOM     31  H   UNL     1      14.010  24.211   7.593  0.00  0.00    +0.155 HD
BRANCH  14  15
ATOM     15  C   UNL     1      14.941  23.499   5.277  0.00  0.00    +0.037 A 
ATOM     16  C   UNL     1      16.213  23.668   5.983  0.00  0.00    +0.013 A 
ATOM     17  C   UNL     1      17.363  24.188   5.287  0.00  0.00    +0.005 A 
ATOM     18  C   UNL     1      17.246  24.540   3.874  0.00  0.00    -0.033 A 
ATOM     28  C   UNL     1      15.974  24.357   3.196  0.00  0.00    +0.005 A 
ATOM     29  C   UNL     1      14.844  23.849   3.876  0.00  0.00    +0.013 A 
BRANCH  18  19
ATOM     19  C   UNL     1      18.416  25.120   3.057  0.00  0.00    +0.119 C 
BRANCH  19  20
ATOM     20  N   UNL     1      19.724  24.404   3.132  0.00  0.00    -0.302 NA
ATOM     21  C   UNL     1      20.698  25.084   4.098  0.00  0.00    +0.066 C 
ATOM     22  C   UNL     1      22.053  24.308   4.181  0.00  0.00    -0.064 C 
ATOM     23  N   UNL     1      22.663  24.203   2.782  0.00  0.00    +0.379 N 
ATOM     24  C   UNL     1      23.965  23.525   2.865  0.00  0.00    -0.096 C 
ATOM     25  H   UNL     1      22.844  25.239   2.413  0.00  0.00    -0.082 HD
ATOM     26  C   UNL     1      21.700  23.530   1.814  0.00  0.00    -0.064 C 
ATOM     27  C   UNL     1      20.347  24.292   1.762  0.00  0.00    +0.066 C 
ENDBRANCH  19  20
ENDBRANCH  18  19
ENDBRANCH  14  15
ENDBRANCH  12  13
TORSDOF 6
ENDMDL
MODEL 4
REMARK VINA RESULT:      -8.0      1.640      2.556
REMARK  Name = C:\Users\Docking\Desktop\test protocol\1iep_ligandH.pdb
REMARK  8 active torsions:
REMARK  status: ('A' for Active; 'I' for Inactive)
REMARK    1  A    between atoms: _5  and  _11
REMARK    2  A    between atoms: _19  and  _21
REMARK    3  A    between atoms: _22  and  _66
REMARK    4  A    between atoms: _27  and  _30
REMARK    5  A    between atoms: _32  and  _33
REMARK    6  A    between atoms: _38  and  _43
REMARK    7  A    between atoms: _43  and  _46
REMARK    8  A    between atoms: _53  and  _55
REMARK                            x       y       z     vdW  Elec       q    Type
REMARK                         _______ _______ _______ _____ _____    ______ ____
ROOT
ATOM     10  C   UNL     1      19.782  25.712   3.927  0.00  0.00    +0.038 A 
ATOM     11  C   UNL     1      18.407  25.587   4.251  0.00  0.00    +0.047 A 
ATOM     12  C   UNL     1      17.747  24.291   4.241  0.00  0.00    +0.035 A 
ATOM     32  C   UNL     1      18.519  23.142   3.899  0.00  0.00    +0.024 A 
ATOM     33  C   UNL     1      19.917  23.252   3.566  0.00  0.00    +0.007 A 
ATOM     34  C   UNL     1      20.573  24.528   3.572  0.00  0.00    -0.029 A 
ATOM     35  C   UNL     1      22.073  24.587   3.200  0.00  0.00    +0.045 C 
ENDROOT
BRANCH  10   9
ATOM      4  C   UNL     1      21.017  29.846   1.824  0.00  0.00    +0.077 A 
ATOM      5  C   UNL     1      20.479  29.432   0.560  0.00  0.00    +0.048 A 
ATOM      6  C   UNL     1      19.900  28.145   0.491  0.00  0.00    +0.116 A 
ATOM      7  N   UNL     1      19.866  27.341   1.610  0.00  0.00    -0.223 NA
ATOM      8  C   UNL     1      20.395  27.770   2.813  0.00  0.00    +0.220 A 
ATOM      9  N   UNL     1      20.365  26.981   3.953  0.00  0.00    -0.283 N 
ATOM     36  H   UNL     1      20.773  27.331   4.819  0.00  0.00    +0.155 HD
ATOM     37  N   UNL     1      20.955  28.995   2.904  0.00  0.00    -0.214 NA
BRANCH   4   3
ATOM      1  C   UNL     1      22.249  33.153   3.511  0.00  0.00    +0.020 A 
ATOM      2  C   UNL     1      21.613  31.868   3.340  0.00  0.00    +0.013 A 
ATOM      3  C   UNL     1      21.659  31.179   2.056  0.00  0.00    +0.019 A 
ATOM     38  C   UNL     1      22.364  31.823   0.958  0.00  0.00    +0.120 A 
ATOM     39  N   UNL     1      22.966  33.062   1.152  0.00  0.00    -0.263 NA
ATOM     40  C   UNL     1      22.927  33.735   2.382  0.00  0.00    +0.111 A 
ENDBRANCH   4   3
ENDBRANCH  10   9
BRANCH  12  13
ATOM     13  N   UNL     1      16.352  24.103   4.552  0.00  0.00    -0.281 N 
ATOM     14  C   UNL     1      15.803  23.520   5.683  0.00  0.00    +0.248 C 
ATOM     30  O   UNL     1      16.437  22.877   6.506  0.00  0.00    -0.270 OA
ATOM     31  H   UNL     1      15.688  24.440   3.855  0.00  0.00    +0.155 HD
BRANCH  14  15
ATOM     15  C   UNL     1      14.335  23.661   5.928  0.00  0.00    +0.037 A 
ATOM     16  C   UNL     1      13.805  23.858   7.279  0.00  0.00    +0.013 A 
ATOM     17  C   UNL     1      12.384  23.974   7.490  0.00  0.00    +0.005 A 
ATOM     18  C   UNL     1      11.482  23.895   6.343  0.00  0.00    -0.033 A 
ATOM     28  C   UNL     1      12.035  23.704   5.012  0.00  0.00    +0.005 A 
ATOM     29  C   UNL     1      13.427  23.589   4.803  0.00  0.00    +0.013 A 
BRANCH  18  19
ATOM     19  C   UNL     1       9.950  23.987   6.476  0.00  0.00    +0.119 C 
BRANCH  19  20
ATOM     20  N   UNL     1       9.290  23.053   7.437  0.00  0.00    -0.302 NA
ATOM     21  C   UNL     1       9.013  23.719   8.787  0.00  0.00    +0.066 C 
ATOM     22  C   UNL     1       8.301  22.735   9.772  0.00  0.00    -0.064 C 
ATOM     23  N   UNL     1       9.165  21.485   9.952  0.00  0.00    +0.379 N 
ATOM     24  C   UNL     1       8.526  20.584  10.922  0.00  0.00    -0.096 C 
ATOM     25  H   UNL     1      10.141  21.808  10.382  0.00  0.00    -0.082 HD
ATOM     26  C   UNL     1       9.447  20.818   8.613  0.00  0.00    -0.064 C 
ATOM     27  C   UNL     1      10.128  21.813   7.632  0.00  0.00    +0.066 C 
ENDBRANCH  19  20
ENDBRANCH  18  19
ENDBRANCH  14  15
ENDBRANCH  12  13
TORSDOF 6
ENDMDL
MODEL 5
REMARK VINA RESULT:      -8.0      9.519     13.069
REMARK  Name = C:\Users\Docking\Desktop\test protocol\1iep_ligandH.pdb
REMARK  8 active torsions:
REMARK  status: ('A' for Active; 'I' for Inactive)
REMARK    1  A    between atoms: _5  and  _11
REMARK    2  A    between atoms: _19  and  _21
REMARK    3  A    between atoms: _22  and  _66
REMARK    4  A    between atoms: _27  and  _30
REMARK    5  A    between atoms: _32  and  _33
REMARK    6  A    between atoms: _38  and  _43
REMARK    7  A    between atoms: _43  and  _46
REMARK    8  A    between atoms: _53  and  _55
REMARK                            x       y       z     vdW  Elec       q    Type
REMARK                         _______ _______ _______ _____ _____    ______ ____
ROOT
ATOM     10  C   UNL     1       9.936  21.545   8.354  0.00  0.00    +0.038 A 
ATOM     11  C   UNL     1       9.939  20.895   9.614  0.00  0.00    +0.047 A 
ATOM     12  C   UNL     1      10.928  19.877   9.934  0.00  0.00    +0.035 A 
ATOM     32  C   UNL     1      11.901  19.547   8.946  0.00  0.00    +0.024 A 
ATOM     33  C   UNL     1      11.912  20.197   7.659  0.00  0.00    +0.007 A 
ATOM     34  C   UNL     1      10.938  21.201   7.337  0.00  0.00    -0.029 A 
ATOM     35  C   UNL     1      10.993  21.860   5.940  0.00  0.00    +0.045 C 
ENDROOT
BRANCH  10   9
ATOM      4  C   UNL     1       8.381  26.086   8.374  0.00  0.00    +0.077 A 
ATOM      5  C   UNL     1       9.599  26.563   8.963  0.00  0.00    +0.048 A 
ATOM      6  C   UNL     1      10.598  25.606   9.253  0.00  0.00    +0.116 A 
ATOM      7  N   UNL     1      10.384  24.274   8.969  0.00  0.00    -0.223 NA
ATOM      8  C   UNL     1       9.197  23.848   8.402  0.00  0.00    +0.220 A 
ATOM      9  N   UNL     1       8.964  22.515   8.100  0.00  0.00    -0.283 N 
ATOM     36  H   UNL     1       8.072  22.240   7.689  0.00  0.00    +0.155 HD
ATOM     37  N   UNL     1       8.227  24.742   8.117  0.00  0.00    -0.214 NA
BRANCH   4   3
ATOM      1  C   UNL     1       6.000  29.174   8.071  0.00  0.00    +0.020 A 
ATOM      2  C   UNL     1       7.129  28.358   8.454  0.00  0.00    +0.013 A 
ATOM      3  C   UNL     1       7.234  26.975   8.007  0.00  0.00    +0.019 A 
ATOM     38  C   UNL     1       6.171  26.443   7.167  0.00  0.00    +0.120 A 
ATOM     39  N   UNL     1       5.095  27.252   6.816  0.00  0.00    -0.263 NA
ATOM     40  C   UNL     1       4.982  28.585   7.241  0.00  0.00    +0.111 A 
ENDBRANCH   4   3
ENDBRANCH  10   9
BRANCH  12  13
ATOM     13  N   UNL     1      10.975  19.178  11.194  0.00  0.00    -0.281 N 
ATOM     14  C   UNL     1      10.543  17.891  11.470  0.00  0.00    +0.248 C 
ATOM     30  O   UNL     1       9.851  17.218  10.720  0.00  0.00    -0.270 OA
ATOM     31  H   UNL     1      11.376  19.694  11.977  0.00  0.00    +0.155 HD
BRANCH  14  15
ATOM     15  C   UNL     1      10.923  17.266  12.774  0.00  0.00    +0.037 A 
ATOM     16  C   UNL     1      10.049  17.362  13.946  0.00  0.00    +0.013 A 
ATOM     17  C   UNL     1      10.448  16.765  15.196  0.00  0.00    +0.005 A 
ATOM     18  C   UNL     1      11.727  16.064  15.279  0.00  0.00    -0.033 A 
ATOM     28  C   UNL     1      12.572  15.979  14.100  0.00  0.00    +0.005 A 
ATOM     29  C   UNL     1      12.185  16.564  12.873  0.00  0.00    +0.013 A 
BRANCH  18  19
ATOM     19  C   UNL     1      12.242  15.416  16.578  0.00  0.00    +0.119 C 
BRANCH  19  20
ATOM     20  N   UNL     1      12.732  16.330  17.651  0.00  0.00    -0.302 NA
ATOM     21  C   UNL     1      11.587  16.867  18.516  0.00  0.00    +0.066 C 
ATOM     22  C   UNL     1      12.120  17.805  19.648  0.00  0.00    -0.064 C 
ATOM     23  N   UNL     1      12.912  18.954  19.023  0.00  0.00    +0.379 N 
ATOM     24  C   UNL     1      13.366  19.869  20.081  0.00  0.00    -0.096 C 
ATOM     25  H   UNL     1      12.219  19.521  18.360  0.00  0.00    -0.082 HD
ATOM     26  C   UNL     1      14.051  18.430  18.160  0.00  0.00    -0.064 C 
ATOM     27  C   UNL     1      13.514  17.476  17.057  0.00  0.00    +0.066 C 
ENDBRANCH  19  20
ENDBRANCH  18  19
ENDBRANCH  14  15
ENDBRANCH  12  13
TORSDOF 6
ENDMDL
