MODEL 1
REMARK VINA RESULT:      -7.7      0.000      0.000
REMARK  Name = C:\Users\Docking\Desktop\test protocol\1iep_ligandH.pdb
REMARK  8 active torsions:
REMARK  status: ('A' for Active; 'I' for Inactive)
REMARK    1  A    between atoms: _5  and  _11
REMARK    2  A    between atoms: _19  and  _21
REMARK    3  A    between atoms: _22  and  _66
REMARK    4  A    between atoms: _27  and  _30
REMARK    5  A    between atoms: _32  and  _33
REMARK    6  A    between atoms: _38  and  _43
REMARK    7  A    between atoms: _43  and  _46
REMARK    8  A    between atoms: _53  and  _55
REMARK                            x       y       z     vdW  Elec       q    Type
REMARK                         _______ _______ _______ _____ _____    ______ ____
ROOT
ATOM     10  C   UNL     1      12.944   9.444   1.911  0.00  0.00    +0.038 A 
ATOM     11  C   UNL     1      14.336   9.656   2.079  0.00  0.00    +0.047 A 
ATOM     12  C   UNL     1      14.864  10.269   3.288  0.00  0.00    +0.035 A 
ATOM     32  C   UNL     1      13.944  10.652   4.308  0.00  0.00    +0.024 A 
ATOM     33  C   UNL     1      12.526  10.444   4.154  0.00  0.00    +0.007 A 
ATOM     34  C   UNL     1      12.000   9.843   2.962  0.00  0.00    -0.029 A 
ATOM     35  C   UNL     1      10.469   9.650   2.848  0.00  0.00    +0.045 C 
ENDROOT
BRANCH  10   9
ATOM      4  C   UNL     1      11.775   9.631  -2.740  0.00  0.00    +0.077 A 
ATOM      5  C   UNL     1      12.063  11.034  -2.817  0.00  0.00    +0.048 A 
ATOM      6  C   UNL     1      12.502  11.672  -1.635  0.00  0.00    +0.116 A 
ATOM      7  N   UNL     1      12.641  10.950  -0.469  0.00  0.00    -0.223 NA
ATOM      8  C   UNL     1      12.353   9.598  -0.429  0.00  0.00    +0.220 A 
ATOM      9  N   UNL     1      12.493   8.851   0.730  0.00  0.00    -0.283 N 
ATOM     36  H   UNL     1      12.263   7.858   0.720  0.00  0.00    +0.155 HD
ATOM     37  N   UNL     1      11.930   8.966  -1.544  0.00  0.00    -0.214 NA
BRANCH   4   3
ATOM      1  C   UNL     1       9.761   8.381  -5.852  0.00  0.00    +0.020 A 
ATOM      2  C   UNL     1      10.175   9.204  -4.738  0.00  0.00    +0.013 A 
ATOM      3  C   UNL     1      11.305   8.816  -3.904  0.00  0.00    +0.019 A 
ATOM     38  C   UNL     1      12.002   7.579  -4.227  0.00  0.00    +0.120 A 
ATOM     39  N   UNL     1      11.580   6.806  -5.304  0.00  0.00    -0.263 NA
ATOM     40  C   UNL     1      10.493   7.169  -6.113  0.00  0.00    +0.111 A 
ENDBRANCH   4   3
ENDBRANCH  10   9
BRANCH  12  13
ATOM     13  N   UNL     1      16.266  10.517   3.512  0.00  0.00    -0.281 N 
ATOM     14  C   UNL     1      17.057  10.060   4.553  0.00  0.00    +0.248 C 
ATOM     30  O   UNL     1      16.625   9.541   5.572  0.00  0.00    -0.270 OA
ATOM     31  H   UNL     1      16.733  11.100   2.817  0.00  0.00    +0.155 HD
BRANCH  14  15
ATOM     15  C   UNL     1      18.540  10.215   4.456  0.00  0.00    +0.037 A 
ATOM     16  C   UNL     1      19.148  11.101   3.460  0.00  0.00    +0.013 A 
ATOM     17  C   UNL     1      20.582  11.219   3.376  0.00  0.00    +0.005 A 
ATOM     18  C   UNL     1      21.419  10.448   4.293  0.00  0.00    -0.033 A 
ATOM     28  C   UNL     1      20.789   9.581   5.275  0.00  0.00    +0.005 A 
ATOM     29  C   UNL     1      19.384   9.462   5.359  0.00  0.00    +0.013 A 
BRANCH  18  19
ATOM     19  C   UNL     1      22.958  10.496   4.262  0.00  0.00    +0.119 C 
BRANCH  19  20
ATOM     20  N   UNL     1      23.639  11.306   5.316  0.00  0.00    -0.302 NA
ATOM     21  C   UNL     1      23.527  12.809   5.047  0.00  0.00    +0.066 C 
ATOM     22  C   UNL     1      24.225  13.642   6.172  0.00  0.00    -0.064 C 
ATOM     23  N   UNL     1      25.691  13.219   6.280  0.00  0.00    +0.379 N 
ATOM     24  C   UNL     1      26.365  14.040   7.296  0.00  0.00    -0.096 C 
ATOM     25  H   UNL     1      26.176  13.429   5.298  0.00  0.00    -0.082 HD
ATOM     26  C   UNL     1      25.812  11.725   6.544  0.00  0.00    -0.064 C 
ATOM     27  C   UNL     1      25.089  10.907   5.436  0.00  0.00    +0.066 C 
ENDBRANCH  19  20
ENDBRANCH  18  19
ENDBRANCH  14  15
ENDBRANCH  12  13
TORSDOF 6
ENDMDL
MODEL 2
REMARK VINA RESULT:      -7.6      2.846     14.823
REMARK  Name = C:\Users\Docking\Desktop\test protocol\1iep_ligandH.pdb
REMARK  8 active torsions:
REMARK  status: ('A' for Active; 'I' for Inactive)
REMARK    1  A    between atoms: _5  and  _11
REMARK    2  A    between atoms: _19  and  _21
REMARK    3  A    between atoms: _22  and  _66
REMARK    4  A    between atoms: _27  and  _30
REMARK    5  A    between atoms: _32  and  _33
REMARK    6  A    between atoms: _38  and  _43
REMARK    7  A    between atoms: _43  and  _46
REMARK    8  A    between atoms: _53  and  _55
REMARK                            x       y       z     vdW  Elec       q    Type
REMARK                         _______ _______ _______ _____ _____    ______ ____
ROOT
ATOM     10  C   UNL     1      24.678  12.348   5.312  0.00  0.00    +0.038 A 
ATOM     11  C   UNL     1      23.313  11.983   5.183  0.00  0.00    +0.047 A 
ATOM     12  C   UNL     1      22.545  12.346   4.002  0.00  0.00    +0.035 A 
ATOM     32  C   UNL     1      23.200  13.079   2.969  0.00  0.00    +0.024 A 
ATOM     33  C   UNL     1      24.586  13.459   3.084  0.00  0.00    +0.007 A 
ATOM     34  C   UNL     1      25.348  13.106   4.248  0.00  0.00    -0.029 A 
ATOM     35  C   UNL     1      26.829  13.546   4.320  0.00  0.00    +0.045 C 
ENDROOT
BRANCH  10   9
ATOM      4  C   UNL     1      26.430  13.276   9.683  0.00  0.00    +0.077 A 
ATOM      5  C   UNL     1      25.955  14.629   9.651  0.00  0.00    +0.048 A 
ATOM      6  C   UNL     1      25.270  15.049   8.488  0.00  0.00    +0.116 A 
ATOM      7  N   UNL     1      25.081  14.173   7.442  0.00  0.00    -0.223 NA
ATOM      8  C   UNL     1      25.553  12.875   7.504  0.00  0.00    +0.220 A 
ATOM      9  N   UNL     1      25.367  11.974   6.467  0.00  0.00    -0.283 N 
ATOM     36  H   UNL     1      25.737  11.027   6.549  0.00  0.00    +0.155 HD
ATOM     37  N   UNL     1      26.211  12.450   8.603  0.00  0.00    -0.214 NA
BRANCH   4   3
ATOM      1  C   UNL     1      28.475  12.869  12.992  0.00  0.00    +0.020 A 
ATOM      2  C   UNL     1      27.773  13.491  11.893  0.00  0.00    +0.013 A 
ATOM      3  C   UNL     1      27.168  12.683  10.843  0.00  0.00    +0.019 A 
ATOM     38  C   UNL     1      27.290  11.236  10.935  0.00  0.00    +0.120 A 
ATOM     39  N   UNL     1      27.973  10.664  12.004  0.00  0.00    -0.263 NA
ATOM     40  C   UNL     1      28.561  11.432  13.020  0.00  0.00    +0.111 A 
ENDBRANCH   4   3
ENDBRANCH  10   9
BRANCH  12  13
ATOM     13  N   UNL     1      21.155  12.010   3.819  0.00  0.00    -0.281 N 
ATOM     14  C   UNL     1      20.586  10.749   3.744  0.00  0.00    +0.248 C 
ATOM     30  O   UNL     1      21.219   9.713   3.608  0.00  0.00    -0.270 OA
ATOM     31  H   UNL     1      20.512  12.798   3.736  0.00  0.00    +0.155 HD
BRANCH  14  15
ATOM     15  C   UNL     1      19.099  10.623   3.816  0.00  0.00    +0.037 A 
ATOM     16  C   UNL     1      18.457   9.746   4.799  0.00  0.00    +0.013 A 
ATOM     17  C   UNL     1      17.021   9.629   4.835  0.00  0.00    +0.005 A 
ATOM     18  C   UNL     1      16.216  10.393   3.885  0.00  0.00    -0.033 A 
ATOM     28  C   UNL     1      16.878  11.260   2.924  0.00  0.00    +0.005 A 
ATOM     29  C   UNL     1      18.286  11.376   2.885  0.00  0.00    +0.013 A 
BRANCH  18  19
ATOM     19  C   UNL     1      14.679  10.314   3.838  0.00  0.00    +0.119 C 
BRANCH  19  20
ATOM     20  N   UNL     1      14.033  10.354   2.492  0.00  0.00    -0.302 NA
ATOM     21  C   UNL     1      12.543  10.006   2.559  0.00  0.00    +0.066 C 
ATOM     22  C   UNL     1      11.879  10.075   1.146  0.00  0.00    -0.064 C 
ATOM     23  N   UNL     1      12.613   9.131   0.193  0.00  0.00    +0.379 N 
ATOM     24  C   UNL     1      11.955   9.150  -1.122  0.00  0.00    -0.096 C 
ATOM     25  H   UNL     1      12.521   8.098   0.602  0.00  0.00    -0.082 HD
ATOM     26  C   UNL     1      14.096   9.469   0.122  0.00  0.00    -0.064 C 
ATOM     27  C   UNL     1      14.740   9.426   1.536  0.00  0.00    +0.066 C 
ENDBRANCH  19  20
ENDBRANCH  18  19
ENDBRANCH  14  15
ENDBRANCH  12  13
TORSDOF 6
ENDMDL
MODEL 3
REMARK VINA RESULT:      -7.6      8.343     15.330
REMARK  Name = C:\Users\Docking\Desktop\test protocol\1iep_ligandH.pdb
REMARK  8 active torsions:
REMARK  status: ('A' for Active; 'I' for Inactive)
REMARK    1  A    between atoms: _5  and  _11
REMARK    2  A    between atoms: _19  and  _21
REMARK    3  A    between atoms: _22  and  _66
REMARK    4  A    between atoms: _27  and  _30
REMARK    5  A    between atoms: _32  and  _33
REMARK    6  A    between atoms: _38  and  _43
REMARK    7  A    between atoms: _43  and  _46
REMARK    8  A    between atoms: _53  and  _55
REMARK                            x       y       z     vdW  Elec       q    Type
REMARK                         _______ _______ _______ _____ _____    ______ ____
ROOT
ATOM     10  C   UNL     1      22.063   4.543  11.181  0.00  0.00    +0.038 A 
ATOM     11  C   UNL     1      21.160   5.169  10.285  0.00  0.00    +0.047 A 
ATOM     12  C   UNL     1      21.640   5.899   9.122  0.00  0.00    +0.035 A 
ATOM     32  C   UNL     1      23.047   5.969   8.901  0.00  0.00    +0.024 A 
ATOM     33  C   UNL     1      23.978   5.339   9.802  0.00  0.00    +0.007 A 
ATOM     34  C   UNL     1      23.511   4.619  10.953  0.00  0.00    -0.029 A 
ATOM     35  C   UNL     1      24.556   3.969  11.889  0.00  0.00    +0.045 C 
ENDROOT
BRANCH  10   9
ATOM      4  C   UNL     1      20.543   4.367  15.730  0.00  0.00    +0.077 A 
ATOM      5  C   UNL     1      20.824   5.758  15.940  0.00  0.00    +0.048 A 
ATOM      6  C   UNL     1      21.366   6.482  14.854  0.00  0.00    +0.116 A 
ATOM      7  N   UNL     1      21.605   5.851  13.652  0.00  0.00    -0.223 NA
ATOM      8  C   UNL     1      21.323   4.507  13.484  0.00  0.00    +0.220 A 
ATOM      9  N   UNL     1      21.548   3.854  12.282  0.00  0.00    -0.283 N 
ATOM     36  H   UNL     1      21.334   2.861  12.200  0.00  0.00    +0.155 HD
ATOM     37  N   UNL     1      20.806   3.794  14.506  0.00  0.00    -0.214 NA
BRANCH   4   3
ATOM      1  C   UNL     1      18.558   1.511  17.521  0.00  0.00    +0.020 A 
ATOM      2  C   UNL     1      19.089   2.347  16.469  0.00  0.00    +0.013 A 
ATOM      3  C   UNL     1      19.965   3.470  16.780  0.00  0.00    +0.019 A 
ATOM     38  C   UNL     1      20.287   3.721  18.177  0.00  0.00    +0.120 A 
ATOM     39  N   UNL     1      19.759   2.900  19.169  0.00  0.00    -0.263 NA
ATOM     40  C   UNL     1      18.914   1.817  18.881  0.00  0.00    +0.111 A 
ENDBRANCH   4   3
ENDBRANCH  10   9
BRANCH  12  13
ATOM     13  N   UNL     1      20.771   6.562   8.181  0.00  0.00    -0.281 N 
ATOM     14  C   UNL     1      19.580   7.220   8.439  0.00  0.00    +0.248 C 
ATOM     30  O   UNL     1      18.968   7.152   9.495  0.00  0.00    -0.270 OA
ATOM     31  H   UNL     1      21.072   6.545   7.206  0.00  0.00    +0.155 HD
BRANCH  14  15
ATOM     15  C   UNL     1      18.972   8.062   7.364  0.00  0.00    +0.037 A 
ATOM     16  C   UNL     1      17.529   8.310   7.319  0.00  0.00    +0.013 A 
ATOM     17  C   UNL     1      16.966   9.112   6.261  0.00  0.00    +0.005 A 
ATOM     18  C   UNL     1      17.848   9.673   5.241  0.00  0.00    -0.033 A 
ATOM     28  C   UNL     1      19.277   9.415   5.313  0.00  0.00    +0.005 A 
ATOM     29  C   UNL     1      19.832   8.629   6.348  0.00  0.00    +0.013 A 
BRANCH  18  19
ATOM     19  C   UNL     1      17.332  10.522   4.064  0.00  0.00    +0.119 C 
BRANCH  19  20
ATOM     20  N   UNL     1      16.311   9.902   3.169  0.00  0.00    -0.302 NA
ATOM     21  C   UNL     1      16.663  10.076   1.689  0.00  0.00    +0.066 C 
ATOM     22  C   UNL     1      15.596   9.401   0.766  0.00  0.00    -0.064 C 
ATOM     23  N   UNL     1      14.218   9.992   1.068  0.00  0.00    +0.379 N 
ATOM     24  C   UNL     1      13.222   9.402   0.163  0.00  0.00    -0.096 C 
ATOM     25  H   UNL     1      14.265  11.085   0.854  0.00  0.00    -0.082 HD
ATOM     26  C   UNL     1      13.861   9.826   2.539  0.00  0.00    -0.064 C 
ATOM     27  C   UNL     1      14.943  10.474   3.447  0.00  0.00    +0.066 C 
ENDBRANCH  19  20
ENDBRANCH  18  19
ENDBRANCH  14  15
ENDBRANCH  12  13
TORSDOF 6
ENDMDL
MODEL 4
REMARK VINA RESULT:      -7.5     18.090     22.271
REMARK  Name = C:\Users\Docking\Desktop\test protocol\1iep_ligandH.pdb
REMARK  8 active torsions:
REMARK  status: ('A' for Active; 'I' for Inactive)
REMARK    1  A    between atoms: _5  and  _11
REMARK    2  A    between atoms: _19  and  _21
REMARK    3  A    between atoms: _22  and  _66
REMARK    4  A    between atoms: _27  and  _30
REMARK    5  A    between atoms: _32  and  _33
REMARK    6  A    between atoms: _38  and  _43
REMARK    7  A    between atoms: _43  and  _46
REMARK    8  A    between atoms: _53  and  _55
REMARK                            x       y       z     vdW  Elec       q    Type
REMARK                         _______ _______ _______ _____ _____    ______ ____
ROOT
ATOM     10  C   UNL     1      17.981  -3.912  18.686  0.00  0.00    +0.038 A 
ATOM     11  C   UNL     1      18.584  -2.663  18.389  0.00  0.00    +0.047 A 
ATOM     12  C   UNL     1      18.267  -1.948  17.162  0.00  0.00    +0.035 A 
ATOM     32  C   UNL     1      17.330  -2.533  16.262  0.00  0.00    +0.024 A 
ATOM     33  C   UNL     1      16.709  -3.802  16.547  0.00  0.00    +0.007 A 
ATOM     34  C   UNL     1      17.019  -4.513  17.754  0.00  0.00    -0.029 A 
ATOM     35  C   UNL     1      16.327  -5.874  18.006  0.00  0.00    +0.045 C 
ENDROOT
BRANCH  10   9
ATOM      4  C   UNL     1      17.296  -4.826  23.348  0.00  0.00    +0.077 A 
ATOM      5  C   UNL     1      16.182  -3.925  23.421  0.00  0.00    +0.048 A 
ATOM      6  C   UNL     1      15.822  -3.240  22.239  0.00  0.00    +0.116 A 
ATOM      7  N   UNL     1      16.530  -3.449  21.075  0.00  0.00    -0.223 NA
ATOM      8  C   UNL     1      17.600  -4.324  21.039  0.00  0.00    +0.220 A 
ATOM      9  N   UNL     1      18.321  -4.556  19.878  0.00  0.00    -0.283 N 
ATOM     36  H   UNL     1      19.109  -5.203  19.894  0.00  0.00    +0.155 HD
ATOM     37  N   UNL     1      17.965  -4.989  22.155  0.00  0.00    -0.214 NA
BRANCH   4   3
ATOM      1  C   UNL     1      18.404  -7.801  25.633  0.00  0.00    +0.020 A 
ATOM      2  C   UNL     1      17.916  -7.077  24.482  0.00  0.00    +0.013 A 
ATOM      3  C   UNL     1      17.795  -5.625  24.511  0.00  0.00    +0.019 A 
ATOM     38  C   UNL     1      18.182  -4.930  25.730  0.00  0.00    +0.120 A 
ATOM     39  N   UNL     1      18.647  -5.653  26.823  0.00  0.00    -0.263 NA
ATOM     40  C   UNL     1      18.766  -7.051  26.807  0.00  0.00    +0.111 A 
ENDBRANCH   4   3
ENDBRANCH  10   9
BRANCH  12  13
ATOM     13  N   UNL     1      18.854  -0.680  16.803  0.00  0.00    -0.281 N 
ATOM     14  C   UNL     1      20.177  -0.411  16.497  0.00  0.00    +0.248 C 
ATOM     30  O   UNL     1      21.104  -1.183  16.694  0.00  0.00    -0.270 OA
ATOM     31  H   UNL     1      18.215   0.115  16.771  0.00  0.00    +0.155 HD
BRANCH  14  15
ATOM     15  C   UNL     1      20.525   0.914  15.898  0.00  0.00    +0.037 A 
ATOM     16  C   UNL     1      21.643   1.055  14.962  0.00  0.00    +0.013 A 
ATOM     17  C   UNL     1      21.967   2.348  14.412  0.00  0.00    +0.005 A 
ATOM     18  C   UNL     1      21.170   3.510  14.797  0.00  0.00    -0.033 A 
ATOM     28  C   UNL     1      20.063   3.341  15.724  0.00  0.00    +0.005 A 
ATOM     29  C   UNL     1      19.743   2.075  16.266  0.00  0.00    +0.013 A 
BRANCH  18  19
ATOM     19  C   UNL     1      21.457   4.931  14.276  0.00  0.00    +0.119 C 
BRANCH  19  20
ATOM     20  N   UNL     1      21.447   5.132  12.797  0.00  0.00    -0.302 NA
ATOM     21  C   UNL     1      21.579   6.609  12.416  0.00  0.00    +0.066 C 
ATOM     22  C   UNL     1      21.590   6.799  10.865  0.00  0.00    -0.064 C 
ATOM     23  N   UNL     1      20.313   6.199  10.272  0.00  0.00    +0.379 N 
ATOM     24  C   UNL     1      20.293   6.427   8.820  0.00  0.00    -0.096 C 
ATOM     25  H   UNL     1      19.447   6.745  10.713  0.00  0.00    -0.082 HD
ATOM     26  C   UNL     1      20.173   4.731  10.647  0.00  0.00    -0.064 C 
ATOM     27  C   UNL     1      20.193   4.550  12.191  0.00  0.00    +0.066 C 
ENDBRANCH  19  20
ENDBRANCH  18  19
ENDBRANCH  14  15
ENDBRANCH  12  13
TORSDOF 6
ENDMDL
MODEL 5
REMARK VINA RESULT:      -7.5      3.863      5.133
REMARK  Name = C:\Users\Docking\Desktop\test protocol\1iep_ligandH.pdb
REMARK  8 active torsions:
REMARK  status: ('A' for Active; 'I' for Inactive)
REMARK    1  A    between atoms: _5  and  _11
REMARK    2  A    between atoms: _19  and  _21
REMARK    3  A    between atoms: _22  and  _66
REMARK    4  A    between atoms: _27  and  _30
REMARK    5  A    between atoms: _32  and  _33
REMARK    6  A    between atoms: _38  and  _43
REMARK    7  A    between atoms: _43  and  _46
REMARK    8  A    between atoms: _53  and  _55
REMARK                            x       y       z     vdW  Elec       q    Type
REMARK                         _______ _______ _______ _____ _____    ______ ____
ROOT
ATOM     10  C   UNL     1      17.334  10.571  -0.232  0.00  0.00    +0.038 A 
ATOM     11  C   UNL     1      17.535   9.951   1.027  0.00  0.00    +0.047 A 
ATOM     12  C   UNL     1      18.339  10.586   2.059  0.00  0.00    +0.035 A 
ATOM     32  C   UNL     1      18.923  11.855   1.775  0.00  0.00    +0.024 A 
ATOM     33  C   UNL     1      18.729  12.500   0.499  0.00  0.00    +0.007 A 
ATOM     34  C   UNL     1      17.939  11.876  -0.523  0.00  0.00    -0.029 A 
ATOM     35  C   UNL     1      17.771  12.610  -1.874  0.00  0.00    +0.045 C 
ENDROOT
BRANCH  10   9
ATOM      4  C   UNL     1      13.116   9.607  -2.310  0.00  0.00    +0.077 A 
ATOM      5  C   UNL     1      12.406  10.460  -1.401  0.00  0.00    +0.048 A 
ATOM      6  C   UNL     1      13.162  11.123  -0.409  0.00  0.00    +0.116 A 
ATOM      7  N   UNL     1      14.526  10.940  -0.340  0.00  0.00    -0.223 NA
ATOM      8  C   UNL     1      15.180  10.109  -1.232  0.00  0.00    +0.220 A 
ATOM      9  N   UNL     1      16.552   9.916  -1.186  0.00  0.00    -0.283 N 
ATOM     36  H   UNL     1      16.995   9.289  -1.857  0.00  0.00    +0.155 HD
ATOM     37  N   UNL     1      14.479   9.463  -2.187  0.00  0.00    -0.214 NA
BRANCH   4   3
ATOM      1  C   UNL     1      10.469   7.697  -4.466  0.00  0.00    +0.020 A 
ATOM      2  C   UNL     1      11.058   8.435  -3.372  0.00  0.00    +0.013 A 
ATOM      3  C   UNL     1      12.457   8.841  -3.415  0.00  0.00    +0.019 A 
ATOM     38  C   UNL     1      13.239   8.482  -4.588  0.00  0.00    +0.120 A 
ATOM     39  N   UNL     1      12.646   7.769  -5.625  0.00  0.00    -0.263 NA
ATOM     40  C   UNL     1      11.301   7.372  -5.595  0.00  0.00    +0.111 A 
ENDBRANCH   4   3
ENDBRANCH  10   9
BRANCH  12  13
ATOM     13  N   UNL     1      18.585  10.001   3.354  0.00  0.00    -0.281 N 
ATOM     14  C   UNL     1      17.696   9.859   4.407  0.00  0.00    +0.248 C 
ATOM     30  O   UNL     1      16.607  10.411   4.471  0.00  0.00    -0.270 OA
ATOM     31  H   UNL     1      19.529   9.648   3.513  0.00  0.00    +0.155 HD
BRANCH  14  15
ATOM     15  C   UNL     1      18.078   8.991   5.562  0.00  0.00    +0.037 A 
ATOM     16  C   UNL     1      17.494   9.194   6.890  0.00  0.00    +0.013 A 
ATOM     17  C   UNL     1      17.893   8.353   7.991  0.00  0.00    +0.005 A 
ATOM     18  C   UNL     1      18.880   7.300   7.768  0.00  0.00    -0.033 A 
ATOM     28  C   UNL     1      19.439   7.118   6.438  0.00  0.00    +0.005 A 
ATOM     29  C   UNL     1      19.052   7.940   5.357  0.00  0.00    +0.013 A 
BRANCH  18  19
ATOM     19  C   UNL     1      19.380   6.370   8.889  0.00  0.00    +0.119 C 
BRANCH  19  20
ATOM     20  N   UNL     1      20.732   6.650   9.458  0.00  0.00    -0.302 NA
ATOM     21  C   UNL     1      21.802   5.719   8.881  0.00  0.00    +0.066 C 
ATOM     22  C   UNL     1      23.214   6.040   9.470  0.00  0.00    -0.064 C 
ATOM     23  N   UNL     1      23.165   5.929  10.995  0.00  0.00    +0.379 N 
ATOM     24  C   UNL     1      24.505   6.173  11.548  0.00  0.00    -0.096 C 
ATOM     25  H   UNL     1      22.880   4.881  11.248  0.00  0.00    -0.082 HD
ATOM     26  C   UNL     1      22.101   6.849  11.577  0.00  0.00    -0.064 C 
ATOM     27  C   UNL     1      20.707   6.541  10.963  0.00  0.00    +0.066 C 
ENDBRANCH  19  20
ENDBRANCH  18  19
ENDBRANCH  14  15
ENDBRANCH  12  13
TORSDOF 6
ENDMDL
