MODEL 1
REMARK VINA RESULT:      -6.7      0.000      0.000
REMARK  Name = C:\Users\Docking\Desktop\test protocol\1iep_ligandH.pdb
REMARK  8 active torsions:
REMARK  status: ('A' for Active; 'I' for Inactive)
REMARK    1  A    between atoms: _5  and  _11
REMARK    2  A    between atoms: _19  and  _21
REMARK    3  A    between atoms: _22  and  _66
REMARK    4  A    between atoms: _27  and  _30
REMARK    5  A    between atoms: _32  and  _33
REMARK    6  A    between atoms: _38  and  _43
REMARK    7  A    between atoms: _43  and  _46
REMARK    8  A    between atoms: _53  and  _55
REMARK                            x       y       z     vdW  Elec       q    Type
REMARK                         _______ _______ _______ _____ _____    ______ ____
ROOT
ATOM     10  C   UNL     1      49.205  -6.125  94.135  0.00  0.00    +0.038 A 
ATOM     11  C   UNL     1      49.111  -6.946  92.982  0.00  0.00    +0.047 A 
ATOM     12  C   UNL     1      50.050  -6.806  91.880  0.00  0.00    +0.035 A 
ATOM     32  C   UNL     1      51.075  -5.821  91.987  0.00  0.00    +0.024 A 
ATOM     33  C   UNL     1      51.184  -4.977  93.151  0.00  0.00    +0.007 A 
ATOM     34  C   UNL     1      50.259  -5.109  94.240  0.00  0.00    -0.029 A 
ATOM     35  C   UNL     1      50.420  -4.173  95.460  0.00  0.00    +0.045 C 
ENDROOT
BRANCH  10   9
ATOM      4  C   UNL     1      47.369  -8.630  97.795  0.00  0.00    +0.077 A 
ATOM      5  C   UNL     1      48.324  -9.687  97.627  0.00  0.00    +0.048 A 
ATOM      6  C   UNL     1      49.266  -9.551  96.583  0.00  0.00    +0.116 A 
ATOM      7  N   UNL     1      49.246  -8.436  95.773  0.00  0.00    -0.223 NA
ATOM      8  C   UNL     1      48.310  -7.436  95.961  0.00  0.00    +0.220 A 
ATOM      9  N   UNL     1      48.276  -6.302  95.163  0.00  0.00    -0.283 N 
ATOM     36  H   UNL     1      47.565  -5.590  95.329  0.00  0.00    +0.155 HD
ATOM     37  N   UNL     1      47.399  -7.543  96.950  0.00  0.00    -0.214 NA
BRANCH   4   3
ATOM      1  C   UNL     1      43.915  -8.455  99.623  0.00  0.00    +0.020 A 
ATOM      2  C   UNL     1      44.896  -8.450  98.561  0.00  0.00    +0.013 A 
ATOM      3  C   UNL     1      46.312  -8.626  98.855  0.00  0.00    +0.019 A 
ATOM     38  C   UNL     1      46.707  -8.808 100.244  0.00  0.00    +0.120 A 
ATOM     39  N   UNL     1      45.740  -8.807 101.245  0.00  0.00    -0.263 NA
ATOM     40  C   UNL     1      44.375  -8.636 100.975  0.00  0.00    +0.111 A 
ENDBRANCH   4   3
ENDBRANCH  10   9
BRANCH  12  13
ATOM     13  N   UNL     1      50.000  -7.606  90.681  0.00  0.00    -0.281 N 
ATOM     14  C   UNL     1      50.700  -8.768  90.403  0.00  0.00    +0.248 C 
ATOM     30  O   UNL     1      51.642  -9.182  91.062  0.00  0.00    -0.270 OA
ATOM     31  H   UNL     1      49.372  -7.274  89.949  0.00  0.00    +0.155 HD
BRANCH  14  15
ATOM     15  C   UNL     1      50.306  -9.580  89.211  0.00  0.00    +0.037 A 
ATOM     16  C   UNL     1      48.917  -9.625  88.747  0.00  0.00    +0.013 A 
ATOM     17  C   UNL     1      48.562 -10.430  87.606  0.00  0.00    +0.005 A 
ATOM     18  C   UNL     1      49.599 -11.196  86.919  0.00  0.00    -0.033 A 
ATOM     28  C   UNL     1      50.970 -11.129  87.397  0.00  0.00    +0.005 A 
ATOM     29  C   UNL     1      51.322 -10.342  88.516  0.00  0.00    +0.013 A 
BRANCH  18  19
ATOM     19  C   UNL     1      49.306 -12.098  85.705  0.00  0.00    +0.119 C 
BRANCH  19  20
ATOM     20  N   UNL     1      48.350 -13.228  85.907  0.00  0.00    -0.302 NA
ATOM     21  C   UNL     1      48.744 -14.108  87.097  0.00  0.00    +0.066 C 
ATOM     22  C   UNL     1      47.721 -15.271  87.308  0.00  0.00    -0.064 C 
ATOM     23  N   UNL     1      47.627 -16.102  86.028  0.00  0.00    +0.379 N 
ATOM     24  C   UNL     1      46.710 -17.231  86.242  0.00  0.00    -0.096 C 
ATOM     25  H   UNL     1      48.639 -16.523  85.823  0.00  0.00    -0.082 HD
ATOM     26  C   UNL     1      47.239 -15.235  84.839  0.00  0.00    -0.064 C 
ATOM     27  C   UNL     1      48.246 -14.065  84.656  0.00  0.00    +0.066 C 
ENDBRANCH  19  20
ENDBRANCH  18  19
ENDBRANCH  14  15
ENDBRANCH  12  13
TORSDOF 6
ENDMDL
MODEL 2
REMARK VINA RESULT:      -6.5      2.059      3.194
REMARK  Name = C:\Users\Docking\Desktop\test protocol\1iep_ligandH.pdb
REMARK  8 active torsions:
REMARK  status: ('A' for Active; 'I' for Inactive)
REMARK    1  A    between atoms: _5  and  _11
REMARK    2  A    between atoms: _19  and  _21
REMARK    3  A    between atoms: _22  and  _66
REMARK    4  A    between atoms: _27  and  _30
REMARK    5  A    between atoms: _32  and  _33
REMARK    6  A    between atoms: _38  and  _43
REMARK    7  A    between atoms: _43  and  _46
REMARK    8  A    between atoms: _53  and  _55
REMARK                            x       y       z     vdW  Elec       q    Type
REMARK                         _______ _______ _______ _____ _____    ______ ____
ROOT
ATOM     10  C   UNL     1      49.176  -6.222  94.182  0.00  0.00    +0.038 A 
ATOM     11  C   UNL     1      49.122  -6.977  92.982  0.00  0.00    +0.047 A 
ATOM     12  C   UNL     1      50.103  -6.784  91.926  0.00  0.00    +0.035 A 
ATOM     32  C   UNL     1      51.129  -5.815  92.126  0.00  0.00    +0.024 A 
ATOM     33  C   UNL     1      51.199  -5.038  93.339  0.00  0.00    +0.007 A 
ATOM     34  C   UNL     1      50.232  -5.223  94.383  0.00  0.00    -0.029 A 
ATOM     35  C   UNL     1      50.352  -4.357  95.659  0.00  0.00    +0.045 C 
ENDROOT
BRANCH  10   9
ATOM      4  C   UNL     1      47.399  -8.713  97.879  0.00  0.00    +0.077 A 
ATOM      5  C   UNL     1      48.477  -9.659  97.837  0.00  0.00    +0.048 A 
ATOM      6  C   UNL     1      49.464  -9.473  96.843  0.00  0.00    +0.116 A 
ATOM      7  N   UNL     1      49.371  -8.416  95.964  0.00  0.00    -0.223 NA
ATOM      8  C   UNL     1      48.318  -7.523  96.031  0.00  0.00    +0.220 A 
ATOM      9  N   UNL     1      48.208  -6.449  95.162  0.00  0.00    -0.283 N 
ATOM     36  H   UNL     1      47.412  -5.816  95.240  0.00  0.00    +0.155 HD
ATOM     37  N   UNL     1      47.361  -7.680  96.970  0.00  0.00    -0.214 NA
BRANCH   4   3
ATOM      1  C   UNL     1      43.857  -8.533  99.530  0.00  0.00    +0.020 A 
ATOM      2  C   UNL     1      44.900  -8.459  98.532  0.00  0.00    +0.013 A 
ATOM      3  C   UNL     1      46.281  -8.774  98.873  0.00  0.00    +0.019 A 
ATOM     38  C   UNL     1      46.577  -9.164 100.244  0.00  0.00    +0.120 A 
ATOM     39  N   UNL     1      45.552  -9.226 101.183  0.00  0.00    -0.263 NA
ATOM     40  C   UNL     1      44.219  -8.923 100.867  0.00  0.00    +0.111 A 
ENDBRANCH   4   3
ENDBRANCH  10   9
BRANCH  12  13
ATOM     13  N   UNL     1      50.093  -7.515  90.683  0.00  0.00    -0.281 N 
ATOM     14  C   UNL     1      50.773  -8.683  90.377  0.00  0.00    +0.248 C 
ATOM     30  O   UNL     1      51.666  -9.162  91.060  0.00  0.00    -0.270 OA
ATOM     31  H   UNL     1      49.515  -7.125  89.939  0.00  0.00    +0.155 HD
BRANCH  14  15
ATOM     15  C   UNL     1      50.420  -9.416  89.123  0.00  0.00    +0.037 A 
ATOM     16  C   UNL     1      50.938 -10.761  88.858  0.00  0.00    +0.013 A 
ATOM     17  C   UNL     1      50.595 -11.439  87.633  0.00  0.00    +0.005 A 
ATOM     18  C   UNL     1      49.728 -10.773  86.664  0.00  0.00    -0.033 A 
ATOM     28  C   UNL     1      49.225  -9.441  86.955  0.00  0.00    +0.005 A 
ATOM     29  C   UNL     1      49.559  -8.772  88.154  0.00  0.00    +0.013 A 
BRANCH  18  19
ATOM     19  C   UNL     1      49.328 -11.412  85.321  0.00  0.00    +0.119 C 
BRANCH  19  20
ATOM     20  N   UNL     1      49.682 -10.667  84.076  0.00  0.00    -0.302 NA
ATOM     21  C   UNL     1      49.157 -11.366  82.819  0.00  0.00    +0.066 C 
ATOM     22  C   UNL     1      49.517 -10.561  81.528  0.00  0.00    -0.064 C 
ATOM     23  N   UNL     1      51.033 -10.376  81.451  0.00  0.00    +0.379 N 
ATOM     24  C   UNL     1      51.379  -9.670  80.209  0.00  0.00    -0.096 C 
ATOM     25  H   UNL     1      51.496 -11.389  81.405  0.00  0.00    -0.082 HD
ATOM     26  C   UNL     1      51.563  -9.683  82.699  0.00  0.00    -0.064 C 
ATOM     27  C   UNL     1      51.175 -10.476  83.978  0.00  0.00    +0.066 C 
ENDBRANCH  19  20
ENDBRANCH  18  19
ENDBRANCH  14  15
ENDBRANCH  12  13
TORSDOF 6
ENDMDL
MODEL 3
REMARK VINA RESULT:      -6.5      5.758     12.022
REMARK  Name = C:\Users\Docking\Desktop\test protocol\1iep_ligandH.pdb
REMARK  8 active torsions:
REMARK  status: ('A' for Active; 'I' for Inactive)
REMARK    1  A    between atoms: _5  and  _11
REMARK    2  A    between atoms: _19  and  _21
REMARK    3  A    between atoms: _22  and  _66
REMARK    4  A    between atoms: _27  and  _30
REMARK    5  A    between atoms: _32  and  _33
REMARK    6  A    between atoms: _38  and  _43
REMARK    7  A    between atoms: _43  and  _46
REMARK    8  A    between atoms: _53  and  _55
REMARK                            x       y       z     vdW  Elec       q    Type
REMARK                         _______ _______ _______ _____ _____    ______ ____
ROOT
ATOM     10  C   UNL     1      51.281  -4.685  93.338  0.00  0.00    +0.038 A 
ATOM     11  C   UNL     1      50.343  -5.192  94.273  0.00  0.00    +0.047 A 
ATOM     12  C   UNL     1      49.418  -6.255  93.911  0.00  0.00    +0.035 A 
ATOM     32  C   UNL     1      49.479  -6.781  92.588  0.00  0.00    +0.024 A 
ATOM     33  C   UNL     1      50.426  -6.277  91.624  0.00  0.00    +0.007 A 
ATOM     34  C   UNL     1      51.339  -5.227  91.975  0.00  0.00    -0.029 A 
ATOM     35  C   UNL     1      52.328  -4.721  90.900  0.00  0.00    +0.045 C 
ENDROOT
BRANCH  10   9
ATOM      4  C   UNL     1      52.317  -0.053  94.049  0.00  0.00    +0.077 A 
ATOM      5  C   UNL     1      51.039   0.370  93.554  0.00  0.00    +0.048 A 
ATOM      6  C   UNL     1      50.147  -0.635  93.119  0.00  0.00    +0.116 A 
ATOM      7  N   UNL     1      50.515  -1.962  93.180  0.00  0.00    -0.223 NA
ATOM      8  C   UNL     1      51.756  -2.335  93.662  0.00  0.00    +0.220 A 
ATOM      9  N   UNL     1      52.145  -3.664  93.740  0.00  0.00    -0.283 N 
ATOM     36  H   UNL     1      53.072  -3.898  94.095  0.00  0.00    +0.155 HD
ATOM     37  N   UNL     1      52.627  -1.394  94.082  0.00  0.00    -0.214 NA
BRANCH   4   3
ATOM      1  C   UNL     1      54.713   3.020  94.401  0.00  0.00    +0.020 A 
ATOM      2  C   UNL     1      53.690   2.144  93.877  0.00  0.00    +0.013 A 
ATOM      3  C   UNL     1      53.367   0.891  94.548  0.00  0.00    +0.019 A 
ATOM     38  C   UNL     1      54.103   0.551  95.757  0.00  0.00    +0.120 A 
ATOM     39  N   UNL     1      55.084   1.414  96.237  0.00  0.00    -0.263 NA
ATOM     40  C   UNL     1      55.404   2.621  95.599  0.00  0.00    +0.111 A 
ENDBRANCH   4   3
ENDBRANCH  10   9
BRANCH  12  13
ATOM     13  N   UNL     1      48.438  -6.803  94.815  0.00  0.00    -0.281 N 
ATOM     14  C   UNL     1      48.657  -7.600  95.927  0.00  0.00    +0.248 C 
ATOM     30  O   UNL     1      49.721  -8.141  96.191  0.00  0.00    -0.270 OA
ATOM     31  H   UNL     1      47.465  -6.577  94.611  0.00  0.00    +0.155 HD
BRANCH  14  15
ATOM     15  C   UNL     1      47.527  -7.843  96.875  0.00  0.00    +0.037 A 
ATOM     16  C   UNL     1      46.145  -7.526  96.507  0.00  0.00    +0.013 A 
ATOM     17  C   UNL     1      45.076  -7.754  97.447  0.00  0.00    +0.005 A 
ATOM     18  C   UNL     1      45.386  -8.304  98.765  0.00  0.00    -0.033 A 
ATOM     28  C   UNL     1      46.766  -8.614  99.102  0.00  0.00    +0.005 A 
ATOM     29  C   UNL     1      47.816  -8.390  98.184  0.00  0.00    +0.013 A 
BRANCH  18  19
ATOM     19  C   UNL     1      44.312  -8.559  99.838  0.00  0.00    +0.119 C 
BRANCH  19  20
ATOM     20  N   UNL     1      44.777  -8.717 101.248  0.00  0.00    -0.302 NA
ATOM     21  C   UNL     1      43.922  -9.720 102.027  0.00  0.00    +0.066 C 
ATOM     22  C   UNL     1      44.437  -9.890 103.493  0.00  0.00    -0.064 C 
ATOM     23  N   UNL     1      44.443  -8.528 104.189  0.00  0.00    +0.379 N 
ATOM     24  C   UNL     1      44.872  -8.693 105.586  0.00  0.00    -0.096 C 
ATOM     25  H   UNL     1      43.395  -8.149 104.200  0.00  0.00    -0.082 HD
ATOM     26  C   UNL     1      45.290  -7.524 103.420  0.00  0.00    -0.064 C 
ATOM     27  C   UNL     1      44.788  -7.385 101.956  0.00  0.00    +0.066 C 
ENDBRANCH  19  20
ENDBRANCH  18  19
ENDBRANCH  14  15
ENDBRANCH  12  13
TORSDOF 6
ENDMDL
MODEL 4
REMARK VINA RESULT:      -6.4     11.393     17.305
REMARK  Name = C:\Users\Docking\Desktop\test protocol\1iep_ligandH.pdb
REMARK  8 active torsions:
REMARK  status: ('A' for Active; 'I' for Inactive)
REMARK    1  A    between atoms: _5  and  _11
REMARK    2  A    between atoms: _19  and  _21
REMARK    3  A    between atoms: _22  and  _66
REMARK    4  A    between atoms: _27  and  _30
REMARK    5  A    between atoms: _32  and  _33
REMARK    6  A    between atoms: _38  and  _43
REMARK    7  A    between atoms: _43  and  _46
REMARK    8  A    between atoms: _53  and  _55
REMARK                            x       y       z     vdW  Elec       q    Type
REMARK                         _______ _______ _______ _____ _____    ______ ____
ROOT
ATOM     10  C   UNL     1      45.942 -11.807  79.056  0.00  0.00    +0.038 A 
ATOM     11  C   UNL     1      44.722 -11.765  78.333  0.00  0.00    +0.047 A 
ATOM     12  C   UNL     1      44.696 -11.416  76.921  0.00  0.00    +0.035 A 
ATOM     32  C   UNL     1      45.931 -11.118  76.276  0.00  0.00    +0.024 A 
ATOM     33  C   UNL     1      47.180 -11.154  76.995  0.00  0.00    +0.007 A 
ATOM     34  C   UNL     1      47.212 -11.496  78.389  0.00  0.00    -0.029 A 
ATOM     35  C   UNL     1      48.579 -11.513  79.112  0.00  0.00    +0.045 C 
ENDROOT
BRANCH  10   9
ATOM      4  C   UNL     1      46.124 -15.022  82.616  0.00  0.00    +0.077 A 
ATOM      5  C   UNL     1      46.270 -16.116  81.699  0.00  0.00    +0.048 A 
ATOM      6  C   UNL     1      46.286 -15.810  80.320  0.00  0.00    +0.116 A 
ATOM      7  N   UNL     1      46.165 -14.503  79.900  0.00  0.00    -0.223 NA
ATOM      8  C   UNL     1      46.024 -13.471  80.810  0.00  0.00    +0.220 A 
ATOM      9  N   UNL     1      45.909 -12.149  80.410  0.00  0.00    -0.283 N 
ATOM     36  H   UNL     1      45.799 -11.418  81.112  0.00  0.00    +0.155 HD
ATOM     37  N   UNL     1      46.004 -13.738  82.132  0.00  0.00    -0.214 NA
BRANCH   4   3
ATOM      1  C   UNL     1      47.137 -15.018  86.394  0.00  0.00    +0.020 A 
ATOM      2  C   UNL     1      47.219 -14.842  84.962  0.00  0.00    +0.013 A 
ATOM      3  C   UNL     1      46.092 -15.184  84.104  0.00  0.00    +0.019 A 
ATOM     38  C   UNL     1      44.886 -15.704  84.730  0.00  0.00    +0.120 A 
ATOM     39  N   UNL     1      44.836 -15.863  86.112  0.00  0.00    -0.263 NA
ATOM     40  C   UNL     1      45.915 -15.540  86.948  0.00  0.00    +0.111 A 
ENDBRANCH   4   3
ENDBRANCH  10   9
BRANCH  12  13
ATOM     13  N   UNL     1      43.487 -11.349  76.138  0.00  0.00    -0.281 N 
ATOM     14  C   UNL     1      42.842 -12.383  75.478  0.00  0.00    +0.248 C 
ATOM     30  O   UNL     1      43.326 -13.488  75.284  0.00  0.00    -0.270 OA
ATOM     31  H   UNL     1      43.055 -10.429  76.060  0.00  0.00    +0.155 HD
BRANCH  14  15
ATOM     15  C   UNL     1      41.465 -12.150  74.944  0.00  0.00    +0.037 A 
ATOM     16  C   UNL     1      40.283 -12.659  75.643  0.00  0.00    +0.013 A 
ATOM     17  C   UNL     1      38.968 -12.435  75.097  0.00  0.00    +0.005 A 
ATOM     18  C   UNL     1      38.828 -11.696  73.845  0.00  0.00    -0.033 A 
ATOM     28  C   UNL     1      40.018 -11.198  73.175  0.00  0.00    +0.005 A 
ATOM     29  C   UNL     1      41.309 -11.416  73.706  0.00  0.00    +0.013 A 
BRANCH  18  19
ATOM     19  C   UNL     1      37.466 -11.429  73.178  0.00  0.00    +0.119 C 
BRANCH  19  20
ATOM     20  N   UNL     1      37.169 -10.024  72.769  0.00  0.00    -0.302 NA
ATOM     21  C   UNL     1      36.519  -9.221  73.900  0.00  0.00    +0.066 C 
ATOM     22  C   UNL     1      36.236  -7.747  73.462  0.00  0.00    -0.064 C 
ATOM     23  N   UNL     1      35.345  -7.750  72.219  0.00  0.00    +0.379 N 
ATOM     24  C   UNL     1      35.029  -6.366  71.838  0.00  0.00    -0.096 C 
ATOM     25  H   UNL     1      34.388  -8.253  72.490  0.00  0.00    -0.082 HD
ATOM     26  C   UNL     1      35.982  -8.548  71.090  0.00  0.00    -0.064 C 
ATOM     27  C   UNL     1      36.286 -10.003  71.545  0.00  0.00    +0.066 C 
ENDBRANCH  19  20
ENDBRANCH  18  19
ENDBRANCH  14  15
ENDBRANCH  12  13
TORSDOF 6
ENDMDL
MODEL 5
REMARK VINA RESULT:      -6.3     16.359     19.715
REMARK  Name = C:\Users\Docking\Desktop\test protocol\1iep_ligandH.pdb
REMARK  8 active torsions:
REMARK  status: ('A' for Active; 'I' for Inactive)
REMARK    1  A    between atoms: _5  and  _11
REMARK    2  A    between atoms: _19  and  _21
REMARK    3  A    between atoms: _22  and  _66
REMARK    4  A    between atoms: _27  and  _30
REMARK    5  A    between atoms: _32  and  _33
REMARK    6  A    between atoms: _38  and  _43
REMARK    7  A    between atoms: _43  and  _46
REMARK    8  A    between atoms: _53  and  _55
REMARK                            x       y       z     vdW  Elec       q    Type
REMARK                         _______ _______ _______ _____ _____    ______ ____
ROOT
ATOM     10  C   UNL     1      32.337  -4.424  92.309  0.00  0.00    +0.038 A 
ATOM     11  C   UNL     1      32.916  -4.923  93.504  0.00  0.00    +0.047 A 
ATOM     12  C   UNL     1      32.296  -6.011  94.244  0.00  0.00    +0.035 A 
ATOM     32  C   UNL     1      31.087  -6.570  93.737  0.00  0.00    +0.024 A 
ATOM     33  C   UNL     1      30.484  -6.075  92.524  0.00  0.00    +0.007 A 
ATOM     34  C   UNL     1      31.090  -5.000  91.791  0.00  0.00    -0.029 A 
ATOM     35  C   UNL     1      30.396  -4.505  90.501  0.00  0.00    +0.045 C 
ENDROOT
BRANCH  10   9
ATOM      4  C   UNL     1      32.903   0.233  91.297  0.00  0.00    +0.077 A 
ATOM      5  C   UNL     1      31.818   0.612  92.156  0.00  0.00    +0.048 A 
ATOM      6  C   UNL     1      31.135  -0.422  92.834  0.00  0.00    +0.116 A 
ATOM      7  N   UNL     1      31.518  -1.734  92.660  0.00  0.00    -0.223 NA
ATOM      8  C   UNL     1      32.568  -2.066  91.823  0.00  0.00    +0.220 A 
ATOM      9  N   UNL     1      32.976  -3.378  91.639  0.00  0.00    -0.283 N 
ATOM     36  H   UNL     1      33.750  -3.582  91.008  0.00  0.00    +0.155 HD
ATOM     37  N   UNL     1      33.235  -1.096  91.163  0.00  0.00    -0.214 NA
BRANCH   4   3
ATOM      1  C   UNL     1      34.112   2.723  88.534  0.00  0.00    +0.020 A 
ATOM      2  C   UNL     1      33.282   1.782  89.249  0.00  0.00    +0.013 A 
ATOM      3  C   UNL     1      33.723   1.212  90.516  0.00  0.00    +0.019 A 
ATOM     38  C   UNL     1      35.020   1.619  91.036  0.00  0.00    +0.120 A 
ATOM     39  N   UNL     1      35.798   2.527  90.324  0.00  0.00    -0.263 NA
ATOM     40  C   UNL     1      35.385   3.081  89.103  0.00  0.00    +0.111 A 
ENDBRANCH   4   3
ENDBRANCH  10   9
BRANCH  12  13
ATOM     13  N   UNL     1      32.833  -6.553  95.468  0.00  0.00    -0.281 N 
ATOM     14  C   UNL     1      32.833  -5.976  96.727  0.00  0.00    +0.248 C 
ATOM     30  O   UNL     1      32.558  -4.807  96.952  0.00  0.00    -0.270 OA
ATOM     31  H   UNL     1      33.266  -7.474  95.396  0.00  0.00    +0.155 HD
BRANCH  14  15
ATOM     15  C   UNL     1      33.205  -6.816  97.906  0.00  0.00    +0.037 A 
ATOM     16  C   UNL     1      33.184  -6.270  99.265  0.00  0.00    +0.013 A 
ATOM     17  C   UNL     1      33.564  -7.097 100.383  0.00  0.00    +0.005 A 
ATOM     18  C   UNL     1      33.967  -8.481 100.145  0.00  0.00    -0.033 A 
ATOM     28  C   UNL     1      33.974  -8.999  98.787  0.00  0.00    +0.005 A 
ATOM     29  C   UNL     1      33.603  -8.191  97.689  0.00  0.00    +0.013 A 
BRANCH  18  19
ATOM     19  C   UNL     1      34.409  -9.429 101.276  0.00  0.00    +0.119 C 
BRANCH  19  20
ATOM     20  N   UNL     1      35.101  -8.818 102.450  0.00  0.00    -0.302 NA
ATOM     21  C   UNL     1      36.620  -8.773 102.261  0.00  0.00    +0.066 C 
ATOM     22  C   UNL     1      37.326  -8.110 103.489  0.00  0.00    -0.064 C 
ATOM     23  N   UNL     1      36.961  -8.878 104.760  0.00  0.00    +0.379 N 
ATOM     24  C   UNL     1      37.670  -8.293 105.907  0.00  0.00    -0.096 C 
ATOM     25  H   UNL     1      37.323  -9.926 104.637  0.00  0.00    -0.082 HD
ATOM     26  C   UNL     1      35.452  -8.931 104.953  0.00  0.00    -0.064 C 
ATOM     27  C   UNL     1      34.758  -9.564 103.716  0.00  0.00    +0.066 C 
ENDBRANCH  19  20
ENDBRANCH  18  19
ENDBRANCH  14  15
ENDBRANCH  12  13
TORSDOF 6
ENDMDL
