MODEL 1
REMARK VINA RESULT:      -8.3      0.000      0.000
REMARK  Name = C:\Users\Docking\Desktop\test protocol\1iep_ligandH.pdb
REMARK  8 active torsions:
REMARK  status: ('A' for Active; 'I' for Inactive)
REMARK    1  A    between atoms: _5  and  _11
REMARK    2  A    between atoms: _19  and  _21
REMARK    3  A    between atoms: _22  and  _66
REMARK    4  A    between atoms: _27  and  _30
REMARK    5  A    between atoms: _32  and  _33
REMARK    6  A    between atoms: _38  and  _43
REMARK    7  A    between atoms: _43  and  _46
REMARK    8  A    between atoms: _53  and  _55
REMARK                            x       y       z     vdW  Elec       q    Type
REMARK                         _______ _______ _______ _____ _____    ______ ____
ROOT
ATOM     10  C   UNL     1      10.835  23.323   8.777  0.00  0.00    +0.038 A 
ATOM     11  C   UNL     1      12.008  23.462   7.992  0.00  0.00    +0.047 A 
ATOM     12  C   UNL     1      13.264  22.853   8.402  0.00  0.00    +0.035 A 
ATOM     32  C   UNL     1      13.289  22.107   9.616  0.00  0.00    +0.024 A 
ATOM     33  C   UNL     1      12.106  21.956  10.426  0.00  0.00    +0.007 A 
ATOM     34  C   UNL     1      10.865  22.557  10.029  0.00  0.00    -0.029 A 
ATOM     35  C   UNL     1       9.630  22.368  10.940  0.00  0.00    +0.045 C 
ENDROOT
BRANCH  10   9
ATOM      4  C   UNL     1       7.998  27.154   8.217  0.00  0.00    +0.077 A 
ATOM      5  C   UNL     1       8.931  28.016   8.883  0.00  0.00    +0.048 A 
ATOM      6  C   UNL     1      10.126  27.433   9.361  0.00  0.00    +0.116 A 
ATOM      7  N   UNL     1      10.360  26.087   9.180  0.00  0.00    -0.223 NA
ATOM      8  C   UNL     1       9.438  25.283   8.536  0.00  0.00    +0.220 A 
ATOM      9  N   UNL     1       9.656  23.929   8.336  0.00  0.00    -0.283 N 
ATOM     36  H   UNL     1       8.948  23.368   7.862  0.00  0.00    +0.155 HD
ATOM     37  N   UNL     1       8.289  25.816   8.071  0.00  0.00    -0.214 NA
BRANCH   4   3
ATOM      1  C   UNL     1       5.019  29.422   7.085  0.00  0.00    +0.020 A 
ATOM      2  C   UNL     1       6.291  29.023   7.641  0.00  0.00    +0.013 A 
ATOM      3  C   UNL     1       6.692  27.622   7.654  0.00  0.00    +0.019 A 
ATOM     38  C   UNL     1       5.776  26.642   7.089  0.00  0.00    +0.120 A 
ATOM     39  N   UNL     1       4.557  27.056   6.561  0.00  0.00    -0.263 NA
ATOM     40  C   UNL     1       4.160  28.401   6.546  0.00  0.00    +0.111 A 
ENDBRANCH   4   3
ENDBRANCH  10   9
BRANCH  12  13
ATOM     13  N   UNL     1      14.489  22.967   7.650  0.00  0.00    -0.281 N 
ATOM     14  C   UNL     1      14.646  22.976   6.273  0.00  0.00    +0.248 C 
ATOM     30  O   UNL     1      13.772  22.670   5.476  0.00  0.00    -0.270 OA
ATOM     31  H   UNL     1      15.345  23.052   8.199  0.00  0.00    +0.155 HD
BRANCH  14  15
ATOM     15  C   UNL     1      15.970  23.366   5.700  0.00  0.00    +0.037 A 
ATOM     16  C   UNL     1      16.181  23.435   4.252  0.00  0.00    +0.013 A 
ATOM     17  C   UNL     1      17.473  23.797   3.725  0.00  0.00    +0.005 A 
ATOM     18  C   UNL     1      18.565  24.095   4.649  0.00  0.00    -0.033 A 
ATOM     28  C   UNL     1      18.327  24.024   6.081  0.00  0.00    +0.005 A 
ATOM     29  C   UNL     1      17.062  23.668   6.601  0.00  0.00    +0.013 A 
BRANCH  18  19
ATOM     19  C   UNL     1      19.982  24.470   4.175  0.00  0.00    +0.119 C 
BRANCH  19  20
ATOM     20  N   UNL     1      20.106  25.630   3.243  0.00  0.00    -0.302 NA
ATOM     21  C   UNL     1      21.569  25.980   2.955  0.00  0.00    +0.066 C 
ATOM     22  C   UNL     1      21.681  27.181   1.960  0.00  0.00    -0.064 C 
ATOM     23  N   UNL     1      20.939  28.388   2.537  0.00  0.00    +0.379 N 
ATOM     24  C   UNL     1      21.091  29.536   1.631  0.00  0.00    -0.096 C 
ATOM     25  H   UNL     1      21.425  28.653   3.504  0.00  0.00    -0.082 HD
ATOM     26  C   UNL     1      19.484  28.048   2.829  0.00  0.00    -0.064 C 
ATOM     27  C   UNL     1      19.384  26.834   3.795  0.00  0.00    +0.066 C 
ENDBRANCH  19  20
ENDBRANCH  18  19
ENDBRANCH  14  15
ENDBRANCH  12  13
TORSDOF 6
ENDMDL
MODEL 2
REMARK VINA RESULT:      -8.1      1.759      2.488
REMARK  Name = C:\Users\Docking\Desktop\test protocol\1iep_ligandH.pdb
REMARK  8 active torsions:
REMARK  status: ('A' for Active; 'I' for Inactive)
REMARK    1  A    between atoms: _5  and  _11
REMARK    2  A    between atoms: _19  and  _21
REMARK    3  A    between atoms: _22  and  _66
REMARK    4  A    between atoms: _27  and  _30
REMARK    5  A    between atoms: _32  and  _33
REMARK    6  A    between atoms: _38  and  _43
REMARK    7  A    between atoms: _43  and  _46
REMARK    8  A    between atoms: _53  and  _55
REMARK                            x       y       z     vdW  Elec       q    Type
REMARK                         _______ _______ _______ _____ _____    ______ ____
ROOT
ATOM     10  C   UNL     1      11.959  23.529   8.014  0.00  0.00    +0.038 A 
ATOM     11  C   UNL     1      13.118  23.866   7.269  0.00  0.00    +0.047 A 
ATOM     12  C   UNL     1      14.421  23.322   7.618  0.00  0.00    +0.035 A 
ATOM     32  C   UNL     1      14.507  22.436   8.731  0.00  0.00    +0.024 A 
ATOM     33  C   UNL     1      13.339  22.084   9.500  0.00  0.00    +0.007 A 
ATOM     34  C   UNL     1      12.052  22.619   9.162  0.00  0.00    -0.029 A 
ATOM     35  C   UNL     1      10.835  22.212  10.025  0.00  0.00    +0.045 C 
ENDROOT
BRANCH  10   9
ATOM      4  C   UNL     1       8.655  27.008   8.159  0.00  0.00    +0.077 A 
ATOM      5  C   UNL     1       9.425  27.781   9.091  0.00  0.00    +0.048 A 
ATOM      6  C   UNL     1      10.662  27.245   9.514  0.00  0.00    +0.116 A 
ATOM      7  N   UNL     1      11.088  26.025   9.033  0.00  0.00    -0.223 NA
ATOM      8  C   UNL     1      10.320  25.305   8.137  0.00  0.00    +0.220 A 
ATOM      9  N   UNL     1      10.733  24.080   7.634  0.00  0.00    -0.283 N 
ATOM     36  H   UNL     1      10.134  23.576   6.980  0.00  0.00    +0.155 HD
ATOM     37  N   UNL     1       9.135  25.795   7.719  0.00  0.00    -0.214 NA
BRANCH   4   3
ATOM      1  C   UNL     1       5.506  29.152   7.270  0.00  0.00    +0.020 A 
ATOM      2  C   UNL     1       6.792  28.783   7.816  0.00  0.00    +0.013 A 
ATOM      3  C   UNL     1       7.329  27.442   7.617  0.00  0.00    +0.019 A 
ATOM     38  C   UNL     1       6.534  26.492   6.855  0.00  0.00    +0.120 A 
ATOM     39  N   UNL     1       5.298  26.875   6.343  0.00  0.00    -0.263 NA
ATOM     40  C   UNL     1       4.770  28.161   6.529  0.00  0.00    +0.111 A 
ENDBRANCH   4   3
ENDBRANCH  10   9
BRANCH  12  13
ATOM     13  N   UNL     1      15.634  23.634   6.904  0.00  0.00    -0.281 N 
ATOM     14  C   UNL     1      16.034  23.170   5.661  0.00  0.00    +0.248 C 
ATOM     30  O   UNL     1      15.504  22.244   5.066  0.00  0.00    -0.270 OA
ATOM     31  H   UNL     1      16.276  24.275   7.370  0.00  0.00    +0.155 HD
BRANCH  14  15
ATOM     15  C   UNL     1      17.200  23.820   4.989  0.00  0.00    +0.037 A 
ATOM     16  C   UNL     1      17.398  23.715   3.541  0.00  0.00    +0.013 A 
ATOM     17  C   UNL     1      18.540  24.337   2.920  0.00  0.00    +0.005 A 
ATOM     18  C   UNL     1      19.494  25.071   3.748  0.00  0.00    -0.033 A 
ATOM     28  C   UNL     1      19.270  25.164   5.181  0.00  0.00    +0.005 A 
ATOM     29  C   UNL     1      18.152  24.555   5.793  0.00  0.00    +0.013 A 
BRANCH  18  19
ATOM     19  C   UNL     1      20.752  25.749   3.173  0.00  0.00    +0.119 C 
BRANCH  19  20
ATOM     20  N   UNL     1      21.882  24.860   2.768  0.00  0.00    -0.302 NA
ATOM     21  C   UNL     1      22.515  24.152   3.970  0.00  0.00    +0.066 C 
ATOM     22  C   UNL     1      23.681  23.209   3.526  0.00  0.00    -0.064 C 
ATOM     23  N   UNL     1      24.728  24.023   2.763  0.00  0.00    +0.379 N 
ATOM     24  C   UNL     1      25.853  23.151   2.395  0.00  0.00    -0.096 C 
ATOM     25  H   UNL     1      25.118  24.805   3.456  0.00  0.00    -0.082 HD
ATOM     26  C   UNL     1      24.107  24.733   1.569  0.00  0.00    -0.064 C 
ATOM     27  C   UNL     1      22.930  25.644   2.017  0.00  0.00    +0.066 C 
ENDBRANCH  19  20
ENDBRANCH  18  19
ENDBRANCH  14  15
ENDBRANCH  12  13
TORSDOF 6
ENDMDL
MODEL 3
REMARK VINA RESULT:      -8.0      1.986     12.180
REMARK  Name = C:\Users\Docking\Desktop\test protocol\1iep_ligandH.pdb
REMARK  8 active torsions:
REMARK  status: ('A' for Active; 'I' for Inactive)
REMARK    1  A    between atoms: _5  and  _11
REMARK    2  A    between atoms: _19  and  _21
REMARK    3  A    between atoms: _22  and  _66
REMARK    4  A    between atoms: _27  and  _30
REMARK    5  A    between atoms: _32  and  _33
REMARK    6  A    between atoms: _38  and  _43
REMARK    7  A    between atoms: _43  and  _46
REMARK    8  A    between atoms: _53  and  _55
REMARK                            x       y       z     vdW  Elec       q    Type
REMARK                         _______ _______ _______ _____ _____    ______ ____
ROOT
ATOM     10  C   UNL     1      14.420  23.311   8.290  0.00  0.00    +0.038 A 
ATOM     11  C   UNL     1      13.285  24.151   8.163  0.00  0.00    +0.047 A 
ATOM     12  C   UNL     1      11.988  23.748   8.686  0.00  0.00    +0.035 A 
ATOM     32  C   UNL     1      11.885  22.483   9.335  0.00  0.00    +0.024 A 
ATOM     33  C   UNL     1      13.028  21.616   9.472  0.00  0.00    +0.007 A 
ATOM     34  C   UNL     1      14.309  22.007   8.956  0.00  0.00    -0.029 A 
ATOM     35  C   UNL     1      15.500  21.034   9.126  0.00  0.00    +0.045 C 
ENDROOT
BRANCH  10   9
ATOM      4  C   UNL     1      17.511  23.892   4.665  0.00  0.00    +0.077 A 
ATOM      5  C   UNL     1      16.631  23.247   3.733  0.00  0.00    +0.048 A 
ATOM      6  C   UNL     1      15.395  22.774   4.229  0.00  0.00    +0.116 A 
ATOM      7  N   UNL     1      15.074  22.939   5.559  0.00  0.00    -0.223 NA
ATOM      8  C   UNL     1      15.946  23.564   6.431  0.00  0.00    +0.220 A 
ATOM      9  N   UNL     1      15.641  23.747   7.770  0.00  0.00    -0.283 N 
ATOM     36  H   UNL     1      16.314  24.207   8.383  0.00  0.00    +0.155 HD
ATOM     37  N   UNL     1      17.133  24.023   5.982  0.00  0.00    -0.214 NA
BRANCH   4   3
ATOM      1  C   UNL     1      20.719  26.126   4.530  0.00  0.00    +0.020 A 
ATOM      2  C   UNL     1      19.422  25.629   4.926  0.00  0.00    +0.013 A 
ATOM      3  C   UNL     1      18.850  24.448   4.292  0.00  0.00    +0.019 A 
ATOM     38  C   UNL     1      19.624  23.787   3.252  0.00  0.00    +0.120 A 
ATOM     39  N   UNL     1      20.870  24.288   2.890  0.00  0.00    -0.263 NA
ATOM     40  C   UNL     1      21.430  25.425   3.493  0.00  0.00    +0.111 A 
ENDBRANCH   4   3
ENDBRANCH  10   9
BRANCH  12  13
ATOM     13  N   UNL     1      10.799  24.556   8.579  0.00  0.00    -0.281 N 
ATOM     14  C   UNL     1      10.651  25.900   8.881  0.00  0.00    +0.248 C 
ATOM     30  O   UNL     1      11.473  26.564   9.496  0.00  0.00    -0.270 OA
ATOM     31  H   UNL     1       9.963  24.079   8.239  0.00  0.00    +0.155 HD
BRANCH  14  15
ATOM     15  C   UNL     1       9.405  26.604   8.452  0.00  0.00    +0.037 A 
ATOM     16  C   UNL     1       9.329  28.067   8.428  0.00  0.00    +0.013 A 
ATOM     17  C   UNL     1       8.109  28.721   8.026  0.00  0.00    +0.005 A 
ATOM     18  C   UNL     1       6.955  27.912   7.642  0.00  0.00    -0.033 A 
ATOM     28  C   UNL     1       7.060  26.462   7.670  0.00  0.00    +0.005 A 
ATOM     29  C   UNL     1       8.254  25.818   8.065  0.00  0.00    +0.013 A 
BRANCH  18  19
ATOM     19  C   UNL     1       5.607  28.525   7.220  0.00  0.00    +0.119 C 
BRANCH  19  20
ATOM     20  N   UNL     1       4.372  27.749   7.542  0.00  0.00    -0.302 NA
ATOM     21  C   UNL     1       3.843  26.981   6.327  0.00  0.00    +0.066 C 
ATOM     22  C   UNL     1       2.564  26.157   6.687  0.00  0.00    -0.064 C 
ATOM     23  N   UNL     1       1.494  27.098   7.241  0.00  0.00    +0.379 N 
ATOM     24  C   UNL     1       0.270  26.335   7.526  0.00  0.00    -0.096 C 
ATOM     25  H   UNL     1       1.252  27.841   6.445  0.00  0.00    -0.082 HD
ATOM     26  C   UNL     1       2.012  27.868   8.447  0.00  0.00    -0.064 C 
ATOM     27  C   UNL     1       3.300  28.660   8.086  0.00  0.00    +0.066 C 
ENDBRANCH  19  20
ENDBRANCH  18  19
ENDBRANCH  14  15
ENDBRANCH  12  13
TORSDOF 6
ENDMDL
MODEL 4
REMARK VINA RESULT:      -8.0      6.605      8.706
REMARK  Name = C:\Users\Docking\Desktop\test protocol\1iep_ligandH.pdb
REMARK  8 active torsions:
REMARK  status: ('A' for Active; 'I' for Inactive)
REMARK    1  A    between atoms: _5  and  _11
REMARK    2  A    between atoms: _19  and  _21
REMARK    3  A    between atoms: _22  and  _66
REMARK    4  A    between atoms: _27  and  _30
REMARK    5  A    between atoms: _32  and  _33
REMARK    6  A    between atoms: _38  and  _43
REMARK    7  A    between atoms: _43  and  _46
REMARK    8  A    between atoms: _53  and  _55
REMARK                            x       y       z     vdW  Elec       q    Type
REMARK                         _______ _______ _______ _____ _____    ______ ____
ROOT
ATOM     10  C   UNL     1      15.574  21.286   7.808  0.00  0.00    +0.038 A 
ATOM     11  C   UNL     1      16.692  21.451   8.664  0.00  0.00    +0.047 A 
ATOM     12  C   UNL     1      17.710  20.418   8.779  0.00  0.00    +0.035 A 
ATOM     32  C   UNL     1      17.558  19.230   8.006  0.00  0.00    +0.024 A 
ATOM     33  C   UNL     1      16.426  19.046   7.131  0.00  0.00    +0.007 A 
ATOM     34  C   UNL     1      15.418  20.061   7.015  0.00  0.00    -0.029 A 
ATOM     35  C   UNL     1      14.223  19.807   6.067  0.00  0.00    +0.045 C 
ENDROOT
BRANCH  10   9
ATOM      4  C   UNL     1      11.703  23.596   9.457  0.00  0.00    +0.077 A 
ATOM      5  C   UNL     1      11.537  22.668  10.539  0.00  0.00    +0.048 A 
ATOM      6  C   UNL     1      12.465  21.606  10.631  0.00  0.00    +0.116 A 
ATOM      7  N   UNL     1      13.479  21.491   9.705  0.00  0.00    -0.223 NA
ATOM      8  C   UNL     1      13.610  22.402   8.673  0.00  0.00    +0.220 A 
ATOM      9  N   UNL     1      14.627  22.310   7.736  0.00  0.00    -0.283 N 
ATOM     36  H   UNL     1      14.684  22.998   6.985  0.00  0.00    +0.155 HD
ATOM     37  N   UNL     1      12.735  23.424   8.563  0.00  0.00    -0.214 NA
BRANCH   4   3
ATOM      1  C   UNL     1      10.375  27.248   9.008  0.00  0.00    +0.020 A 
ATOM      2  C   UNL     1      11.284  26.148   9.236  0.00  0.00    +0.013 A 
ATOM      3  C   UNL     1      10.805  24.771   9.228  0.00  0.00    +0.019 A 
ATOM     38  C   UNL     1       9.389  24.540   8.985  0.00  0.00    +0.120 A 
ATOM     39  N   UNL     1       8.537  25.619   8.770  0.00  0.00    -0.263 NA
ATOM     40  C   UNL     1       8.987  26.948   8.777  0.00  0.00    +0.111 A 
ENDBRANCH   4   3
ENDBRANCH  10   9
BRANCH  12  13
ATOM     13  N   UNL     1      18.863  20.525   9.638  0.00  0.00    -0.281 N 
ATOM     14  C   UNL     1      20.125  20.995   9.314  0.00  0.00    +0.248 C 
ATOM     30  O   UNL     1      20.516  21.196   8.174  0.00  0.00    -0.270 OA
ATOM     31  H   UNL     1      18.733  20.218  10.602  0.00  0.00    +0.155 HD
BRANCH  14  15
ATOM     15  C   UNL     1      21.099  21.267  10.415  0.00  0.00    +0.037 A 
ATOM     16  C   UNL     1      21.230  20.358  11.556  0.00  0.00    +0.013 A 
ATOM     17  C   UNL     1      22.165  20.653  12.612  0.00  0.00    +0.005 A 
ATOM     18  C   UNL     1      22.978  21.864  12.532  0.00  0.00    -0.033 A 
ATOM     28  C   UNL     1      22.832  22.746  11.386  0.00  0.00    +0.005 A 
ATOM     29  C   UNL     1      21.916  22.461  10.349  0.00  0.00    +0.013 A 
BRANCH  18  19
ATOM     19  C   UNL     1      23.986  22.269  13.624  0.00  0.00    +0.119 C 
BRANCH  19  20
ATOM     20  N   UNL     1      23.431  22.683  14.947  0.00  0.00    -0.302 NA
ATOM     21  C   UNL     1      22.707  24.030  14.870  0.00  0.00    +0.066 C 
ATOM     22  C   UNL     1      22.113  24.437  16.258  0.00  0.00    -0.064 C 
ATOM     23  N   UNL     1      23.236  24.484  17.296  0.00  0.00    +0.379 N 
ATOM     24  C   UNL     1      22.691  24.923  18.588  0.00  0.00    -0.096 C 
ATOM     25  H   UNL     1      23.973  25.251  16.961  0.00  0.00    -0.082 HD
ATOM     26  C   UNL     1      23.963  23.149  17.377  0.00  0.00    -0.064 C 
ATOM     27  C   UNL     1      24.524  22.740  15.986  0.00  0.00    +0.066 C 
ENDBRANCH  19  20
ENDBRANCH  18  19
ENDBRANCH  14  15
ENDBRANCH  12  13
TORSDOF 6
ENDMDL
MODEL 5
REMARK VINA RESULT:      -7.9      1.488      1.842
REMARK  Name = C:\Users\Docking\Desktop\test protocol\1iep_ligandH.pdb
REMARK  8 active torsions:
REMARK  status: ('A' for Active; 'I' for Inactive)
REMARK    1  A    between atoms: _5  and  _11
REMARK    2  A    between atoms: _19  and  _21
REMARK    3  A    between atoms: _22  and  _66
REMARK    4  A    between atoms: _27  and  _30
REMARK    5  A    between atoms: _32  and  _33
REMARK    6  A    between atoms: _38  and  _43
REMARK    7  A    between atoms: _43  and  _46
REMARK    8  A    between atoms: _53  and  _55
REMARK                            x       y       z     vdW  Elec       q    Type
REMARK                         _______ _______ _______ _____ _____    ______ ____
ROOT
ATOM     10  C   UNL     1      10.629  23.270   8.887  0.00  0.00    +0.038 A 
ATOM     11  C   UNL     1      11.869  23.562   8.264  0.00  0.00    +0.047 A 
ATOM     12  C   UNL     1      13.105  22.949   8.724  0.00  0.00    +0.035 A 
ATOM     32  C   UNL     1      13.041  22.040   9.820  0.00  0.00    +0.024 A 
ATOM     33  C   UNL     1      11.789  21.732  10.465  0.00  0.00    +0.007 A 
ATOM     34  C   UNL     1      10.567  22.336  10.017  0.00  0.00    -0.029 A 
ATOM     35  C   UNL     1       9.255  21.974  10.751  0.00  0.00    +0.045 C 
ENDROOT
BRANCH  10   9
ATOM      4  C   UNL     1       7.850  27.128   8.230  0.00  0.00    +0.077 A 
ATOM      5  C   UNL     1       8.766  27.981   8.931  0.00  0.00    +0.048 A 
ATOM      6  C   UNL     1       9.938  27.386   9.452  0.00  0.00    +0.116 A 
ATOM      7  N   UNL     1      10.165  26.038   9.278  0.00  0.00    -0.223 NA
ATOM      8  C   UNL     1       9.260  25.244   8.598  0.00  0.00    +0.220 A 
ATOM      9  N   UNL     1       9.473  23.887   8.404  0.00  0.00    -0.283 N 
ATOM     36  H   UNL     1       8.777  23.334   7.904  0.00  0.00    +0.155 HD
ATOM     37  N   UNL     1       8.134  25.787   8.093  0.00  0.00    -0.214 NA
BRANCH   4   3
ATOM      1  C   UNL     1       4.389  27.231   6.410  0.00  0.00    +0.020 A 
ATOM      2  C   UNL     1       5.611  26.715   6.984  0.00  0.00    +0.013 A 
ATOM      3  C   UNL     1       6.570  27.609   7.620  0.00  0.00    +0.019 A 
ATOM     38  C   UNL     1       6.261  29.030   7.659  0.00  0.00    +0.120 A 
ATOM     39  N   UNL     1       5.078  29.499   7.097  0.00  0.00    -0.263 NA
ATOM     40  C   UNL     1       4.147  28.648   6.481  0.00  0.00    +0.111 A 
ENDBRANCH   4   3
ENDBRANCH  10   9
BRANCH  12  13
ATOM     13  N   UNL     1      14.395  23.214   8.136  0.00  0.00    -0.281 N 
ATOM     14  C   UNL     1      15.634  22.768   8.566  0.00  0.00    +0.248 C 
ATOM     30  O   UNL     1      15.843  22.246   9.651  0.00  0.00    -0.270 OA
ATOM     31  H   UNL     1      14.394  23.801   7.302  0.00  0.00    +0.155 HD
BRANCH  14  15
ATOM     15  C   UNL     1      16.815  22.940   7.666  0.00  0.00    +0.037 A 
ATOM     16  C   UNL     1      16.795  23.902   6.561  0.00  0.00    +0.013 A 
ATOM     17  C   UNL     1      17.941  24.036   5.697  0.00  0.00    +0.005 A 
ATOM     18  C   UNL     1      19.119  23.206   5.937  0.00  0.00    -0.033 A 
ATOM     28  C   UNL     1      19.115  22.264   7.044  0.00  0.00    +0.005 A 
ATOM     29  C   UNL     1      17.992  22.129   7.892  0.00  0.00    +0.013 A 
BRANCH  18  19
ATOM     19  C   UNL     1      20.379  23.266   5.053  0.00  0.00    +0.119 C 
BRANCH  19  20
ATOM     20  N   UNL     1      20.379  24.249   3.929  0.00  0.00    -0.302 NA
ATOM     21  C   UNL     1      20.932  23.643   2.636  0.00  0.00    +0.066 C 
ATOM     22  C   UNL     1      20.904  24.677   1.464  0.00  0.00    -0.064 C 
ATOM     23  N   UNL     1      21.701  25.920   1.865  0.00  0.00    +0.379 N 
ATOM     24  C   UNL     1      21.725  26.870   0.743  0.00  0.00    -0.096 C 
ATOM     25  H   UNL     1      22.751  25.599   2.059  0.00  0.00    -0.082 HD
ATOM     26  C   UNL     1      21.159  26.527   3.151  0.00  0.00    -0.064 C 
ATOM     27  C   UNL     1      21.164  25.482   4.301  0.00  0.00    +0.066 C 
ENDBRANCH  19  20
ENDBRANCH  18  19
ENDBRANCH  14  15
ENDBRANCH  12  13
TORSDOF 6
ENDMDL
