MODEL 1
REMARK VINA RESULT:      -9.1      0.000      0.000
REMARK  Name = C:\Users\Docking\Desktop\test protocol\1iep_ligandH.pdb
REMARK  8 active torsions:
REMARK  status: ('A' for Active; 'I' for Inactive)
REMARK    1  A    between atoms: _5  and  _11
REMARK    2  A    between atoms: _19  and  _21
REMARK    3  A    between atoms: _22  and  _66
REMARK    4  A    between atoms: _27  and  _30
REMARK    5  A    between atoms: _32  and  _33
REMARK    6  A    between atoms: _38  and  _43
REMARK    7  A    between atoms: _43  and  _46
REMARK    8  A    between atoms: _53  and  _55
REMARK                            x       y       z     vdW  Elec       q    Type
REMARK                         _______ _______ _______ _____ _____    ______ ____
ROOT
ATOM     10  C   UNL     1      12.447 -17.281  11.836  0.00  0.00    +0.038 A 
ATOM     11  C   UNL     1      13.084 -16.635  10.745  0.00  0.00    +0.047 A 
ATOM     12  C   UNL     1      14.534 -16.532  10.675  0.00  0.00    +0.035 A 
ATOM     32  C   UNL     1      15.304 -17.099  11.731  0.00  0.00    +0.024 A 
ATOM     33  C   UNL     1      14.673 -17.758  12.848  0.00  0.00    +0.007 A 
ATOM     34  C   UNL     1      13.243 -17.861  12.924  0.00  0.00    -0.029 A 
ATOM     35  C   UNL     1      12.621 -18.572  14.148  0.00  0.00    +0.045 C 
ENDROOT
BRANCH  10   9
ATOM      4  C   UNL     1       8.112 -15.267  12.269  0.00  0.00    +0.077 A 
ATOM      5  C   UNL     1       8.674 -13.969  12.508  0.00  0.00    +0.048 A 
ATOM      6  C   UNL     1      10.082 -13.863  12.519  0.00  0.00    +0.116 A 
ATOM      7  N   UNL     1      10.862 -14.979  12.305  0.00  0.00    -0.223 NA
ATOM      8  C   UNL     1      10.288 -16.217  12.078  0.00  0.00    +0.220 A 
ATOM      9  N   UNL     1      11.052 -17.351  11.853  0.00  0.00    -0.283 N 
ATOM     36  H   UNL     1      10.591 -18.247  11.697  0.00  0.00    +0.155 HD
ATOM     37  N   UNL     1       8.945 -16.344  12.064  0.00  0.00    -0.214 NA
BRANCH   4   3
ATOM      1  C   UNL     1       4.257 -14.872  11.735  0.00  0.00    +0.020 A 
ATOM      2  C   UNL     1       5.667 -14.558  11.758  0.00  0.00    +0.013 A 
ATOM      3  C   UNL     1       6.640 -15.539  12.224  0.00  0.00    +0.019 A 
ATOM     38  C   UNL     1       6.150 -16.837  12.660  0.00  0.00    +0.120 A 
ATOM     39  N   UNL     1       4.786 -17.110  12.627  0.00  0.00    -0.263 NA
ATOM     40  C   UNL     1       3.840 -16.174  12.183  0.00  0.00    +0.111 A 
ENDBRANCH   4   3
ENDBRANCH  10   9
BRANCH  12  13
ATOM     13  N   UNL     1      15.236 -15.881   9.596  0.00  0.00    -0.281 N 
ATOM     14  C   UNL     1      16.603 -15.827   9.381  0.00  0.00    +0.248 C 
ATOM     30  O   UNL     1      17.446 -16.151  10.205  0.00  0.00    -0.270 OA
ATOM     31  H   UNL     1      14.655 -15.402   8.908  0.00  0.00    +0.155 HD
BRANCH  14  15
ATOM     15  C   UNL     1      17.108 -15.327   8.066  0.00  0.00    +0.037 A 
ATOM     16  C   UNL     1      18.085 -16.091   7.286  0.00  0.00    +0.013 A 
ATOM     17  C   UNL     1      18.568 -15.578   6.029  0.00  0.00    +0.005 A 
ATOM     18  C   UNL     1      18.073 -14.292   5.543  0.00  0.00    -0.033 A 
ATOM     28  C   UNL     1      17.100 -13.557   6.334  0.00  0.00    +0.005 A 
ATOM     29  C   UNL     1      16.625 -14.057   7.567  0.00  0.00    +0.013 A 
BRANCH  18  19
ATOM     19  C   UNL     1      18.549 -13.658   4.222  0.00  0.00    +0.119 C 
BRANCH  19  20
ATOM     20  N   UNL     1      18.847 -12.195   4.235  0.00  0.00    -0.302 NA
ATOM     21  C   UNL     1      18.257 -11.478   3.017  0.00  0.00    +0.066 C 
ATOM     22  C   UNL     1      18.558  -9.944   3.058  0.00  0.00    -0.064 C 
ATOM     23  N   UNL     1      20.071  -9.727   3.135  0.00  0.00    +0.379 N 
ATOM     24  C   UNL     1      20.361  -8.285   3.115  0.00  0.00    -0.096 C 
ATOM     25  H   UNL     1      20.523 -10.176   2.220  0.00  0.00    -0.082 HD
ATOM     26  C   UNL     1      20.666 -10.439   4.341  0.00  0.00    -0.064 C 
ATOM     27  C   UNL     1      20.335 -11.957   4.306  0.00  0.00    +0.066 C 
ENDBRANCH  19  20
ENDBRANCH  18  19
ENDBRANCH  14  15
ENDBRANCH  12  13
TORSDOF 6
ENDMDL
MODEL 2
REMARK VINA RESULT:      -8.9      6.868     10.590
REMARK  Name = C:\Users\Docking\Desktop\test protocol\1iep_ligandH.pdb
REMARK  8 active torsions:
REMARK  status: ('A' for Active; 'I' for Inactive)
REMARK    1  A    between atoms: _5  and  _11
REMARK    2  A    between atoms: _19  and  _21
REMARK    3  A    between atoms: _22  and  _66
REMARK    4  A    between atoms: _27  and  _30
REMARK    5  A    between atoms: _32  and  _33
REMARK    6  A    between atoms: _38  and  _43
REMARK    7  A    between atoms: _43  and  _46
REMARK    8  A    between atoms: _53  and  _55
REMARK                            x       y       z     vdW  Elec       q    Type
REMARK                         _______ _______ _______ _____ _____    ______ ____
ROOT
ATOM     10  C   UNL     1       5.160 -12.521  12.606  0.00  0.00    +0.038 A 
ATOM     11  C   UNL     1       6.419 -13.175  12.636  0.00  0.00    +0.047 A 
ATOM     12  C   UNL     1       6.562 -14.552  12.191  0.00  0.00    +0.035 A 
ATOM     32  C   UNL     1       5.402 -15.234  11.720  0.00  0.00    +0.024 A 
ATOM     33  C   UNL     1       4.115 -14.585  11.685  0.00  0.00    +0.007 A 
ATOM     34  C   UNL     1       3.967 -13.227  12.124  0.00  0.00    -0.029 A 
ATOM     35  C   UNL     1       2.562 -12.584  12.070  0.00  0.00    +0.045 C 
ENDROOT
BRANCH  10   9
ATOM      4  C   UNL     1       5.733  -9.130  15.954  0.00  0.00    +0.077 A 
ATOM      5  C   UNL     1       6.206 -10.079  16.920  0.00  0.00    +0.048 A 
ATOM      6  C   UNL     1       6.280 -11.432  16.517  0.00  0.00    +0.116 A 
ATOM      7  N   UNL     1       5.907 -11.796  15.242  0.00  0.00    -0.223 NA
ATOM      8  C   UNL     1       5.453 -10.855  14.336  0.00  0.00    +0.220 A 
ATOM      9  N   UNL     1       5.080 -11.198  13.045  0.00  0.00    -0.283 N 
ATOM     36  H   UNL     1       4.744 -10.475  12.409  0.00  0.00    +0.155 HD
ATOM     37  N   UNL     1       5.372  -9.557  14.696  0.00  0.00    -0.214 NA
BRANCH   4   3
ATOM      1  C   UNL     1       4.255  -5.608  16.798  0.00  0.00    +0.020 A 
ATOM      2  C   UNL     1       4.327  -7.028  16.541  0.00  0.00    +0.013 A 
ATOM      3  C   UNL     1       5.601  -7.664  16.228  0.00  0.00    +0.019 A 
ATOM     38  C   UNL     1       6.792  -6.828  16.184  0.00  0.00    +0.120 A 
ATOM     39  N   UNL     1       6.691  -5.464  16.434  0.00  0.00    -0.263 NA
ATOM     40  C   UNL     1       5.471  -4.840  16.734  0.00  0.00    +0.111 A 
ENDBRANCH   4   3
ENDBRANCH  10   9
BRANCH  12  13
ATOM     13  N   UNL     1       7.812 -15.270  12.205  0.00  0.00    -0.281 N 
ATOM     14  C   UNL     1       8.901 -15.100  11.366  0.00  0.00    +0.248 C 
ATOM     30  O   UNL     1       8.883 -14.446  10.334  0.00  0.00    -0.270 OA
ATOM     31  H   UNL     1       7.906 -15.991  12.921  0.00  0.00    +0.155 HD
BRANCH  14  15
ATOM     15  C   UNL     1      10.194 -15.764  11.717  0.00  0.00    +0.037 A 
ATOM     16  C   UNL     1      10.630 -15.890  13.110  0.00  0.00    +0.013 A 
ATOM     17  C   UNL     1      11.889 -16.520  13.420  0.00  0.00    +0.005 A 
ATOM     18  C   UNL     1      12.721 -17.030  12.332  0.00  0.00    -0.033 A 
ATOM     28  C   UNL     1      12.261 -16.897  10.960  0.00  0.00    +0.005 A 
ATOM     29  C   UNL     1      11.028 -16.279  10.653  0.00  0.00    +0.013 A 
BRANCH  18  19
ATOM     19  C   UNL     1      14.088 -17.698  12.568  0.00  0.00    +0.119 C 
BRANCH  19  20
ATOM     20  N   UNL     1      14.313 -18.346  13.895  0.00  0.00    -0.302 NA
ATOM     21  C   UNL     1      15.414 -17.647  14.697  0.00  0.00    +0.066 C 
ATOM     22  C   UNL     1      15.620 -18.324  16.091  0.00  0.00    -0.064 C 
ATOM     23  N   UNL     1      15.952 -19.804  15.892  0.00  0.00    +0.379 N 
ATOM     24  C   UNL     1      16.204 -20.431  17.198  0.00  0.00    -0.096 C 
ATOM     25  H   UNL     1      16.896 -19.862  15.301  0.00  0.00    -0.082 HD
ATOM     26  C   UNL     1      14.864 -20.507  15.092  0.00  0.00    -0.064 C 
ATOM     27  C   UNL     1      14.647 -19.808  13.721  0.00  0.00    +0.066 C 
ENDBRANCH  19  20
ENDBRANCH  18  19
ENDBRANCH  14  15
ENDBRANCH  12  13
TORSDOF 6
ENDMDL
MODEL 3
REMARK VINA RESULT:      -8.4      6.501     10.261
REMARK  Name = C:\Users\Docking\Desktop\test protocol\1iep_ligandH.pdb
REMARK  8 active torsions:
REMARK  status: ('A' for Active; 'I' for Inactive)
REMARK    1  A    between atoms: _5  and  _11
REMARK    2  A    between atoms: _19  and  _21
REMARK    3  A    between atoms: _22  and  _66
REMARK    4  A    between atoms: _27  and  _30
REMARK    5  A    between atoms: _32  and  _33
REMARK    6  A    between atoms: _38  and  _43
REMARK    7  A    between atoms: _43  and  _46
REMARK    8  A    between atoms: _53  and  _55
REMARK                            x       y       z     vdW  Elec       q    Type
REMARK                         _______ _______ _______ _____ _____    ______ ____
ROOT
ATOM     10  C   UNL     1       3.868 -16.659  13.194  0.00  0.00    +0.038 A 
ATOM     11  C   UNL     1       5.264 -16.799  12.984  0.00  0.00    +0.047 A 
ATOM     12  C   UNL     1       6.020 -15.791  12.257  0.00  0.00    +0.035 A 
ATOM     32  C   UNL     1       5.323 -14.650  11.762  0.00  0.00    +0.024 A 
ATOM     33  C   UNL     1       3.905 -14.492  11.966  0.00  0.00    +0.007 A 
ATOM     34  C   UNL     1       3.153 -15.485  12.679  0.00  0.00    -0.029 A 
ATOM     35  C   UNL     1       1.633 -15.267  12.863  0.00  0.00    +0.045 C 
ENDROOT
BRANCH  10   9
ATOM      4  C   UNL     1       0.933 -20.451  13.392  0.00  0.00    +0.077 A 
ATOM      5  C   UNL     1       0.707 -20.425  11.975  0.00  0.00    +0.048 A 
ATOM      6  C   UNL     1       1.360 -19.415  11.233  0.00  0.00    +0.116 A 
ATOM      7  N   UNL     1       2.175 -18.505  11.870  0.00  0.00    -0.223 NA
ATOM      8  C   UNL     1       2.370 -18.557  13.238  0.00  0.00    +0.220 A 
ATOM      9  N   UNL     1       3.192 -17.657  13.899  0.00  0.00    -0.283 N 
ATOM     36  H   UNL     1       3.304 -17.725  14.910  0.00  0.00    +0.155 HD
ATOM     37  N   UNL     1       1.757 -19.511  13.969  0.00  0.00    -0.214 NA
BRANCH   4   3
ATOM      1  C   UNL     1       0.030 -22.543  16.571  0.00  0.00    +0.020 A 
ATOM      2  C   UNL     1       0.655 -21.552  15.726  0.00  0.00    +0.013 A 
ATOM      3  C   UNL     1       0.317 -21.460  14.311  0.00  0.00    +0.019 A 
ATOM     38  C   UNL     1      -0.664 -22.393  13.778  0.00  0.00    +0.120 A 
ATOM     39  N   UNL     1      -1.248 -23.338  14.616  0.00  0.00    -0.263 NA
ATOM     40  C   UNL     1      -0.929 -23.438  15.979  0.00  0.00    +0.111 A 
ENDBRANCH   4   3
ENDBRANCH  10   9
BRANCH  12  13
ATOM     13  N   UNL     1       7.437 -15.883  12.006  0.00  0.00    -0.281 N 
ATOM     14  C   UNL     1       8.472 -15.352  12.758  0.00  0.00    +0.248 C 
ATOM     30  O   UNL     1       8.326 -14.532  13.652  0.00  0.00    -0.270 OA
ATOM     31  H   UNL     1       7.710 -16.402  11.171  0.00  0.00    +0.155 HD
BRANCH  14  15
ATOM     15  C   UNL     1       9.872 -15.785  12.467  0.00  0.00    +0.037 A 
ATOM     16  C   UNL     1      10.314 -16.057  11.096  0.00  0.00    +0.013 A 
ATOM     17  C   UNL     1      11.666 -16.490  10.844  0.00  0.00    +0.005 A 
ATOM     18  C   UNL     1      12.587 -16.652  11.967  0.00  0.00    -0.033 A 
ATOM     28  C   UNL     1      12.124 -16.370  13.316  0.00  0.00    +0.005 A 
ATOM     29  C   UNL     1      10.799 -15.947  13.567  0.00  0.00    +0.013 A 
BRANCH  18  19
ATOM     19  C   UNL     1      14.041 -17.130  11.793  0.00  0.00    +0.119 C 
BRANCH  19  20
ATOM     20  N   UNL     1      14.814 -17.432  13.035  0.00  0.00    -0.302 NA
ATOM     21  C   UNL     1      16.302 -17.109  12.878  0.00  0.00    +0.066 C 
ATOM     22  C   UNL     1      17.092 -17.410  14.193  0.00  0.00    -0.064 C 
ATOM     23  N   UNL     1      16.894 -18.877  14.579  0.00  0.00    +0.379 N 
ATOM     24  C   UNL     1      17.682 -19.177  15.783  0.00  0.00    -0.096 C 
ATOM     25  H   UNL     1      17.295 -19.502  13.747  0.00  0.00    -0.082 HD
ATOM     26  C   UNL     1      15.417 -19.207  14.735  0.00  0.00    -0.064 C 
ATOM     27  C   UNL     1      14.636 -18.877  13.432  0.00  0.00    +0.066 C 
ENDBRANCH  19  20
ENDBRANCH  18  19
ENDBRANCH  14  15
ENDBRANCH  12  13
TORSDOF 6
ENDMDL
MODEL 4
REMARK VINA RESULT:      -8.3      8.190     15.890
REMARK  Name = C:\Users\Docking\Desktop\test protocol\1iep_ligandH.pdb
REMARK  8 active torsions:
REMARK  status: ('A' for Active; 'I' for Inactive)
REMARK    1  A    between atoms: _5  and  _11
REMARK    2  A    between atoms: _19  and  _21
REMARK    3  A    between atoms: _22  and  _66
REMARK    4  A    between atoms: _27  and  _30
REMARK    5  A    between atoms: _32  and  _33
REMARK    6  A    between atoms: _38  and  _43
REMARK    7  A    between atoms: _43  and  _46
REMARK    8  A    between atoms: _53  and  _55
REMARK                            x       y       z     vdW  Elec       q    Type
REMARK                         _______ _______ _______ _____ _____    ______ ____
ROOT
ATOM     10  C   UNL     1       6.187 -15.063  13.546  0.00  0.00    +0.038 A 
ATOM     11  C   UNL     1       5.498 -16.288  13.737  0.00  0.00    +0.047 A 
ATOM     12  C   UNL     1       4.267 -16.580  13.019  0.00  0.00    +0.035 A 
ATOM     32  C   UNL     1       3.768 -15.602  12.110  0.00  0.00    +0.024 A 
ATOM     33  C   UNL     1       4.454 -14.351  11.904  0.00  0.00    +0.007 A 
ATOM     34  C   UNL     1       5.667 -14.056  12.613  0.00  0.00    -0.029 A 
ATOM     35  C   UNL     1       6.358 -12.696  12.357  0.00  0.00    +0.045 C 
ENDROOT
BRANCH  10   9
ATOM      4  C   UNL     1      10.945 -15.392  14.083  0.00  0.00    +0.077 A 
ATOM      5  C   UNL     1      11.095 -16.101  12.845  0.00  0.00    +0.048 A 
ATOM      6  C   UNL     1       9.922 -16.368  12.104  0.00  0.00    +0.116 A 
ATOM      7  N   UNL     1       8.696 -15.951  12.574  0.00  0.00    -0.223 NA
ATOM      8  C   UNL     1       8.586 -15.271  13.773  0.00  0.00    +0.220 A 
ATOM      9  N   UNL     1       7.364 -14.836  14.262  0.00  0.00    -0.283 N 
ATOM     36  H   UNL     1       7.324 -14.344  15.155  0.00  0.00    +0.155 HD
ATOM     37  N   UNL     1       9.691 -15.006  14.501  0.00  0.00    -0.214 NA
BRANCH   4   3
ATOM      1  C   UNL     1      13.381 -13.412  16.416  0.00  0.00    +0.020 A 
ATOM      2  C   UNL     1      12.257 -13.707  15.558  0.00  0.00    +0.013 A 
ATOM      3  C   UNL     1      12.090 -15.033  14.978  0.00  0.00    +0.019 A 
ATOM     38  C   UNL     1      13.086 -16.048  15.290  0.00  0.00    +0.120 A 
ATOM     39  N   UNL     1      14.159 -15.734  16.118  0.00  0.00    -0.263 NA
ATOM     40  C   UNL     1      14.331 -14.461  16.681  0.00  0.00    +0.111 A 
ENDBRANCH   4   3
ENDBRANCH  10   9
BRANCH  12  13
ATOM     13  N   UNL     1       3.520 -17.803  13.178  0.00  0.00    -0.281 N 
ATOM     14  C   UNL     1       2.146 -17.973  13.135  0.00  0.00    +0.248 C 
ATOM     30  O   UNL     1       1.335 -17.059  13.165  0.00  0.00    -0.270 OA
ATOM     31  H   UNL     1       4.072 -18.645  13.342  0.00  0.00    +0.155 HD
BRANCH  14  15
ATOM     15  C   UNL     1       1.592 -19.359  13.062  0.00  0.00    +0.037 A 
ATOM     16  C   UNL     1       0.898 -19.838  11.864  0.00  0.00    +0.013 A 
ATOM     17  C   UNL     1       0.358 -21.174  11.826  0.00  0.00    +0.005 A 
ATOM     18  C   UNL     1       0.513 -22.042  12.991  0.00  0.00    -0.033 A 
ATOM     28  C   UNL     1       1.211 -21.544  14.164  0.00  0.00    +0.005 A 
ATOM     29  C   UNL     1       1.740 -20.234  14.205  0.00  0.00    +0.013 A 
BRANCH  18  19
ATOM     19  C   UNL     1      -0.050 -23.475  13.047  0.00  0.00    +0.119 C 
BRANCH  19  20
ATOM     20  N   UNL     1       0.877 -24.556  13.496  0.00  0.00    -0.302 NA
ATOM     21  C   UNL     1       1.054 -25.641  12.430  0.00  0.00    +0.066 C 
ATOM     22  C   UNL     1       2.044 -26.753  12.908  0.00  0.00    -0.064 C 
ATOM     23  N   UNL     1       1.534 -27.358  14.217  0.00  0.00    +0.379 N 
ATOM     24  C   UNL     1       2.432 -28.443  14.639  0.00  0.00    -0.096 C 
ATOM     25  H   UNL     1       0.533 -27.806  14.015  0.00  0.00    -0.082 HD
ATOM     26  C   UNL     1       1.352 -26.285  15.282  0.00  0.00    -0.064 C 
ATOM     27  C   UNL     1       0.390 -25.171  14.785  0.00  0.00    +0.066 C 
ENDBRANCH  19  20
ENDBRANCH  18  19
ENDBRANCH  14  15
ENDBRANCH  12  13
TORSDOF 6
ENDMDL
MODEL 5
REMARK VINA RESULT:      -8.3     12.349     18.130
REMARK  Name = C:\Users\Docking\Desktop\test protocol\1iep_ligandH.pdb
REMARK  8 active torsions:
REMARK  status: ('A' for Active; 'I' for Inactive)
REMARK    1  A    between atoms: _5  and  _11
REMARK    2  A    between atoms: _19  and  _21
REMARK    3  A    between atoms: _22  and  _66
REMARK    4  A    between atoms: _27  and  _30
REMARK    5  A    between atoms: _32  and  _33
REMARK    6  A    between atoms: _38  and  _43
REMARK    7  A    between atoms: _43  and  _46
REMARK    8  A    between atoms: _53  and  _55
REMARK                            x       y       z     vdW  Elec       q    Type
REMARK                         _______ _______ _______ _____ _____    ______ ____
ROOT
ATOM     10  C   UNL     1       2.115 -15.714  12.004  0.00  0.00    +0.038 A 
ATOM     11  C   UNL     1       1.632 -16.948  12.508  0.00  0.00    +0.047 A 
ATOM     12  C   UNL     1       2.471 -17.805  13.331  0.00  0.00    +0.035 A 
ATOM     32  C   UNL     1       3.798 -17.372  13.623  0.00  0.00    +0.024 A 
ATOM     33  C   UNL     1       4.305 -16.121  13.117  0.00  0.00    +0.007 A 
ATOM     34  C   UNL     1       3.483 -15.273  12.303  0.00  0.00    -0.029 A 
ATOM     35  C   UNL     1       4.082 -13.945  11.783  0.00  0.00    +0.045 C 
ENDROOT
BRANCH  10   9
ATOM      4  C   UNL     1      -1.116 -15.187   8.493  0.00  0.00    +0.077 A 
ATOM      5  C   UNL     1      -1.090 -16.587   8.179  0.00  0.00    +0.048 A 
ATOM      6  C   UNL     1      -0.226 -17.407   8.940  0.00  0.00    +0.116 A 
ATOM      7  N   UNL     1       0.549 -16.857   9.938  0.00  0.00    -0.223 NA
ATOM      8  C   UNL     1       0.501 -15.503  10.214  0.00  0.00    +0.220 A 
ATOM      9  N   UNL     1       1.266 -14.931  11.218  0.00  0.00    -0.283 N 
ATOM     36  H   UNL     1       1.208 -13.926  11.386  0.00  0.00    +0.155 HD
ATOM     37  N   UNL     1      -0.314 -14.699   9.501  0.00  0.00    -0.214 NA
BRANCH   4   3
ATOM      1  C   UNL     1      -2.706 -11.836   7.254  0.00  0.00    +0.020 A 
ATOM      2  C   UNL     1      -1.848 -12.753   7.966  0.00  0.00    +0.013 A 
ATOM      3  C   UNL     1      -1.979 -14.193   7.781  0.00  0.00    +0.019 A 
ATOM     38  C   UNL     1      -2.996 -14.675   6.859  0.00  0.00    +0.120 A 
ATOM     39  N   UNL     1      -3.810 -13.768   6.188  0.00  0.00    -0.263 NA
ATOM     40  C   UNL     1      -3.694 -12.380   6.360  0.00  0.00    +0.111 A 
ENDBRANCH   4   3
ENDBRANCH  10   9
BRANCH  12  13
ATOM     13  N   UNL     1       2.038 -19.072  13.865  0.00  0.00    -0.281 N 
ATOM     14  C   UNL     1       1.603 -20.187  13.166  0.00  0.00    +0.248 C 
ATOM     30  O   UNL     1       1.317 -20.189  11.978  0.00  0.00    -0.270 OA
ATOM     31  H   UNL     1       2.054 -19.158  14.881  0.00  0.00    +0.155 HD
BRANCH  14  15
ATOM     15  C   UNL     1       1.451 -21.482  13.896  0.00  0.00    +0.037 A 
ATOM     16  C   UNL     1       1.917 -21.636  15.277  0.00  0.00    +0.013 A 
ATOM     17  C   UNL     1       1.773 -22.902  15.952  0.00  0.00    +0.005 A 
ATOM     18  C   UNL     1       1.158 -24.024  15.246  0.00  0.00    -0.033 A 
ATOM     28  C   UNL     1       0.700 -23.842  13.879  0.00  0.00    +0.005 A 
ATOM     29  C   UNL     1       0.841 -22.603  13.214  0.00  0.00    +0.013 A 
BRANCH  18  19
ATOM     19  C   UNL     1       0.983 -25.416  15.881  0.00  0.00    +0.119 C 
BRANCH  19  20
ATOM     20  N   UNL     1      -0.166 -25.602  16.816  0.00  0.00    -0.302 NA
ATOM     21  C   UNL     1      -0.869 -26.945  16.603  0.00  0.00    +0.066 C 
ATOM     22  C   UNL     1      -2.055 -27.132  17.604  0.00  0.00    -0.064 C 
ATOM     23  N   UNL     1      -3.041 -25.974  17.445  0.00  0.00    +0.379 N 
ATOM     24  C   UNL     1      -4.187 -26.177  18.344  0.00  0.00    -0.096 C 
ATOM     25  H   UNL     1      -3.424 -25.997  16.398  0.00  0.00    -0.082 HD
ATOM     26  C   UNL     1      -2.350 -24.634  17.653  0.00  0.00    -0.064 C 
ATOM     27  C   UNL     1      -1.155 -24.470  16.673  0.00  0.00    +0.066 C 
ENDBRANCH  19  20
ENDBRANCH  18  19
ENDBRANCH  14  15
ENDBRANCH  12  13
TORSDOF 6
ENDMDL
