MODEL 1
REMARK VINA RESULT:      -6.7      0.000      0.000
REMARK  Name = C:\Users\Docking\Desktop\test protocol\1iep_ligandH.pdb
REMARK  8 active torsions:
REMARK  status: ('A' for Active; 'I' for Inactive)
REMARK    1  A    between atoms: _5  and  _11
REMARK    2  A    between atoms: _19  and  _21
REMARK    3  A    between atoms: _22  and  _66
REMARK    4  A    between atoms: _27  and  _30
REMARK    5  A    between atoms: _32  and  _33
REMARK    6  A    between atoms: _38  and  _43
REMARK    7  A    between atoms: _43  and  _46
REMARK    8  A    between atoms: _53  and  _55
REMARK                            x       y       z     vdW  Elec       q    Type
REMARK                         _______ _______ _______ _____ _____    ______ ____
ROOT
ATOM     10  C   UNL     1      17.066  11.030  -8.699  0.00  0.00    +0.038 A 
ATOM     11  C   UNL     1      17.799  11.283  -7.511  0.00  0.00    +0.047 A 
ATOM     12  C   UNL     1      18.871  10.397  -7.085  0.00  0.00    +0.035 A 
ATOM     32  C   UNL     1      19.172   9.263  -7.895  0.00  0.00    +0.024 A 
ATOM     33  C   UNL     1      18.437   8.990  -9.105  0.00  0.00    +0.007 A 
ATOM     34  C   UNL     1      17.376   9.859  -9.528  0.00  0.00    -0.029 A 
ATOM     35  C   UNL     1      16.617   9.514 -10.831  0.00  0.00    +0.045 C 
ENDROOT
BRANCH  10   9
ATOM      4  C   UNL     1      15.468  14.952 -10.957  0.00  0.00    +0.077 A 
ATOM      5  C   UNL     1      16.779  15.283 -11.435  0.00  0.00    +0.048 A 
ATOM      6  C   UNL     1      17.839  14.422 -11.071  0.00  0.00    +0.116 A 
ATOM      7  N   UNL     1      17.594  13.315 -10.288  0.00  0.00    -0.223 NA
ATOM      8  C   UNL     1      16.317  13.026  -9.842  0.00  0.00    +0.220 A 
ATOM      9  N   UNL     1      16.047  11.913  -9.060  0.00  0.00    -0.283 N 
ATOM     36  H   UNL     1      15.093  11.739  -8.745  0.00  0.00    +0.155 HD
ATOM     37  N   UNL     1      15.289  13.833 -10.174  0.00  0.00    -0.214 NA
BRANCH   4   3
ATOM      1  C   UNL     1      11.808  16.333 -10.947  0.00  0.00    +0.020 A 
ATOM      2  C   UNL     1      12.958  15.521 -10.620  0.00  0.00    +0.013 A 
ATOM      3  C   UNL     1      14.246  15.762 -11.259  0.00  0.00    +0.019 A 
ATOM     38  C   UNL     1      14.337  16.841 -12.231  0.00  0.00    +0.120 A 
ATOM     39  N   UNL     1      13.213  17.605 -12.527  0.00  0.00    -0.263 NA
ATOM     40  C   UNL     1      11.968  17.382 -11.920  0.00  0.00    +0.111 A 
ENDBRANCH   4   3
ENDBRANCH  10   9
BRANCH  12  13
ATOM     13  N   UNL     1      19.644  10.598  -5.885  0.00  0.00    -0.281 N 
ATOM     14  C   UNL     1      20.454  11.676  -5.564  0.00  0.00    +0.248 C 
ATOM     30  O   UNL     1      20.806  12.536  -6.358  0.00  0.00    -0.270 OA
ATOM     31  H   UNL     1      19.588   9.856  -5.187  0.00  0.00    +0.155 HD
BRANCH  14  15
ATOM     15  C   UNL     1      20.957  11.809  -4.163  0.00  0.00    +0.037 A 
ATOM     16  C   UNL     1      20.507  12.900  -3.295  0.00  0.00    +0.013 A 
ATOM     17  C   UNL     1      21.022  13.015  -1.953  0.00  0.00    +0.005 A 
ATOM     18  C   UNL     1      21.991  12.035  -1.471  0.00  0.00    -0.033 A 
ATOM     28  C   UNL     1      22.416  10.959  -2.352  0.00  0.00    +0.005 A 
ATOM     29  C   UNL     1      21.915  10.844  -3.668  0.00  0.00    +0.013 A 
BRANCH  18  19
ATOM     19  C   UNL     1      22.609  12.092  -0.061  0.00  0.00    +0.119 C 
BRANCH  19  20
ATOM     20  N   UNL     1      22.413  10.902   0.820  0.00  0.00    -0.302 NA
ATOM     21  C   UNL     1      21.613  11.246   2.079  0.00  0.00    +0.066 C 
ATOM     22  C   UNL     1      21.399   9.985   2.979  0.00  0.00    -0.064 C 
ATOM     23  N   UNL     1      22.758   9.387   3.347  0.00  0.00    +0.379 N 
ATOM     24  C   UNL     1      22.562   8.236   4.240  0.00  0.00    -0.096 C 
ATOM     25  H   UNL     1      23.325  10.162   3.913  0.00  0.00    -0.082 HD
ATOM     26  C   UNL     1      23.561   9.046   2.100  0.00  0.00    -0.064 C 
ATOM     27  C   UNL     1      23.743  10.299   1.199  0.00  0.00    +0.066 C 
ENDBRANCH  19  20
ENDBRANCH  18  19
ENDBRANCH  14  15
ENDBRANCH  12  13
TORSDOF 6
ENDMDL
MODEL 2
REMARK VINA RESULT:      -6.6     19.899     25.585
REMARK  Name = C:\Users\Docking\Desktop\test protocol\1iep_ligandH.pdb
REMARK  8 active torsions:
REMARK  status: ('A' for Active; 'I' for Inactive)
REMARK    1  A    between atoms: _5  and  _11
REMARK    2  A    between atoms: _19  and  _21
REMARK    3  A    between atoms: _22  and  _66
REMARK    4  A    between atoms: _27  and  _30
REMARK    5  A    between atoms: _32  and  _33
REMARK    6  A    between atoms: _38  and  _43
REMARK    7  A    between atoms: _43  and  _46
REMARK    8  A    between atoms: _53  and  _55
REMARK                            x       y       z     vdW  Elec       q    Type
REMARK                         _______ _______ _______ _____ _____    ______ ____
ROOT
ATOM     10  C   UNL     1      30.471  -4.647   7.597  0.00  0.00    +0.038 A 
ATOM     11  C   UNL     1      31.680  -3.906   7.640  0.00  0.00    +0.047 A 
ATOM     12  C   UNL     1      32.727  -4.231   8.596  0.00  0.00    +0.035 A 
ATOM     32  C   UNL     1      32.511  -5.318   9.491  0.00  0.00    +0.024 A 
ATOM     33  C   UNL     1      31.288  -6.081   9.462  0.00  0.00    +0.007 A 
ATOM     34  C   UNL     1      30.251  -5.764   8.523  0.00  0.00    -0.029 A 
ATOM     35  C   UNL     1      28.957  -6.612   8.540  0.00  0.00    +0.045 C 
ENDROOT
BRANCH  10   9
ATOM      4  C   UNL     1      28.547  -4.867   3.205  0.00  0.00    +0.077 A 
ATOM      5  C   UNL     1      29.581  -5.742   2.732  0.00  0.00    +0.048 A 
ATOM      6  C   UNL     1      30.593  -6.106   3.648  0.00  0.00    +0.116 A 
ATOM      7  N   UNL     1      30.563  -5.625   4.939  0.00  0.00    -0.223 NA
ATOM      8  C   UNL     1      29.553  -4.781   5.363  0.00  0.00    +0.220 A 
ATOM      9  N   UNL     1      29.499  -4.292   6.659  0.00  0.00    -0.283 N 
ATOM     36  H   UNL     1      28.742  -3.666   6.930  0.00  0.00    +0.155 HD
ATOM     37  N   UNL     1      28.576  -4.418   4.506  0.00  0.00    -0.214 NA
BRANCH   4   3
ATOM      1  C   UNL     1      24.988  -3.770   2.011  0.00  0.00    +0.020 A 
ATOM      2  C   UNL     1      26.053  -4.229   2.871  0.00  0.00    +0.013 A 
ATOM      3  C   UNL     1      27.407  -4.395   2.357  0.00  0.00    +0.019 A 
ATOM     38  C   UNL     1      27.651  -4.084   0.957  0.00  0.00    +0.120 A 
ATOM     39  N   UNL     1      26.605  -3.645   0.152  0.00  0.00    -0.263 NA
ATOM     40  C   UNL     1      25.298  -3.484   0.635  0.00  0.00    +0.111 A 
ENDBRANCH   4   3
ENDBRANCH  10   9
BRANCH  12  13
ATOM     13  N   UNL     1      33.972  -3.509   8.692  0.00  0.00    -0.281 N 
ATOM     14  C   UNL     1      35.254  -3.991   8.484  0.00  0.00    +0.248 C 
ATOM     30  O   UNL     1      35.541  -5.175   8.390  0.00  0.00    -0.270 OA
ATOM     31  H   UNL     1      33.899  -2.523   8.945  0.00  0.00    +0.155 HD
BRANCH  14  15
ATOM     15  C   UNL     1      36.383  -3.017   8.378  0.00  0.00    +0.037 A 
ATOM     16  C   UNL     1      36.845  -2.259   9.544  0.00  0.00    +0.013 A 
ATOM     17  C   UNL     1      37.925  -1.314   9.410  0.00  0.00    +0.005 A 
ATOM     18  C   UNL     1      38.551  -1.121   8.104  0.00  0.00    -0.033 A 
ATOM     28  C   UNL     1      38.076  -1.890   6.966  0.00  0.00    +0.005 A 
ATOM     29  C   UNL     1      37.018  -2.817   7.092  0.00  0.00    +0.013 A 
BRANCH  18  19
ATOM     19  C   UNL     1      39.695  -0.118   7.865  0.00  0.00    +0.119 C 
BRANCH  19  20
ATOM     20  N   UNL     1      40.165   0.676   9.039  0.00  0.00    -0.302 NA
ATOM     21  C   UNL     1      40.627   2.079   8.635  0.00  0.00    +0.066 C 
ATOM     22  C   UNL     1      41.094   2.904   9.879  0.00  0.00    -0.064 C 
ATOM     23  N   UNL     1      42.214   2.150  10.597  0.00  0.00    +0.379 N 
ATOM     24  C   UNL     1      42.695   2.950  11.732  0.00  0.00    -0.096 C 
ATOM     25  H   UNL     1      43.060   2.038   9.879  0.00  0.00    -0.082 HD
ATOM     26  C   UNL     1      41.764   0.753  10.999  0.00  0.00    -0.064 C 
ATOM     27  C   UNL     1      41.274  -0.048   9.760  0.00  0.00    +0.066 C 
ENDBRANCH  19  20
ENDBRANCH  18  19
ENDBRANCH  14  15
ENDBRANCH  12  13
TORSDOF 6
ENDMDL
MODEL 3
REMARK VINA RESULT:      -6.6     26.755     29.340
REMARK  Name = C:\Users\Docking\Desktop\test protocol\1iep_ligandH.pdb
REMARK  8 active torsions:
REMARK  status: ('A' for Active; 'I' for Inactive)
REMARK    1  A    between atoms: _5  and  _11
REMARK    2  A    between atoms: _19  and  _21
REMARK    3  A    between atoms: _22  and  _66
REMARK    4  A    between atoms: _27  and  _30
REMARK    5  A    between atoms: _32  and  _33
REMARK    6  A    between atoms: _38  and  _43
REMARK    7  A    between atoms: _43  and  _46
REMARK    8  A    between atoms: _53  and  _55
REMARK                            x       y       z     vdW  Elec       q    Type
REMARK                         _______ _______ _______ _____ _____    ______ ____
ROOT
ATOM     10  C   UNL     1      32.336  -4.966   8.598  0.00  0.00    +0.038 A 
ATOM     11  C   UNL     1      33.376  -4.027   8.820  0.00  0.00    +0.047 A 
ATOM     12  C   UNL     1      34.281  -3.640   7.749  0.00  0.00    +0.035 A 
ATOM     32  C   UNL     1      34.097  -4.227   6.463  0.00  0.00    +0.024 A 
ATOM     33  C   UNL     1      33.045  -5.184   6.220  0.00  0.00    +0.007 A 
ATOM     34  C   UNL     1      32.151  -5.571   7.274  0.00  0.00    -0.029 A 
ATOM     35  C   UNL     1      31.046  -6.606   6.958  0.00  0.00    +0.045 C 
ENDROOT
BRANCH  10   9
ATOM      4  C   UNL     1      31.156  -7.705  12.359  0.00  0.00    +0.077 A 
ATOM      5  C   UNL     1      32.295  -8.556  12.171  0.00  0.00    +0.048 A 
ATOM      6  C   UNL     1      33.157  -8.259  11.091  0.00  0.00    +0.116 A 
ATOM      7  N   UNL     1      32.889  -7.188  10.267  0.00  0.00    -0.223 NA
ATOM      8  C   UNL     1      31.780  -6.388  10.474  0.00  0.00    +0.220 A 
ATOM      9  N   UNL     1      31.496  -5.301   9.662  0.00  0.00    -0.283 N 
ATOM     36  H   UNL     1      30.664  -4.740   9.844  0.00  0.00    +0.155 HD
ATOM     37  N   UNL     1      30.941  -6.652  11.498  0.00  0.00    -0.214 NA
BRANCH   4   3
ATOM      1  C   UNL     1      29.474  -7.876  15.886  0.00  0.00    +0.020 A 
ATOM      2  C   UNL     1      30.478  -7.686  14.864  0.00  0.00    +0.013 A 
ATOM      3  C   UNL     1      30.155  -7.888  13.457  0.00  0.00    +0.019 A 
ATOM     38  C   UNL     1      28.797  -8.282  13.115  0.00  0.00    +0.120 A 
ATOM     39  N   UNL     1      27.852  -8.459  14.121  0.00  0.00    -0.263 NA
ATOM     40  C   UNL     1      28.151  -8.270  15.478  0.00  0.00    +0.111 A 
ENDBRANCH   4   3
ENDBRANCH  10   9
BRANCH  12  13
ATOM     13  N   UNL     1      35.360  -2.698   7.916  0.00  0.00    -0.281 N 
ATOM     14  C   UNL     1      36.567  -2.893   8.566  0.00  0.00    +0.248 C 
ATOM     30  O   UNL     1      36.816  -3.846   9.291  0.00  0.00    -0.270 OA
ATOM     31  H   UNL     1      35.216  -1.775   7.506  0.00  0.00    +0.155 HD
BRANCH  14  15
ATOM     15  C   UNL     1      37.650  -1.877   8.399  0.00  0.00    +0.037 A 
ATOM     16  C   UNL     1      38.256  -1.621   7.090  0.00  0.00    +0.013 A 
ATOM     17  C   UNL     1      39.311  -0.647   6.959  0.00  0.00    +0.005 A 
ATOM     18  C   UNL     1      39.765   0.080   8.142  0.00  0.00    -0.033 A 
ATOM     28  C   UNL     1      39.143  -0.190   9.428  0.00  0.00    +0.005 A 
ATOM     29  C   UNL     1      38.110  -1.145   9.560  0.00  0.00    +0.013 A 
BRANCH  18  19
ATOM     19  C   UNL     1      40.899   1.121   8.100  0.00  0.00    +0.119 C 
BRANCH  19  20
ATOM     20  N   UNL     1      41.160   1.899   9.348  0.00  0.00    -0.302 NA
ATOM     21  C   UNL     1      40.934   3.400   9.147  0.00  0.00    +0.066 C 
ATOM     22  C   UNL     1      41.190   4.196  10.469  0.00  0.00    -0.064 C 
ATOM     23  N   UNL     1      42.614   3.923  10.957  0.00  0.00    +0.379 N 
ATOM     24  C   UNL     1      42.877   4.715  12.168  0.00  0.00    -0.096 C 
ATOM     25  H   UNL     1      43.316   4.272  10.165  0.00  0.00    -0.082 HD
ATOM     26  C   UNL     1      42.848   2.432  11.157  0.00  0.00    -0.064 C 
ATOM     27  C   UNL     1      42.562   1.648   9.846  0.00  0.00    +0.066 C 
ENDBRANCH  19  20
ENDBRANCH  18  19
ENDBRANCH  14  15
ENDBRANCH  12  13
TORSDOF 6
ENDMDL
MODEL 4
REMARK VINA RESULT:      -6.4     26.487     29.062
REMARK  Name = C:\Users\Docking\Desktop\test protocol\1iep_ligandH.pdb
REMARK  8 active torsions:
REMARK  status: ('A' for Active; 'I' for Inactive)
REMARK    1  A    between atoms: _5  and  _11
REMARK    2  A    between atoms: _19  and  _21
REMARK    3  A    between atoms: _22  and  _66
REMARK    4  A    between atoms: _27  and  _30
REMARK    5  A    between atoms: _32  and  _33
REMARK    6  A    between atoms: _38  and  _43
REMARK    7  A    between atoms: _43  and  _46
REMARK    8  A    between atoms: _53  and  _55
REMARK                            x       y       z     vdW  Elec       q    Type
REMARK                         _______ _______ _______ _____ _____    ______ ____
ROOT
ATOM     10  C   UNL     1      32.145  -4.870   8.522  0.00  0.00    +0.038 A 
ATOM     11  C   UNL     1      33.227  -3.983   8.755  0.00  0.00    +0.047 A 
ATOM     12  C   UNL     1      34.111  -3.574   7.674  0.00  0.00    +0.035 A 
ATOM     32  C   UNL     1      33.861  -4.085   6.367  0.00  0.00    +0.024 A 
ATOM     33  C   UNL     1      32.766  -4.988   6.113  0.00  0.00    +0.007 A 
ATOM     34  C   UNL     1      31.893  -5.397   7.175  0.00  0.00    -0.029 A 
ATOM     35  C   UNL     1      30.739  -6.373   6.846  0.00  0.00    +0.045 C 
ENDROOT
BRANCH  10   9
ATOM      4  C   UNL     1      31.106  -7.627  12.311  0.00  0.00    +0.077 A 
ATOM      5  C   UNL     1      32.276  -8.435  12.118  0.00  0.00    +0.048 A 
ATOM      6  C   UNL     1      33.115  -8.113  11.028  0.00  0.00    +0.116 A 
ATOM      7  N   UNL     1      32.798  -7.058  10.199  0.00  0.00    -0.223 NA
ATOM      8  C   UNL     1      31.662  -6.300  10.412  0.00  0.00    +0.220 A 
ATOM      9  N   UNL     1      31.328  -5.230   9.596  0.00  0.00    -0.283 N 
ATOM     36  H   UNL     1      30.477  -4.700   9.782  0.00  0.00    +0.155 HD
ATOM     37  N   UNL     1      30.843  -6.588  11.446  0.00  0.00    -0.214 NA
BRANCH   4   3
ATOM      1  C   UNL     1      29.480  -7.888  15.859  0.00  0.00    +0.020 A 
ATOM      2  C   UNL     1      30.467  -7.670  14.827  0.00  0.00    +0.013 A 
ATOM      3  C   UNL     1      30.124  -7.840  13.420  0.00  0.00    +0.019 A 
ATOM     38  C   UNL     1      28.762  -8.234  13.090  0.00  0.00    +0.120 A 
ATOM     39  N   UNL     1      27.834  -8.439  14.106  0.00  0.00    -0.263 NA
ATOM     40  C   UNL     1      28.153  -8.280  15.463  0.00  0.00    +0.111 A 
ENDBRANCH   4   3
ENDBRANCH  10   9
BRANCH  12  13
ATOM     13  N   UNL     1      35.230  -2.682   7.852  0.00  0.00    -0.281 N 
ATOM     14  C   UNL     1      36.402  -2.916   8.554  0.00  0.00    +0.248 C 
ATOM     30  O   UNL     1      36.574  -3.854   9.317  0.00  0.00    -0.270 OA
ATOM     31  H   UNL     1      35.149  -1.768   7.407  0.00  0.00    +0.155 HD
BRANCH  14  15
ATOM     15  C   UNL     1      37.541  -1.962   8.395  0.00  0.00    +0.037 A 
ATOM     16  C   UNL     1      38.196  -1.770   7.098  0.00  0.00    +0.013 A 
ATOM     17  C   UNL     1      39.304  -0.856   6.976  0.00  0.00    +0.005 A 
ATOM     18  C   UNL     1      39.763  -0.125   8.155  0.00  0.00    -0.033 A 
ATOM     28  C   UNL     1      39.091  -0.331   9.428  0.00  0.00    +0.005 A 
ATOM     29  C   UNL     1      38.006  -1.227   9.552  0.00  0.00    +0.013 A 
BRANCH  18  19
ATOM     19  C   UNL     1      40.951   0.854   8.122  0.00  0.00    +0.119 C 
BRANCH  19  20
ATOM     20  N   UNL     1      40.935   1.914   7.070  0.00  0.00    -0.302 NA
ATOM     21  C   UNL     1      41.878   1.586   5.909  0.00  0.00    +0.066 C 
ATOM     22  C   UNL     1      41.831   2.693   4.807  0.00  0.00    -0.064 C 
ATOM     23  N   UNL     1      42.189   4.044   5.430  0.00  0.00    +0.379 N 
ATOM     24  C   UNL     1      42.202   5.078   4.385  0.00  0.00    -0.096 C 
ATOM     25  H   UNL     1      43.222   3.964   5.841  0.00  0.00    -0.082 HD
ATOM     26  C   UNL     1      41.257   4.377   6.587  0.00  0.00    -0.064 C 
ATOM     27  C   UNL     1      41.289   3.256   7.663  0.00  0.00    +0.066 C 
ENDBRANCH  19  20
ENDBRANCH  18  19
ENDBRANCH  14  15
ENDBRANCH  12  13
TORSDOF 6
ENDMDL
MODEL 5
REMARK VINA RESULT:      -6.4     15.888     27.132
REMARK  Name = C:\Users\Docking\Desktop\test protocol\1iep_ligandH.pdb
REMARK  8 active torsions:
REMARK  status: ('A' for Active; 'I' for Inactive)
REMARK    1  A    between atoms: _5  and  _11
REMARK    2  A    between atoms: _19  and  _21
REMARK    3  A    between atoms: _22  and  _66
REMARK    4  A    between atoms: _27  and  _30
REMARK    5  A    between atoms: _32  and  _33
REMARK    6  A    between atoms: _38  and  _43
REMARK    7  A    between atoms: _43  and  _46
REMARK    8  A    between atoms: _53  and  _55
REMARK                            x       y       z     vdW  Elec       q    Type
REMARK                         _______ _______ _______ _____ _____    ______ ____
ROOT
ATOM     10  C   UNL     1      36.729  11.621  13.735  0.00  0.00    +0.038 A 
ATOM     11  C   UNL     1      35.834  11.360  12.666  0.00  0.00    +0.047 A 
ATOM     12  C   UNL     1      34.713  12.245  12.389  0.00  0.00    +0.035 A 
ATOM     32  C   UNL     1      34.536  13.390  13.220  0.00  0.00    +0.024 A 
ATOM     33  C   UNL     1      35.436  13.671  14.311  0.00  0.00    +0.007 A 
ATOM     34  C   UNL     1      36.541  12.799  14.590  0.00  0.00    -0.029 A 
ATOM     35  C   UNL     1      37.470  13.146  15.777  0.00  0.00    +0.045 C 
ENDROOT
BRANCH  10   9
ATOM      4  C   UNL     1      38.750   7.930  16.042  0.00  0.00    +0.077 A 
ATOM      5  C   UNL     1      37.610   7.764  16.898  0.00  0.00    +0.048 A 
ATOM      6  C   UNL     1      36.528   8.655  16.717  0.00  0.00    +0.116 A 
ATOM      7  N   UNL     1      36.591   9.633  15.749  0.00  0.00    -0.223 NA
ATOM      8  C   UNL     1      37.706   9.766  14.941  0.00  0.00    +0.220 A 
ATOM      9  N   UNL     1      37.788  10.738  13.956  0.00  0.00    -0.283 N 
ATOM     36  H   UNL     1      38.630  10.808  13.386  0.00  0.00    +0.155 HD
ATOM     37  N   UNL     1      38.753   8.929  15.095  0.00  0.00    -0.214 NA
BRANCH   4   3
ATOM      1  C   UNL     1      42.396   6.579  15.615  0.00  0.00    +0.020 A 
ATOM      2  C   UNL     1      41.247   7.450  15.522  0.00  0.00    +0.013 A 
ATOM      3  C   UNL     1      39.970   7.065  16.109  0.00  0.00    +0.019 A 
ATOM     38  C   UNL     1      39.888   5.781  16.790  0.00  0.00    +0.120 A 
ATOM     39  N   UNL     1      41.010   4.962  16.863  0.00  0.00    -0.263 NA
ATOM     40  C   UNL     1      42.244   5.322  16.300  0.00  0.00    +0.111 A 
ENDBRANCH   4   3
ENDBRANCH  10   9
BRANCH  12  13
ATOM     13  N   UNL     1      33.767  12.027  11.323  0.00  0.00    -0.281 N 
ATOM     14  C   UNL     1      33.790  12.554  10.043  0.00  0.00    +0.248 C 
ATOM     30  O   UNL     1      34.517  13.469   9.685  0.00  0.00    -0.270 OA
ATOM     31  H   UNL     1      32.986  11.408  11.539  0.00  0.00    +0.155 HD
BRANCH  14  15
ATOM     15  C   UNL     1      32.861  11.995   9.015  0.00  0.00    +0.037 A 
ATOM     16  C   UNL     1      32.730  10.549   8.815  0.00  0.00    +0.013 A 
ATOM     17  C   UNL     1      31.839  10.036   7.805  0.00  0.00    +0.005 A 
ATOM     18  C   UNL     1      31.070  10.971   6.986  0.00  0.00    -0.033 A 
ATOM     28  C   UNL     1      31.216  12.400   7.208  0.00  0.00    +0.005 A 
ATOM     29  C   UNL     1      32.089  12.907   8.197  0.00  0.00    +0.013 A 
BRANCH  18  19
ATOM     19  C   UNL     1      30.112  10.514   5.871  0.00  0.00    +0.119 C 
BRANCH  19  20
ATOM     20  N   UNL     1      28.674  10.340   6.234  0.00  0.00    -0.302 NA
ATOM     21  C   UNL     1      28.421   9.019   6.965  0.00  0.00    +0.066 C 
ATOM     22  C   UNL     1      26.916   8.864   7.357  0.00  0.00    -0.064 C 
ATOM     23  N   UNL     1      26.051   8.960   6.099  0.00  0.00    +0.379 N 
ATOM     24  C   UNL     1      24.640   8.757   6.456  0.00  0.00    -0.096 C 
ATOM     25  H   UNL     1      26.351   8.129   5.419  0.00  0.00    -0.082 HD
ATOM     26  C   UNL     1      26.298  10.270   5.364  0.00  0.00    -0.064 C 
ATOM     27  C   UNL     1      27.802  10.427   5.005  0.00  0.00    +0.066 C 
ENDBRANCH  19  20
ENDBRANCH  18  19
ENDBRANCH  14  15
ENDBRANCH  12  13
TORSDOF 6
ENDMDL
