MODEL 1
REMARK VINA RESULT:      -7.4      0.000      0.000
REMARK  Name = C:\Users\Docking\Desktop\test protocol\1iep_ligandH.pdb
REMARK  8 active torsions:
REMARK  status: ('A' for Active; 'I' for Inactive)
REMARK    1  A    between atoms: _5  and  _11
REMARK    2  A    between atoms: _19  and  _21
REMARK    3  A    between atoms: _22  and  _66
REMARK    4  A    between atoms: _27  and  _30
REMARK    5  A    between atoms: _32  and  _33
REMARK    6  A    between atoms: _38  and  _43
REMARK    7  A    between atoms: _43  and  _46
REMARK    8  A    between atoms: _53  and  _55
REMARK                            x       y       z     vdW  Elec       q    Type
REMARK                         _______ _______ _______ _____ _____    ______ ____
ROOT
ATOM     10  C   UNL     1      12.852  22.514  -3.441  0.00  0.00    +0.038 A 
ATOM     11  C   UNL     1      13.405  21.329  -2.893  0.00  0.00    +0.047 A 
ATOM     12  C   UNL     1      14.825  21.035  -3.013  0.00  0.00    +0.035 A 
ATOM     32  C   UNL     1      15.653  21.972  -3.696  0.00  0.00    +0.024 A 
ATOM     33  C   UNL     1      15.108  23.182  -4.260  0.00  0.00    +0.007 A 
ATOM     34  C   UNL     1      13.708  23.476  -4.147  0.00  0.00    -0.029 A 
ATOM     35  C   UNL     1      13.177  24.784  -4.777  0.00  0.00    +0.045 C 
ENDROOT
BRANCH  10   9
ATOM      4  C   UNL     1       8.268  21.609  -4.536  0.00  0.00    +0.077 A 
ATOM      5  C   UNL     1       8.633  20.608  -5.497  0.00  0.00    +0.048 A 
ATOM      6  C   UNL     1      10.012  20.362  -5.685  0.00  0.00    +0.116 A 
ATOM      7  N   UNL     1      10.946  21.069  -4.960  0.00  0.00    -0.223 NA
ATOM      8  C   UNL     1      10.560  22.028  -4.042  0.00  0.00    +0.220 A 
ATOM      9  N   UNL     1      11.483  22.746  -3.296  0.00  0.00    -0.283 N 
ATOM     36  H   UNL     1      11.158  23.450  -2.635  0.00  0.00    +0.155 HD
ATOM     37  N   UNL     1       9.250  22.283  -3.845  0.00  0.00    -0.214 NA
BRANCH   4   3
ATOM      1  C   UNL     1       4.987  23.659  -3.955  0.00  0.00    +0.020 A 
ATOM      2  C   UNL     1       6.365  23.354  -4.266  0.00  0.00    +0.013 A 
ATOM      3  C   UNL     1       6.852  21.981  -4.222  0.00  0.00    +0.019 A 
ATOM     38  C   UNL     1       5.911  20.932  -3.858  0.00  0.00    +0.120 A 
ATOM     39  N   UNL     1       4.591  21.256  -3.563  0.00  0.00    -0.263 NA
ATOM     40  C   UNL     1       4.112  22.574  -3.600  0.00  0.00    +0.111 A 
ENDBRANCH   4   3
ENDBRANCH  10   9
BRANCH  12  13
ATOM     13  N   UNL     1      15.441  19.844  -2.483  0.00  0.00    -0.281 N 
ATOM     14  C   UNL     1      15.602  19.486  -1.154  0.00  0.00    +0.248 C 
ATOM     30  O   UNL     1      15.428  20.242  -0.210  0.00  0.00    -0.270 OA
ATOM     31  H   UNL     1      15.804  19.184  -3.172  0.00  0.00    +0.155 HD
BRANCH  14  15
ATOM     15  C   UNL     1      16.030  18.092  -0.828  0.00  0.00    +0.037 A 
ATOM     16  C   UNL     1      15.202  17.218   0.006  0.00  0.00    +0.013 A 
ATOM     17  C   UNL     1      15.647  15.883   0.319  0.00  0.00    +0.005 A 
ATOM     18  C   UNL     1      16.927  15.414  -0.204  0.00  0.00    -0.033 A 
ATOM     28  C   UNL     1      17.727  16.300  -1.033  0.00  0.00    +0.005 A 
ATOM     29  C   UNL     1      17.294  17.609  -1.342  0.00  0.00    +0.013 A 
BRANCH  18  19
ATOM     19  C   UNL     1      17.491  14.012   0.097  0.00  0.00    +0.119 C 
BRANCH  19  20
ATOM     20  N   UNL     1      16.771  12.845  -0.494  0.00  0.00    -0.302 NA
ATOM     21  C   UNL     1      16.052  13.212  -1.795  0.00  0.00    +0.066 C 
ATOM     22  C   UNL     1      15.324  11.973  -2.412  0.00  0.00    -0.064 C 
ATOM     23  N   UNL     1      14.338  11.405  -1.390  0.00  0.00    +0.379 N 
ATOM     24  C   UNL     1      13.609  10.276  -1.987  0.00  0.00    -0.096 C 
ATOM     25  H   UNL     1      13.594  12.202  -1.158  0.00  0.00    -0.082 HD
ATOM     26  C   UNL     1      15.044  11.040  -0.092  0.00  0.00    -0.064 C 
ATOM     27  C   UNL     1      15.789  12.270   0.497  0.00  0.00    +0.066 C 
ENDBRANCH  19  20
ENDBRANCH  18  19
ENDBRANCH  14  15
ENDBRANCH  12  13
TORSDOF 6
ENDMDL
MODEL 2
REMARK VINA RESULT:      -7.2      0.756      1.423
REMARK  Name = C:\Users\Docking\Desktop\test protocol\1iep_ligandH.pdb
REMARK  8 active torsions:
REMARK  status: ('A' for Active; 'I' for Inactive)
REMARK    1  A    between atoms: _5  and  _11
REMARK    2  A    between atoms: _19  and  _21
REMARK    3  A    between atoms: _22  and  _66
REMARK    4  A    between atoms: _27  and  _30
REMARK    5  A    between atoms: _32  and  _33
REMARK    6  A    between atoms: _38  and  _43
REMARK    7  A    between atoms: _43  and  _46
REMARK    8  A    between atoms: _53  and  _55
REMARK                            x       y       z     vdW  Elec       q    Type
REMARK                         _______ _______ _______ _____ _____    ______ ____
ROOT
ATOM     10  C   UNL     1      12.837  22.548  -3.483  0.00  0.00    +0.038 A 
ATOM     11  C   UNL     1      13.383  21.342  -2.973  0.00  0.00    +0.047 A 
ATOM     12  C   UNL     1      14.806  21.058  -3.075  0.00  0.00    +0.035 A 
ATOM     32  C   UNL     1      15.645  22.026  -3.701  0.00  0.00    +0.024 A 
ATOM     33  C   UNL     1      15.107  23.256  -4.226  0.00  0.00    +0.007 A 
ATOM     34  C   UNL     1      13.703  23.541  -4.130  0.00  0.00    -0.029 A 
ATOM     35  C   UNL     1      13.181  24.873  -4.716  0.00  0.00    +0.045 C 
ENDROOT
BRANCH  10   9
ATOM      4  C   UNL     1       8.271  21.525  -4.549  0.00  0.00    +0.077 A 
ATOM      5  C   UNL     1       8.654  20.478  -5.452  0.00  0.00    +0.048 A 
ATOM      6  C   UNL     1      10.037  20.240  -5.620  0.00  0.00    +0.116 A 
ATOM      7  N   UNL     1      10.958  20.997  -4.930  0.00  0.00    -0.223 NA
ATOM      8  C   UNL     1      10.555  22.000  -4.068  0.00  0.00    +0.220 A 
ATOM      9  N   UNL     1      11.464  22.769  -3.358  0.00  0.00    -0.283 N 
ATOM     36  H   UNL     1      11.126  23.504  -2.737  0.00  0.00    +0.155 HD
ATOM     37  N   UNL     1       9.240  22.248  -3.891  0.00  0.00    -0.214 NA
BRANCH   4   3
ATOM      1  C   UNL     1       4.962  23.561  -4.092  0.00  0.00    +0.020 A 
ATOM      2  C   UNL     1       6.345  23.257  -4.379  0.00  0.00    +0.013 A 
ATOM      3  C   UNL     1       6.848  21.894  -4.263  0.00  0.00    +0.019 A 
ATOM     38  C   UNL     1       5.918  20.853  -3.852  0.00  0.00    +0.120 A 
ATOM     39  N   UNL     1       4.592  21.176  -3.581  0.00  0.00    -0.263 NA
ATOM     40  C   UNL     1       4.097  22.484  -3.687  0.00  0.00    +0.111 A 
ENDBRANCH   4   3
ENDBRANCH  10   9
BRANCH  12  13
ATOM     13  N   UNL     1      15.416  19.848  -2.583  0.00  0.00    -0.281 N 
ATOM     14  C   UNL     1      15.601  19.462  -1.265  0.00  0.00    +0.248 C 
ATOM     30  O   UNL     1      15.461  20.202  -0.303  0.00  0.00    -0.270 OA
ATOM     31  H   UNL     1      15.752  19.196  -3.292  0.00  0.00    +0.155 HD
BRANCH  14  15
ATOM     15  C   UNL     1      16.015  18.055  -0.976  0.00  0.00    +0.037 A 
ATOM     16  C   UNL     1      17.268  17.509  -1.502  0.00  0.00    +0.013 A 
ATOM     17  C   UNL     1      17.636  16.143  -1.222  0.00  0.00    +0.005 A 
ATOM     18  C   UNL     1      16.748  15.315  -0.409  0.00  0.00    -0.033 A 
ATOM     28  C   UNL     1      15.514  15.885   0.105  0.00  0.00    +0.005 A 
ATOM     29  C   UNL     1      15.150  17.222  -0.169  0.00  0.00    +0.013 A 
BRANCH  18  19
ATOM     19  C   UNL     1      17.050  13.842  -0.078  0.00  0.00    +0.119 C 
BRANCH  19  20
ATOM     20  N   UNL     1      15.882  12.930   0.109  0.00  0.00    -0.302 NA
ATOM     21  C   UNL     1      15.790  12.402   1.543  0.00  0.00    +0.066 C 
ATOM     22  C   UNL     1      14.550  11.467   1.727  0.00  0.00    -0.064 C 
ATOM     23  N   UNL     1      14.634  10.311   0.729  0.00  0.00    +0.379 N 
ATOM     24  C   UNL     1      13.499   9.400   0.938  0.00  0.00    -0.096 C 
ATOM     25  H   UNL     1      15.568   9.744   0.946  0.00  0.00    -0.082 HD
ATOM     26  C   UNL     1      14.728  10.828  -0.700  0.00  0.00    -0.064 C 
ATOM     27  C   UNL     1      15.947  11.779  -0.864  0.00  0.00    +0.066 C 
ENDBRANCH  19  20
ENDBRANCH  18  19
ENDBRANCH  14  15
ENDBRANCH  12  13
TORSDOF 6
ENDMDL
MODEL 3
REMARK VINA RESULT:      -6.8      7.573     14.728
REMARK  Name = C:\Users\Docking\Desktop\test protocol\1iep_ligandH.pdb
REMARK  8 active torsions:
REMARK  status: ('A' for Active; 'I' for Inactive)
REMARK    1  A    between atoms: _5  and  _11
REMARK    2  A    between atoms: _19  and  _21
REMARK    3  A    between atoms: _22  and  _66
REMARK    4  A    between atoms: _27  and  _30
REMARK    5  A    between atoms: _32  and  _33
REMARK    6  A    between atoms: _38  and  _43
REMARK    7  A    between atoms: _43  and  _46
REMARK    8  A    between atoms: _53  and  _55
REMARK                            x       y       z     vdW  Elec       q    Type
REMARK                         _______ _______ _______ _____ _____    ______ ____
ROOT
ATOM     10  C   UNL     1       3.018  24.881  -2.701  0.00  0.00    +0.038 A 
ATOM     11  C   UNL     1       2.070  24.123  -1.969  0.00  0.00    +0.047 A 
ATOM     12  C   UNL     1       1.013  24.772  -1.208  0.00  0.00    +0.035 A 
ATOM     32  C   UNL     1       0.951  26.196  -1.218  0.00  0.00    +0.024 A 
ATOM     33  C   UNL     1       1.907  26.982  -1.956  0.00  0.00    +0.007 A 
ATOM     34  C   UNL     1       2.953  26.348  -2.706  0.00  0.00    -0.029 A 
ATOM     35  C   UNL     1       3.955  27.241  -3.474  0.00  0.00    +0.045 C 
ENDROOT
BRANCH  10   9
ATOM      4  C   UNL     1       7.098  22.362  -2.923  0.00  0.00    +0.077 A 
ATOM      5  C   UNL     1       7.280  22.419  -1.501  0.00  0.00    +0.048 A 
ATOM      6  C   UNL     1       6.305  23.112  -0.750  0.00  0.00    +0.116 A 
ATOM      7  N   UNL     1       5.232  23.701  -1.383  0.00  0.00    -0.223 NA
ATOM      8  C   UNL     1       5.087  23.628  -2.757  0.00  0.00    +0.220 A 
ATOM      9  N   UNL     1       4.012  24.206  -3.414  0.00  0.00    -0.283 N 
ATOM     36  H   UNL     1       3.945  24.137  -4.429  0.00  0.00    +0.155 HD
ATOM     37  N   UNL     1       6.006  22.974  -3.497  0.00  0.00    -0.214 NA
BRANCH   4   3
ATOM      1  C   UNL     1       8.645  19.798  -5.440  0.00  0.00    +0.020 A 
ATOM      2  C   UNL     1       7.697  20.433  -4.553  0.00  0.00    +0.013 A 
ATOM      3  C   UNL     1       8.041  21.664  -3.853  0.00  0.00    +0.019 A 
ATOM     38  C   UNL     1       9.362  22.233  -4.076  0.00  0.00    +0.120 A 
ATOM     39  N   UNL     1      10.254  21.599  -4.935  0.00  0.00    -0.263 NA
ATOM     40  C   UNL     1       9.935  20.413  -5.612  0.00  0.00    +0.111 A 
ENDBRANCH   4   3
ENDBRANCH  10   9
BRANCH  12  13
ATOM     13  N   UNL     1       0.027  24.054  -0.439  0.00  0.00    -0.281 N 
ATOM     14  C   UNL     1      -1.007  23.261  -0.908  0.00  0.00    +0.248 C 
ATOM     30  O   UNL     1      -1.372  23.219  -2.074  0.00  0.00    -0.270 OA
ATOM     31  H   UNL     1       0.099  24.143   0.575  0.00  0.00    +0.155 HD
BRANCH  14  15
ATOM     15  C   UNL     1      -1.753  22.399   0.059  0.00  0.00    +0.037 A 
ATOM     16  C   UNL     1      -3.115  21.941  -0.225  0.00  0.00    +0.013 A 
ATOM     17  C   UNL     1      -3.818  21.125   0.733  0.00  0.00    +0.005 A 
ATOM     18  C   UNL     1      -3.158  20.761   1.985  0.00  0.00    -0.033 A 
ATOM     28  C   UNL     1      -1.805  21.226   2.239  0.00  0.00    +0.005 A 
ATOM     29  C   UNL     1      -1.113  22.027   1.303  0.00  0.00    +0.013 A 
BRANCH  18  19
ATOM     19  C   UNL     1      -3.841  19.912   3.074  0.00  0.00    +0.119 C 
BRANCH  19  20
ATOM     20  N   UNL     1      -3.839  18.431   2.887  0.00  0.00    -0.302 NA
ATOM     21  C   UNL     1      -5.155  17.793   3.341  0.00  0.00    +0.066 C 
ATOM     22  C   UNL     1      -5.144  16.246   3.117  0.00  0.00    -0.064 C 
ATOM     23  N   UNL     1      -3.959  15.633   3.865  0.00  0.00    +0.379 N 
ATOM     24  C   UNL     1      -3.980  14.172   3.704  0.00  0.00    -0.096 C 
ATOM     25  H   UNL     1      -4.092  15.856   4.949  0.00  0.00    -0.082 HD
ATOM     26  C   UNL     1      -2.647  16.263   3.421  0.00  0.00    -0.064 C 
ATOM     27  C   UNL     1      -2.679  17.805   3.620  0.00  0.00    +0.066 C 
ENDBRANCH  19  20
ENDBRANCH  18  19
ENDBRANCH  14  15
ENDBRANCH  12  13
TORSDOF 6
ENDMDL
MODEL 4
REMARK VINA RESULT:      -6.7     31.075     33.538
REMARK  Name = C:\Users\Docking\Desktop\test protocol\1iep_ligandH.pdb
REMARK  8 active torsions:
REMARK  status: ('A' for Active; 'I' for Inactive)
REMARK    1  A    between atoms: _5  and  _11
REMARK    2  A    between atoms: _19  and  _21
REMARK    3  A    between atoms: _22  and  _66
REMARK    4  A    between atoms: _27  and  _30
REMARK    5  A    between atoms: _32  and  _33
REMARK    6  A    between atoms: _38  and  _43
REMARK    7  A    between atoms: _43  and  _46
REMARK    8  A    between atoms: _53  and  _55
REMARK                            x       y       z     vdW  Elec       q    Type
REMARK                         _______ _______ _______ _____ _____    ______ ____
ROOT
ATOM     10  C   UNL     1       2.950   0.765  21.045  0.00  0.00    +0.038 A 
ATOM     11  C   UNL     1       4.004   0.403  21.922  0.00  0.00    +0.047 A 
ATOM     12  C   UNL     1       5.091  -0.456  21.478  0.00  0.00    +0.035 A 
ATOM     32  C   UNL     1       5.075  -0.925  20.132  0.00  0.00    +0.024 A 
ATOM     33  C   UNL     1       4.010  -0.568  19.227  0.00  0.00    +0.007 A 
ATOM     34  C   UNL     1       2.934   0.277  19.661  0.00  0.00    -0.029 A 
ATOM     35  C   UNL     1       1.816   0.622  18.649  0.00  0.00    +0.045 C 
ENDROOT
BRANCH  10   9
ATOM      4  C   UNL     1      -0.921   1.570  23.765  0.00  0.00    +0.077 A 
ATOM      5  C   UNL     1      -0.932   0.221  24.253  0.00  0.00    +0.048 A 
ATOM      6  C   UNL     1       0.072  -0.650  23.774  0.00  0.00    +0.116 A 
ATOM      7  N   UNL     1       1.011  -0.195  22.874  0.00  0.00    -0.223 NA
ATOM      8  C   UNL     1       0.992   1.111  22.422  0.00  0.00    +0.220 A 
ATOM      9  N   UNL     1       1.932   1.592  21.524  0.00  0.00    -0.283 N 
ATOM     36  H   UNL     1       1.879   2.561  21.209  0.00  0.00    +0.155 HD
ATOM     37  N   UNL     1       0.043   1.963  22.864  0.00  0.00    -0.214 NA
BRANCH   4   3
ATOM      1  C   UNL     1      -3.820   4.196  23.713  0.00  0.00    +0.020 A 
ATOM      2  C   UNL     1      -2.882   3.194  23.261  0.00  0.00    +0.013 A 
ATOM      3  C   UNL     1      -1.914   2.611  24.181  0.00  0.00    +0.019 A 
ATOM     38  C   UNL     1      -1.922   3.065  25.563  0.00  0.00    +0.120 A 
ATOM     39  N   UNL     1      -2.836   4.032  25.970  0.00  0.00    -0.263 NA
ATOM     40  C   UNL     1      -3.771   4.602  25.093  0.00  0.00    +0.111 A 
ENDBRANCH   4   3
ENDBRANCH  10   9
BRANCH  12  13
ATOM     13  N   UNL     1       6.184  -0.863  22.325  0.00  0.00    -0.281 N 
ATOM     14  C   UNL     1       6.241  -1.957  23.174  0.00  0.00    +0.248 C 
ATOM     30  O   UNL     1       5.276  -2.634  23.495  0.00  0.00    -0.270 OA
ATOM     31  H   UNL     1       7.017  -0.275  22.296  0.00  0.00    +0.155 HD
BRANCH  14  15
ATOM     15  C   UNL     1       7.559  -2.345  23.763  0.00  0.00    +0.037 A 
ATOM     16  C   UNL     1       8.067  -1.704  24.979  0.00  0.00    +0.013 A 
ATOM     17  C   UNL     1       9.349  -2.086  25.516  0.00  0.00    +0.005 A 
ATOM     18  C   UNL     1      10.131  -3.117  24.838  0.00  0.00    -0.033 A 
ATOM     28  C   UNL     1       9.601  -3.740  23.637  0.00  0.00    +0.005 A 
ATOM     29  C   UNL     1       8.345  -3.368  23.107  0.00  0.00    +0.013 A 
BRANCH  18  19
ATOM     19  C   UNL     1      11.519  -3.572  25.329  0.00  0.00    +0.119 C 
BRANCH  19  20
ATOM     20  N   UNL     1      12.695  -3.215  24.480  0.00  0.00    -0.302 NA
ATOM     21  C   UNL     1      13.188  -4.405  23.653  0.00  0.00    +0.066 C 
ATOM     22  C   UNL     1      14.405  -4.009  22.754  0.00  0.00    -0.064 C 
ATOM     23  N   UNL     1      15.528  -3.459  23.635  0.00  0.00    +0.379 N 
ATOM     24  C   UNL     1      16.695  -3.139  22.800  0.00  0.00    -0.096 C 
ATOM     25  H   UNL     1      15.829  -4.267  24.342  0.00  0.00    -0.082 HD
ATOM     26  C   UNL     1      15.045  -2.277  24.464  0.00  0.00    -0.064 C 
ATOM     27  C   UNL     1      13.818  -2.674  25.331  0.00  0.00    +0.066 C 
ENDBRANCH  19  20
ENDBRANCH  18  19
ENDBRANCH  14  15
ENDBRANCH  12  13
TORSDOF 6
ENDMDL
MODEL 5
REMARK VINA RESULT:      -6.7      4.570      7.001
REMARK  Name = C:\Users\Docking\Desktop\test protocol\1iep_ligandH.pdb
REMARK  8 active torsions:
REMARK  status: ('A' for Active; 'I' for Inactive)
REMARK    1  A    between atoms: _5  and  _11
REMARK    2  A    between atoms: _19  and  _21
REMARK    3  A    between atoms: _22  and  _66
REMARK    4  A    between atoms: _27  and  _30
REMARK    5  A    between atoms: _32  and  _33
REMARK    6  A    between atoms: _38  and  _43
REMARK    7  A    between atoms: _43  and  _46
REMARK    8  A    between atoms: _53  and  _55
REMARK                            x       y       z     vdW  Elec       q    Type
REMARK                         _______ _______ _______ _____ _____    ______ ____
ROOT
ATOM     10  C   UNL     1       7.588  24.014  -5.420  0.00  0.00    +0.038 A 
ATOM     11  C   UNL     1       8.900  23.549  -5.149  0.00  0.00    +0.047 A 
ATOM     12  C   UNL     1       9.232  22.939  -3.871  0.00  0.00    +0.035 A 
ATOM     32  C   UNL     1       8.203  22.816  -2.892  0.00  0.00    +0.024 A 
ATOM     33  C   UNL     1       6.864  23.285  -3.151  0.00  0.00    +0.007 A 
ATOM     34  C   UNL     1       6.531  23.890  -4.409  0.00  0.00    -0.029 A 
ATOM     35  C   UNL     1       5.081  24.380  -4.629  0.00  0.00    +0.045 C 
ENDROOT
BRANCH  10   9
ATOM      4  C   UNL     1       7.167  27.818  -8.317  0.00  0.00    +0.077 A 
ATOM      5  C   UNL     1       7.473  28.734  -7.257  0.00  0.00    +0.048 A 
ATOM      6  C   UNL     1       7.726  28.186  -5.979  0.00  0.00    +0.116 A 
ATOM      7  N   UNL     1       7.673  26.823  -5.788  0.00  0.00    -0.223 NA
ATOM      8  C   UNL     1       7.374  25.967  -6.832  0.00  0.00    +0.220 A 
ATOM      9  N   UNL     1       7.324  24.592  -6.664  0.00  0.00    -0.283 N 
ATOM     36  H   UNL     1       7.092  23.995  -7.458  0.00  0.00    +0.155 HD
ATOM     37  N   UNL     1       7.128  26.466  -8.061  0.00  0.00    -0.214 NA
BRANCH   4   3
ATOM      1  C   UNL     1       5.896  29.824 -11.425  0.00  0.00    +0.020 A 
ATOM      2  C   UNL     1       6.146  29.459 -10.050  0.00  0.00    +0.013 A 
ATOM      3  C   UNL     1       6.881  28.243  -9.724  0.00  0.00    +0.019 A 
ATOM     38  C   UNL     1       7.354  27.413 -10.822  0.00  0.00    +0.120 A 
ATOM     39  N   UNL     1       7.097  27.790 -12.136  0.00  0.00    -0.263 NA
ATOM     40  C   UNL     1       6.389  28.957 -12.462  0.00  0.00    +0.111 A 
ENDBRANCH   4   3
ENDBRANCH  10   9
BRANCH  12  13
ATOM     13  N   UNL     1      10.549  22.456  -3.535  0.00  0.00    -0.281 N 
ATOM     14  C   UNL     1      11.562  23.132  -2.877  0.00  0.00    +0.248 C 
ATOM     30  O   UNL     1      11.565  24.336  -2.664  0.00  0.00    -0.270 OA
ATOM     31  H   UNL     1      10.759  21.498  -3.818  0.00  0.00    +0.155 HD
BRANCH  14  15
ATOM     15  C   UNL     1      12.751  22.364  -2.398  0.00  0.00    +0.037 A 
ATOM     16  C   UNL     1      13.508  22.791  -1.219  0.00  0.00    +0.013 A 
ATOM     17  C   UNL     1      14.662  22.041  -0.789  0.00  0.00    +0.005 A 
ATOM     18  C   UNL     1      15.064  20.854  -1.539  0.00  0.00    -0.033 A 
ATOM     28  C   UNL     1      14.292  20.449  -2.702  0.00  0.00    +0.005 A 
ATOM     29  C   UNL     1      13.162  21.182  -3.127  0.00  0.00    +0.013 A 
BRANCH  18  19
ATOM     19  C   UNL     1      16.294  20.005  -1.165  0.00  0.00    +0.119 C 
BRANCH  19  20
ATOM     20  N   UNL     1      16.187  18.527  -1.350  0.00  0.00    -0.302 NA
ATOM     21  C   UNL     1      15.408  17.860  -0.213  0.00  0.00    +0.066 C 
ATOM     22  C   UNL     1      15.287  16.317  -0.435  0.00  0.00    -0.064 C 
ATOM     23  N   UNL     1      16.685  15.711  -0.562  0.00  0.00    +0.379 N 
ATOM     24  C   UNL     1      16.576  14.253  -0.712  0.00  0.00    -0.096 C 
ATOM     25  H   UNL     1      17.229  15.914   0.390  0.00  0.00    -0.082 HD
ATOM     26  C   UNL     1      17.468  16.371  -1.689  0.00  0.00    -0.064 C 
ATOM     27  C   UNL     1      17.557  17.908  -1.474  0.00  0.00    +0.066 C 
ENDBRANCH  19  20
ENDBRANCH  18  19
ENDBRANCH  14  15
ENDBRANCH  12  13
TORSDOF 6
ENDMDL
