MODEL 1
REMARK VINA RESULT:      -9.0      0.000      0.000
REMARK  Name = C:\Users\Docking\Desktop\test protocol\1iep_ligandH.pdb
REMARK  8 active torsions:
REMARK  status: ('A' for Active; 'I' for Inactive)
REMARK    1  A    between atoms: _5  and  _11
REMARK    2  A    between atoms: _19  and  _21
REMARK    3  A    between atoms: _22  and  _66
REMARK    4  A    between atoms: _27  and  _30
REMARK    5  A    between atoms: _32  and  _33
REMARK    6  A    between atoms: _38  and  _43
REMARK    7  A    between atoms: _43  and  _46
REMARK    8  A    between atoms: _53  and  _55
REMARK                            x       y       z     vdW  Elec       q    Type
REMARK                         _______ _______ _______ _____ _____    ______ ____
ROOT
ATOM     10  C   UNL     1      19.922  25.209   4.503  0.00  0.00    +0.038 A 
ATOM     11  C   UNL     1      18.564  25.034   4.874  0.00  0.00    +0.047 A 
ATOM     12  C   UNL     1      18.008  23.707   5.090  0.00  0.00    +0.035 A 
ATOM     32  C   UNL     1      18.864  22.580   4.921  0.00  0.00    +0.024 A 
ATOM     33  C   UNL     1      20.246  22.739   4.543  0.00  0.00    +0.007 A 
ATOM     34  C   UNL     1      20.799  24.045   4.327  0.00  0.00    -0.029 A 
ATOM     35  C   UNL     1      22.286  24.157   3.916  0.00  0.00    +0.045 C 
ENDROOT
BRANCH  10   9
ATOM      4  C   UNL     1      20.863  29.002   1.717  0.00  0.00    +0.077 A 
ATOM      5  C   UNL     1      20.379  28.334   0.543  0.00  0.00    +0.048 A 
ATOM      6  C   UNL     1      19.903  27.013   0.698  0.00  0.00    +0.116 A 
ATOM      7  N   UNL     1      19.914  26.414   1.939  0.00  0.00    -0.223 NA
ATOM      8  C   UNL     1      20.389  27.085   3.050  0.00  0.00    +0.220 A 
ATOM      9  N   UNL     1      20.403  26.505   4.309  0.00  0.00    -0.283 N 
ATOM     36  H   UNL     1      20.769  27.031   5.103  0.00  0.00    +0.155 HD
ATOM     37  N   UNL     1      20.851  28.347   2.928  0.00  0.00    -0.214 NA
BRANCH   4   3
ATOM      1  C   UNL     1      22.119  32.517   0.547  0.00  0.00    +0.020 A 
ATOM      2  C   UNL     1      21.603  31.168   0.494  0.00  0.00    +0.013 A 
ATOM      3  C   UNL     1      21.395  30.401   1.715  0.00  0.00    +0.019 A 
ATOM     38  C   UNL     1      21.720  31.033   2.985  0.00  0.00    +0.120 A 
ATOM     39  N   UNL     1      22.217  32.332   3.006  0.00  0.00    -0.263 NA
ATOM     40  C   UNL     1      22.423  33.080   1.837  0.00  0.00    +0.111 A 
ENDBRANCH   4   3
ENDBRANCH  10   9
BRANCH  12  13
ATOM     13  N   UNL     1      16.635  23.467   5.460  0.00  0.00    -0.281 N 
ATOM     14  C   UNL     1      16.158  22.761   6.552  0.00  0.00    +0.248 C 
ATOM     30  O   UNL     1      16.845  22.043   7.264  0.00  0.00    -0.270 OA
ATOM     31  H   UNL     1      15.929  23.866   4.841  0.00  0.00    +0.155 HD
BRANCH  14  15
ATOM     15  C   UNL     1      14.706  22.854   6.895  0.00  0.00    +0.037 A 
ATOM     16  C   UNL     1      13.727  23.354   5.925  0.00  0.00    +0.013 A 
ATOM     17  C   UNL     1      12.335  23.449   6.287  0.00  0.00    +0.005 A 
ATOM     18  C   UNL     1      11.914  23.043   7.626  0.00  0.00    -0.033 A 
ATOM     28  C   UNL     1      12.905  22.546   8.566  0.00  0.00    +0.005 A 
ATOM     29  C   UNL     1      14.270  22.452   8.215  0.00  0.00    +0.013 A 
BRANCH  18  19
ATOM     19  C   UNL     1      10.453  23.131   8.105  0.00  0.00    +0.119 C 
BRANCH  19  20
ATOM     20  N   UNL     1       9.800  24.473   8.066  0.00  0.00    -0.302 NA
ATOM     21  C   UNL     1      10.652  25.547   8.749  0.00  0.00    +0.066 C 
ATOM     22  C   UNL     1       9.965  26.949   8.679  0.00  0.00    -0.064 C 
ATOM     23  N   UNL     1       8.579  26.868   9.322  0.00  0.00    +0.379 N 
ATOM     24  C   UNL     1       7.954  28.198   9.310  0.00  0.00    -0.096 C 
ATOM     25  H   UNL     1       8.718  26.569  10.387  0.00  0.00    -0.082 HD
ATOM     26  C   UNL     1       7.726  25.801   8.650  0.00  0.00    -0.064 C 
ATOM     27  C   UNL     1       8.432  24.417   8.700  0.00  0.00    +0.066 C 
ENDBRANCH  19  20
ENDBRANCH  18  19
ENDBRANCH  14  15
ENDBRANCH  12  13
TORSDOF 6
ENDMDL
MODEL 2
REMARK VINA RESULT:      -8.6      2.307     12.253
REMARK  Name = C:\Users\Docking\Desktop\test protocol\1iep_ligandH.pdb
REMARK  8 active torsions:
REMARK  status: ('A' for Active; 'I' for Inactive)
REMARK    1  A    between atoms: _5  and  _11
REMARK    2  A    between atoms: _19  and  _21
REMARK    3  A    between atoms: _22  and  _66
REMARK    4  A    between atoms: _27  and  _30
REMARK    5  A    between atoms: _32  and  _33
REMARK    6  A    between atoms: _38  and  _43
REMARK    7  A    between atoms: _43  and  _46
REMARK    8  A    between atoms: _53  and  _55
REMARK                            x       y       z     vdW  Elec       q    Type
REMARK                         _______ _______ _______ _____ _____    ______ ____
ROOT
ATOM     10  C   UNL     1       9.819  23.277   8.620  0.00  0.00    +0.038 A 
ATOM     11  C   UNL     1      11.073  23.412   7.972  0.00  0.00    +0.047 A 
ATOM     12  C   UNL     1      12.240  22.675   8.431  0.00  0.00    +0.035 A 
ATOM     32  C   UNL     1      12.093  21.806   9.551  0.00  0.00    +0.024 A 
ATOM     33  C   UNL     1      10.825  21.657  10.222  0.00  0.00    +0.007 A 
ATOM     34  C   UNL     1       9.671  22.384   9.775  0.00  0.00    -0.029 A 
ATOM     35  C   UNL     1       8.339  22.190  10.537  0.00  0.00    +0.045 C 
ENDROOT
BRANCH  10   9
ATOM      4  C   UNL     1       7.254  27.319   8.277  0.00  0.00    +0.077 A 
ATOM      5  C   UNL     1       8.141  28.026   9.156  0.00  0.00    +0.048 A 
ATOM      6  C   UNL     1       9.241  27.311   9.680  0.00  0.00    +0.116 A 
ATOM      7  N   UNL     1       9.431  25.989   9.344  0.00  0.00    -0.223 NA
ATOM      8  C   UNL     1       8.555  25.336   8.495  0.00  0.00    +0.220 A 
ATOM      9  N   UNL     1       8.731  24.008   8.137  0.00  0.00    -0.283 N 
ATOM     36  H   UNL     1       8.059  23.561   7.514  0.00  0.00    +0.155 HD
ATOM     37  N   UNL     1       7.496  25.996   7.982  0.00  0.00    -0.214 NA
BRANCH   4   3
ATOM      1  C   UNL     1       4.348  29.787   7.400  0.00  0.00    +0.020 A 
ATOM      2  C   UNL     1       5.515  29.233   8.048  0.00  0.00    +0.013 A 
ATOM      3  C   UNL     1       6.049  27.939   7.641  0.00  0.00    +0.019 A 
ATOM     38  C   UNL     1       5.374  27.226   6.566  0.00  0.00    +0.120 A 
ATOM     39  N   UNL     1       4.252  27.784   5.962  0.00  0.00    -0.263 NA
ATOM     40  C   UNL     1       3.728  29.027   6.346  0.00  0.00    +0.111 A 
ENDBRANCH   4   3
ENDBRANCH  10   9
BRANCH  12  13
ATOM     13  N   UNL     1      13.541  22.778   7.818  0.00  0.00    -0.281 N 
ATOM     14  C   UNL     1      13.930  22.336   6.564  0.00  0.00    +0.248 C 
ATOM     30  O   UNL     1      13.268  21.589   5.859  0.00  0.00    -0.270 OA
ATOM     31  H   UNL     1      14.264  23.233   8.377  0.00  0.00    +0.155 HD
BRANCH  14  15
ATOM     15  C   UNL     1      15.251  22.775   6.021  0.00  0.00    +0.037 A 
ATOM     16  C   UNL     1      15.358  23.413   4.707  0.00  0.00    +0.013 A 
ATOM     17  C   UNL     1      16.647  23.811   4.199  0.00  0.00    +0.005 A 
ATOM     18  C   UNL     1      17.840  23.573   5.008  0.00  0.00    -0.033 A 
ATOM     28  C   UNL     1      17.705  22.943   6.311  0.00  0.00    +0.005 A 
ATOM     29  C   UNL     1      16.443  22.550   6.811  0.00  0.00    +0.013 A 
BRANCH  18  19
ATOM     19  C   UNL     1      19.259  23.947   4.537  0.00  0.00    +0.119 C 
BRANCH  19  20
ATOM     20  N   UNL     1      19.378  25.042   3.529  0.00  0.00    -0.302 NA
ATOM     21  C   UNL     1      20.716  24.995   2.785  0.00  0.00    +0.066 C 
ATOM     22  C   UNL     1      20.814  26.134   1.719  0.00  0.00    -0.064 C 
ATOM     23  N   UNL     1      20.624  27.488   2.404  0.00  0.00    +0.379 N 
ATOM     24  C   UNL     1      20.774  28.564   1.414  0.00  0.00    -0.096 C 
ATOM     25  H   UNL     1      21.439  27.604   3.156  0.00  0.00    -0.082 HD
ATOM     26  C   UNL     1      19.297  27.543   3.149  0.00  0.00    -0.064 C 
ATOM     27  C   UNL     1      19.197  26.389   4.185  0.00  0.00    +0.066 C 
ENDBRANCH  19  20
ENDBRANCH  18  19
ENDBRANCH  14  15
ENDBRANCH  12  13
TORSDOF 6
ENDMDL
MODEL 3
REMARK VINA RESULT:      -8.4      2.376      3.404
REMARK  Name = C:\Users\Docking\Desktop\test protocol\1iep_ligandH.pdb
REMARK  8 active torsions:
REMARK  status: ('A' for Active; 'I' for Inactive)
REMARK    1  A    between atoms: _5  and  _11
REMARK    2  A    between atoms: _19  and  _21
REMARK    3  A    between atoms: _22  and  _66
REMARK    4  A    between atoms: _27  and  _30
REMARK    5  A    between atoms: _32  and  _33
REMARK    6  A    between atoms: _38  and  _43
REMARK    7  A    between atoms: _43  and  _46
REMARK    8  A    between atoms: _53  and  _55
REMARK                            x       y       z     vdW  Elec       q    Type
REMARK                         _______ _______ _______ _____ _____    ______ ____
ROOT
ATOM     10  C   UNL     1      19.870  25.402   4.507  0.00  0.00    +0.038 A 
ATOM     11  C   UNL     1      18.534  25.231   4.953  0.00  0.00    +0.047 A 
ATOM     12  C   UNL     1      17.990  23.906   5.207  0.00  0.00    +0.035 A 
ATOM     32  C   UNL     1      18.835  22.777   4.999  0.00  0.00    +0.024 A 
ATOM     33  C   UNL     1      20.194  22.933   4.545  0.00  0.00    +0.007 A 
ATOM     34  C   UNL     1      20.736  24.237   4.290  0.00  0.00    -0.029 A 
ATOM     35  C   UNL     1      22.198  24.344   3.799  0.00  0.00    +0.045 C 
ENDROOT
BRANCH  10   9
ATOM      4  C   UNL     1      20.833  29.107   1.612  0.00  0.00    +0.077 A 
ATOM      5  C   UNL     1      20.384  28.393   0.451  0.00  0.00    +0.048 A 
ATOM      6  C   UNL     1      19.920  27.072   0.641  0.00  0.00    +0.116 A 
ATOM      7  N   UNL     1      19.909  26.517   1.903  0.00  0.00    -0.223 NA
ATOM      8  C   UNL     1      20.350  27.233   3.001  0.00  0.00    +0.220 A 
ATOM      9  N   UNL     1      20.341  26.697   4.279  0.00  0.00    -0.283 N 
ATOM     36  H   UNL     1      20.681  27.255   5.062  0.00  0.00    +0.155 HD
ATOM     37  N   UNL     1      20.800  28.495   2.845  0.00  0.00    -0.214 NA
BRANCH   4   3
ATOM      1  C   UNL     1      22.215  32.543   0.354  0.00  0.00    +0.020 A 
ATOM      2  C   UNL     1      21.722  31.185   0.336  0.00  0.00    +0.013 A 
ATOM      3  C   UNL     1      21.348  30.512   1.574  0.00  0.00    +0.019 A 
ATOM     38  C   UNL     1      21.485  31.247   2.822  0.00  0.00    +0.120 A 
ATOM     39  N   UNL     1      21.963  32.554   2.809  0.00  0.00    -0.263 NA
ATOM     40  C   UNL     1      22.328  33.211   1.624  0.00  0.00    +0.111 A 
ENDBRANCH   4   3
ENDBRANCH  10   9
BRANCH  12  13
ATOM     13  N   UNL     1      16.639  23.670   5.653  0.00  0.00    -0.281 N 
ATOM     14  C   UNL     1      15.655  22.921   5.029  0.00  0.00    +0.248 C 
ATOM     30  O   UNL     1      15.721  22.514   3.879  0.00  0.00    -0.270 OA
ATOM     31  H   UNL     1      16.377  24.107   6.537  0.00  0.00    +0.155 HD
BRANCH  14  15
ATOM     15  C   UNL     1      14.410  22.589   5.787  0.00  0.00    +0.037 A 
ATOM     16  C   UNL     1      13.807  21.256   5.711  0.00  0.00    +0.013 A 
ATOM     17  C   UNL     1      12.597  20.967   6.439  0.00  0.00    +0.005 A 
ATOM     18  C   UNL     1      11.982  22.015   7.252  0.00  0.00    -0.033 A 
ATOM     28  C   UNL     1      12.605  23.327   7.314  0.00  0.00    +0.005 A 
ATOM     29  C   UNL     1      13.791  23.614   6.601  0.00  0.00    +0.013 A 
BRANCH  18  19
ATOM     19  C   UNL     1      10.680  21.802   8.045  0.00  0.00    +0.119 C 
BRANCH  19  20
ATOM     20  N   UNL     1      10.558  20.540   8.834  0.00  0.00    -0.302 NA
ATOM     21  C   UNL     1       9.169  20.386   9.461  0.00  0.00    +0.066 C 
ATOM     22  C   UNL     1       9.052  19.050  10.264  0.00  0.00    -0.064 C 
ATOM     23  N   UNL     1      10.140  19.007  11.339  0.00  0.00    +0.379 N 
ATOM     24  C   UNL     1       9.997  17.778  12.133  0.00  0.00    -0.096 C 
ATOM     25  H   UNL     1       9.975  19.872  12.022  0.00  0.00    -0.082 HD
ATOM     26  C   UNL     1      11.524  19.162  10.724  0.00  0.00    -0.064 C 
ATOM     27  C   UNL     1      11.620  20.478   9.904  0.00  0.00    +0.066 C 
ENDBRANCH  19  20
ENDBRANCH  18  19
ENDBRANCH  14  15
ENDBRANCH  12  13
TORSDOF 6
ENDMDL
MODEL 4
REMARK VINA RESULT:      -8.4      1.553      1.830
REMARK  Name = C:\Users\Docking\Desktop\test protocol\1iep_ligandH.pdb
REMARK  8 active torsions:
REMARK  status: ('A' for Active; 'I' for Inactive)
REMARK    1  A    between atoms: _5  and  _11
REMARK    2  A    between atoms: _19  and  _21
REMARK    3  A    between atoms: _22  and  _66
REMARK    4  A    between atoms: _27  and  _30
REMARK    5  A    between atoms: _32  and  _33
REMARK    6  A    between atoms: _38  and  _43
REMARK    7  A    between atoms: _43  and  _46
REMARK    8  A    between atoms: _53  and  _55
REMARK                            x       y       z     vdW  Elec       q    Type
REMARK                         _______ _______ _______ _____ _____    ______ ____
ROOT
ATOM     10  C   UNL     1      20.134  26.100   3.127  0.00  0.00    +0.038 A 
ATOM     11  C   UNL     1      18.789  25.969   3.559  0.00  0.00    +0.047 A 
ATOM     12  C   UNL     1      18.052  24.731   3.358  0.00  0.00    +0.035 A 
ATOM     32  C   UNL     1      18.716  23.646   2.715  0.00  0.00    +0.024 A 
ATOM     33  C   UNL     1      20.082  23.763   2.269  0.00  0.00    +0.007 A 
ATOM     34  C   UNL     1      20.813  24.982   2.462  0.00  0.00    -0.029 A 
ATOM     35  C   UNL     1      22.273  25.053   1.957  0.00  0.00    +0.045 C 
ENDROOT
BRANCH  10   9
ATOM      4  C   UNL     1      21.560  30.459   1.711  0.00  0.00    +0.077 A 
ATOM      5  C   UNL     1      20.962  30.300   0.417  0.00  0.00    +0.048 A 
ATOM      6  C   UNL     1      20.303  29.078   0.153  0.00  0.00    +0.116 A 
ATOM      7  N   UNL     1      20.251  28.096   1.119  0.00  0.00    -0.223 NA
ATOM      8  C   UNL     1      20.840  28.282   2.356  0.00  0.00    +0.220 A 
ATOM      9  N   UNL     1      20.794  27.311   3.345  0.00  0.00    -0.283 N 
ATOM     36  H   UNL     1      21.248  27.484   4.242  0.00  0.00    +0.155 HD
ATOM     37  N   UNL     1      21.477  29.439   2.633  0.00  0.00    -0.214 NA
BRANCH   4   3
ATOM      1  C   UNL     1      23.137  34.038   1.757  0.00  0.00    +0.020 A 
ATOM      2  C   UNL     1      22.423  32.871   1.293  0.00  0.00    +0.013 A 
ATOM      3  C   UNL     1      22.289  31.694   2.142  0.00  0.00    +0.019 A 
ATOM     38  C   UNL     1      22.894  31.730   3.465  0.00  0.00    +0.120 A 
ATOM     39  N   UNL     1      23.577  32.868   3.884  0.00  0.00    -0.263 NA
ATOM     40  C   UNL     1      23.713  34.006   3.076  0.00  0.00    +0.111 A 
ENDBRANCH   4   3
ENDBRANCH  10   9
BRANCH  12  13
ATOM     13  N   UNL     1      16.683  24.542   3.768  0.00  0.00    -0.281 N 
ATOM     14  C   UNL     1      16.146  23.483   4.482  0.00  0.00    +0.248 C 
ATOM     30  O   UNL     1      16.725  22.428   4.694  0.00  0.00    -0.270 OA
ATOM     31  H   UNL     1      16.030  25.278   3.499  0.00  0.00    +0.155 HD
BRANCH  14  15
ATOM     15  C   UNL     1      14.761  23.609   5.029  0.00  0.00    +0.037 A 
ATOM     16  C   UNL     1      13.717  24.331   4.296  0.00  0.00    +0.013 A 
ATOM     17  C   UNL     1      12.394  24.452   4.853  0.00  0.00    +0.005 A 
ATOM     18  C   UNL     1      12.105  23.848   6.152  0.00  0.00    -0.033 A 
ATOM     28  C   UNL     1      13.158  23.133   6.855  0.00  0.00    +0.005 A 
ATOM     29  C   UNL     1      14.457  23.013   6.312  0.00  0.00    +0.013 A 
BRANCH  18  19
ATOM     19  C   UNL     1      10.727  23.945   6.832  0.00  0.00    +0.119 C 
BRANCH  19  20
ATOM     20  N   UNL     1      10.395  25.226   7.524  0.00  0.00    -0.302 NA
ATOM     21  C   UNL     1      10.278  25.047   9.040  0.00  0.00    +0.066 C 
ATOM     22  C   UNL     1       9.953  26.402   9.750  0.00  0.00    -0.064 C 
ATOM     23  N   UNL     1       8.660  26.980   9.171  0.00  0.00    +0.379 N 
ATOM     24  C   UNL     1       8.320  28.224   9.876  0.00  0.00    -0.096 C 
ATOM     25  H   UNL     1       7.844  26.246   9.367  0.00  0.00    -0.082 HD
ATOM     26  C   UNL     1       8.767  27.159   7.663  0.00  0.00    -0.064 C 
ATOM     27  C   UNL     1       9.119  25.813   6.971  0.00  0.00    +0.066 C 
ENDBRANCH  19  20
ENDBRANCH  18  19
ENDBRANCH  14  15
ENDBRANCH  12  13
TORSDOF 6
ENDMDL
MODEL 5
REMARK VINA RESULT:      -8.3      2.414      3.193
REMARK  Name = C:\Users\Docking\Desktop\test protocol\1iep_ligandH.pdb
REMARK  8 active torsions:
REMARK  status: ('A' for Active; 'I' for Inactive)
REMARK    1  A    between atoms: _5  and  _11
REMARK    2  A    between atoms: _19  and  _21
REMARK    3  A    between atoms: _22  and  _66
REMARK    4  A    between atoms: _27  and  _30
REMARK    5  A    between atoms: _32  and  _33
REMARK    6  A    between atoms: _38  and  _43
REMARK    7  A    between atoms: _43  and  _46
REMARK    8  A    between atoms: _53  and  _55
REMARK                            x       y       z     vdW  Elec       q    Type
REMARK                         _______ _______ _______ _____ _____    ______ ____
ROOT
ATOM     10  C   UNL     1      20.121  25.833   3.706  0.00  0.00    +0.038 A 
ATOM     11  C   UNL     1      18.818  25.693   4.249  0.00  0.00    +0.047 A 
ATOM     12  C   UNL     1      18.139  24.406   4.255  0.00  0.00    +0.035 A 
ATOM     32  C   UNL     1      18.818  23.282   3.701  0.00  0.00    +0.024 A 
ATOM     33  C   UNL     1      20.142  23.406   3.143  0.00  0.00    +0.007 A 
ATOM     34  C   UNL     1      20.815  24.673   3.132  0.00  0.00    -0.029 A 
ATOM     35  C   UNL     1      22.231  24.749   2.516  0.00  0.00    +0.045 C 
ENDROOT
BRANCH  10   9
ATOM      4  C   UNL     1      21.296  29.999   1.632  0.00  0.00    +0.077 A 
ATOM      5  C   UNL     1      20.676  29.625   0.394  0.00  0.00    +0.048 A 
ATOM      6  C   UNL     1      20.071  28.349   0.329  0.00  0.00    +0.116 A 
ATOM      7  N   UNL     1      20.092  27.518   1.428  0.00  0.00    -0.223 NA
ATOM      8  C   UNL     1      20.700  27.908   2.607  0.00  0.00    +0.220 A 
ATOM      9  N   UNL     1      20.726  27.091   3.726  0.00  0.00    -0.283 N 
ATOM     36  H   UNL     1      21.191  27.413   4.575  0.00  0.00    +0.155 HD
ATOM     37  N   UNL     1      21.286  29.121   2.693  0.00  0.00    -0.214 NA
BRANCH   4   3
ATOM      1  C   UNL     1      23.331  32.922   3.249  0.00  0.00    +0.020 A 
ATOM      2  C   UNL     1      22.694  31.636   3.082  0.00  0.00    +0.013 A 
ATOM      3  C   UNL     1      21.973  31.315   1.857  0.00  0.00    +0.019 A 
ATOM     38  C   UNL     1      21.917  32.324   0.811  0.00  0.00    +0.120 A 
ATOM     39  N   UNL     1      22.539  33.555   1.000  0.00  0.00    -0.263 NA
ATOM     40  C   UNL     1      23.233  33.876   2.176  0.00  0.00    +0.111 A 
ENDBRANCH   4   3
ENDBRANCH  10   9
BRANCH  12  13
ATOM     13  N   UNL     1      16.814  24.205   4.786  0.00  0.00    -0.281 N 
ATOM     14  C   UNL     1      15.651  23.920   4.088  0.00  0.00    +0.248 C 
ATOM     30  O   UNL     1      15.535  24.006   2.875  0.00  0.00    -0.270 OA
ATOM     31  H   UNL     1      16.721  24.282   5.798  0.00  0.00    +0.155 HD
BRANCH  14  15
ATOM     15  C   UNL     1      14.439  23.492   4.850  0.00  0.00    +0.037 A 
ATOM     16  C   UNL     1      14.311  22.128   5.369  0.00  0.00    +0.013 A 
ATOM     17  C   UNL     1      13.123  21.735   6.086  0.00  0.00    +0.005 A 
ATOM     18  C   UNL     1      12.054  22.710   6.288  0.00  0.00    -0.033 A 
ATOM     28  C   UNL     1      12.210  24.058   5.767  0.00  0.00    +0.005 A 
ATOM     29  C   UNL     1      13.372  24.446   5.063  0.00  0.00    +0.013 A 
BRANCH  18  19
ATOM     19  C   UNL     1      10.743  22.373   7.023  0.00  0.00    +0.119 C 
BRANCH  19  20
ATOM     20  N   UNL     1      10.855  21.859   8.421  0.00  0.00    -0.302 NA
ATOM     21  C   UNL     1      11.017  20.337   8.461  0.00  0.00    +0.066 C 
ATOM     22  C   UNL     1      11.155  19.819   9.930  0.00  0.00    -0.064 C 
ATOM     23  N   UNL     1       9.932  20.255  10.739  0.00  0.00    +0.379 N 
ATOM     24  C   UNL     1      10.032  19.720  12.105  0.00  0.00    -0.096 C 
ATOM     25  H   UNL     1       9.032  19.802  10.262  0.00  0.00    -0.082 HD
ATOM     26  C   UNL     1       9.762  21.767  10.701  0.00  0.00    -0.064 C 
ATOM     27  C   UNL     1       9.655  22.275   9.236  0.00  0.00    +0.066 C 
ENDBRANCH  19  20
ENDBRANCH  18  19
ENDBRANCH  14  15
ENDBRANCH  12  13
TORSDOF 6
ENDMDL
