MODEL 1
REMARK VINA RESULT:      -9.1      0.000      0.000
REMARK  Name = C:\Users\Docking\Desktop\test protocol\1iep_ligandH.pdb
REMARK  8 active torsions:
REMARK  status: ('A' for Active; 'I' for Inactive)
REMARK    1  A    between atoms: _5  and  _11
REMARK    2  A    between atoms: _19  and  _21
REMARK    3  A    between atoms: _22  and  _66
REMARK    4  A    between atoms: _27  and  _30
REMARK    5  A    between atoms: _32  and  _33
REMARK    6  A    between atoms: _38  and  _43
REMARK    7  A    between atoms: _43  and  _46
REMARK    8  A    between atoms: _53  and  _55
REMARK                            x       y       z     vdW  Elec       q    Type
REMARK                         _______ _______ _______ _____ _____    ______ ____
ROOT
ATOM     10  C   UNL     1      20.003  25.199   4.372  0.00  0.00    +0.038 A 
ATOM     11  C   UNL     1      18.679  25.010   4.843  0.00  0.00    +0.047 A 
ATOM     12  C   UNL     1      18.137  23.676   5.051  0.00  0.00    +0.035 A 
ATOM     32  C   UNL     1      18.973  22.557   4.771  0.00  0.00    +0.024 A 
ATOM     33  C   UNL     1      20.321  22.730   4.290  0.00  0.00    +0.007 A 
ATOM     34  C   UNL     1      20.860  24.044   4.081  0.00  0.00    -0.029 A 
ATOM     35  C   UNL     1      22.310  24.170   3.558  0.00  0.00    +0.045 C 
ENDROOT
BRANCH  10   9
ATOM      4  C   UNL     1      20.874  29.040   1.629  0.00  0.00    +0.077 A 
ATOM      5  C   UNL     1      20.378  28.387   0.452  0.00  0.00    +0.048 A 
ATOM      6  C   UNL     1      19.914  27.060   0.594  0.00  0.00    +0.116 A 
ATOM      7  N   UNL     1      19.949  26.442   1.826  0.00  0.00    -0.223 NA
ATOM      8  C   UNL     1      20.435  27.101   2.940  0.00  0.00    +0.220 A 
ATOM      9  N   UNL     1      20.472  26.502   4.190  0.00  0.00    -0.283 N 
ATOM     36  H   UNL     1      20.845  27.019   4.986  0.00  0.00    +0.155 HD
ATOM     37  N   UNL     1      20.885  28.368   2.831  0.00  0.00    -0.214 NA
BRANCH   4   3
ATOM      1  C   UNL     1      22.308  32.500   0.498  0.00  0.00    +0.020 A 
ATOM      2  C   UNL     1      21.811  31.145   0.432  0.00  0.00    +0.013 A 
ATOM      3  C   UNL     1      21.396  30.444   1.641  0.00  0.00    +0.019 A 
ATOM     38  C   UNL     1      21.495  31.149   2.910  0.00  0.00    +0.120 A 
ATOM     39  N   UNL     1      21.978  32.453   2.943  0.00  0.00    -0.263 NA
ATOM     40  C   UNL     1      22.382  33.137   1.787  0.00  0.00    +0.111 A 
ENDBRANCH   4   3
ENDBRANCH  10   9
BRANCH  12  13
ATOM     13  N   UNL     1      16.797  23.423   5.520  0.00  0.00    -0.281 N 
ATOM     14  C   UNL     1      16.391  22.518   6.486  0.00  0.00    +0.248 C 
ATOM     30  O   UNL     1      17.097  21.632   6.945  0.00  0.00    -0.270 OA
ATOM     31  H   UNL     1      16.059  23.978   5.087  0.00  0.00    +0.155 HD
BRANCH  14  15
ATOM     15  C   UNL     1      14.992  22.598   7.008  0.00  0.00    +0.037 A 
ATOM     16  C   UNL     1      14.658  22.142   8.360  0.00  0.00    +0.013 A 
ATOM     17  C   UNL     1      13.298  22.215   8.832  0.00  0.00    +0.005 A 
ATOM     18  C   UNL     1      12.262  22.749   7.951  0.00  0.00    -0.033 A 
ATOM     28  C   UNL     1      12.622  23.199   6.617  0.00  0.00    +0.005 A 
ATOM     29  C   UNL     1      13.954  23.128   6.150  0.00  0.00    +0.013 A 
BRANCH  18  19
ATOM     19  C   UNL     1      10.781  22.844   8.364  0.00  0.00    +0.119 C 
BRANCH  19  20
ATOM     20  N   UNL     1      10.119  24.176   8.232  0.00  0.00    -0.302 NA
ATOM     21  C   UNL     1      10.838  25.258   9.042  0.00  0.00    +0.066 C 
ATOM     22  C   UNL     1      10.145  26.650   8.874  0.00  0.00    -0.064 C 
ATOM     23  N   UNL     1       8.679  26.541   9.297  0.00  0.00    +0.379 N 
ATOM     24  C   UNL     1       8.040  27.861   9.195  0.00  0.00    -0.096 C 
ATOM     25  H   UNL     1       8.659  26.237  10.369  0.00  0.00    -0.082 HD
ATOM     26  C   UNL     1       7.957  25.465   8.498  0.00  0.00    -0.064 C 
ATOM     27  C   UNL     1       8.671  24.093   8.648  0.00  0.00    +0.066 C 
ENDBRANCH  19  20
ENDBRANCH  18  19
ENDBRANCH  14  15
ENDBRANCH  12  13
TORSDOF 6
ENDMDL
MODEL 2
REMARK VINA RESULT:      -8.8      1.720      2.298
REMARK  Name = C:\Users\Docking\Desktop\test protocol\1iep_ligandH.pdb
REMARK  8 active torsions:
REMARK  status: ('A' for Active; 'I' for Inactive)
REMARK    1  A    between atoms: _5  and  _11
REMARK    2  A    between atoms: _19  and  _21
REMARK    3  A    between atoms: _22  and  _66
REMARK    4  A    between atoms: _27  and  _30
REMARK    5  A    between atoms: _32  and  _33
REMARK    6  A    between atoms: _38  and  _43
REMARK    7  A    between atoms: _43  and  _46
REMARK    8  A    between atoms: _53  and  _55
REMARK                            x       y       z     vdW  Elec       q    Type
REMARK                         _______ _______ _______ _____ _____    ______ ____
ROOT
ATOM     10  C   UNL     1      20.164  26.062   2.776  0.00  0.00    +0.038 A 
ATOM     11  C   UNL     1      18.843  25.887   3.260  0.00  0.00    +0.047 A 
ATOM     12  C   UNL     1      18.094  24.671   2.984  0.00  0.00    +0.035 A 
ATOM     32  C   UNL     1      18.724  23.651   2.213  0.00  0.00    +0.024 A 
ATOM     33  C   UNL     1      20.067  23.812   1.712  0.00  0.00    +0.007 A 
ATOM     34  C   UNL     1      20.809  25.011   1.979  0.00  0.00    -0.029 A 
ATOM     35  C   UNL     1      22.242  25.132   1.411  0.00  0.00    +0.045 C 
ENDROOT
BRANCH  10   9
ATOM      4  C   UNL     1      21.637  30.486   1.640  0.00  0.00    +0.077 A 
ATOM      5  C   UNL     1      21.040  30.415   0.337  0.00  0.00    +0.048 A 
ATOM      6  C   UNL     1      20.370  29.219  -0.004  0.00  0.00    +0.116 A 
ATOM      7  N   UNL     1      20.306  28.179   0.898  0.00  0.00    -0.223 NA
ATOM      8  C   UNL     1      20.894  28.280   2.146  0.00  0.00    +0.220 A 
ATOM      9  N   UNL     1      20.836  27.250   3.071  0.00  0.00    -0.283 N 
ATOM     36  H   UNL     1      21.289  27.361   3.978  0.00  0.00    +0.155 HD
ATOM     37  N   UNL     1      21.542  29.411   2.495  0.00  0.00    -0.214 NA
BRANCH   4   3
ATOM      1  C   UNL     1      23.742  32.896   3.890  0.00  0.00    +0.020 A 
ATOM      2  C   UNL     1      23.040  31.714   3.446  0.00  0.00    +0.013 A 
ATOM      3  C   UNL     1      22.378  31.684   2.148  0.00  0.00    +0.019 A 
ATOM     38  C   UNL     1      22.445  32.876   1.317  0.00  0.00    +0.120 A 
ATOM     39  N   UNL     1      23.128  34.001   1.771  0.00  0.00    -0.263 NA
ATOM     40  C   UNL     1      23.768  34.042   3.019  0.00  0.00    +0.111 A 
ENDBRANCH   4   3
ENDBRANCH  10   9
BRANCH  12  13
ATOM     13  N   UNL     1      16.747  24.440   3.442  0.00  0.00    -0.281 N 
ATOM     14  C   UNL     1      16.287  23.419   4.257  0.00  0.00    +0.248 C 
ATOM     30  O   UNL     1      16.932  22.421   4.544  0.00  0.00    -0.270 OA
ATOM     31  H   UNL     1      16.047  25.112   3.127  0.00  0.00    +0.155 HD
BRANCH  14  15
ATOM     15  C   UNL     1      14.908  23.513   4.824  0.00  0.00    +0.037 A 
ATOM     16  C   UNL     1      13.874  24.325   4.178  0.00  0.00    +0.013 A 
ATOM     17  C   UNL     1      12.556  24.412   4.755  0.00  0.00    +0.005 A 
ATOM     18  C   UNL     1      12.264  23.682   5.986  0.00  0.00    -0.033 A 
ATOM     28  C   UNL     1      13.307  22.880   6.604  0.00  0.00    +0.005 A 
ATOM     29  C   UNL     1      14.600  22.793   6.042  0.00  0.00    +0.013 A 
BRANCH  18  19
ATOM     19  C   UNL     1      10.892  23.734   6.684  0.00  0.00    +0.119 C 
BRANCH  19  20
ATOM     20  N   UNL     1      10.537  24.995   7.401  0.00  0.00    -0.302 NA
ATOM     21  C   UNL     1      10.303  24.759   8.896  0.00  0.00    +0.066 C 
ATOM     22  C   UNL     1       9.954  26.092   9.635  0.00  0.00    -0.064 C 
ATOM     23  N   UNL     1       8.721  26.724   8.987  0.00  0.00    +0.379 N 
ATOM     24  C   UNL     1       8.356  27.948   9.716  0.00  0.00    -0.096 C 
ATOM     25  H   UNL     1       7.877  26.003   9.092  0.00  0.00    -0.082 HD
ATOM     26  C   UNL     1       8.944  26.960   7.500  0.00  0.00    -0.064 C 
ATOM     27  C   UNL     1       9.319  25.634   6.780  0.00  0.00    +0.066 C 
ENDBRANCH  19  20
ENDBRANCH  18  19
ENDBRANCH  14  15
ENDBRANCH  12  13
TORSDOF 6
ENDMDL
MODEL 3
REMARK VINA RESULT:      -8.5      2.251      3.339
REMARK  Name = C:\Users\Docking\Desktop\test protocol\1iep_ligandH.pdb
REMARK  8 active torsions:
REMARK  status: ('A' for Active; 'I' for Inactive)
REMARK    1  A    between atoms: _5  and  _11
REMARK    2  A    between atoms: _19  and  _21
REMARK    3  A    between atoms: _22  and  _66
REMARK    4  A    between atoms: _27  and  _30
REMARK    5  A    between atoms: _32  and  _33
REMARK    6  A    between atoms: _38  and  _43
REMARK    7  A    between atoms: _43  and  _46
REMARK    8  A    between atoms: _53  and  _55
REMARK                            x       y       z     vdW  Elec       q    Type
REMARK                         _______ _______ _______ _____ _____    ______ ____
ROOT
ATOM     10  C   UNL     1      19.890  25.195   4.494  0.00  0.00    +0.038 A 
ATOM     11  C   UNL     1      18.562  25.021   4.962  0.00  0.00    +0.047 A 
ATOM     12  C   UNL     1      18.012  23.694   5.191  0.00  0.00    +0.035 A 
ATOM     32  C   UNL     1      18.844  22.565   4.935  0.00  0.00    +0.024 A 
ATOM     33  C   UNL     1      20.196  22.723   4.458  0.00  0.00    +0.007 A 
ATOM     34  C   UNL     1      20.743  24.029   4.229  0.00  0.00    -0.029 A 
ATOM     35  C   UNL     1      22.196  24.139   3.711  0.00  0.00    +0.045 C 
ENDROOT
BRANCH  10   9
ATOM      4  C   UNL     1      20.840  28.964   1.679  0.00  0.00    +0.077 A 
ATOM      5  C   UNL     1      20.372  28.282   0.507  0.00  0.00    +0.048 A 
ATOM      6  C   UNL     1      19.901  26.960   0.671  0.00  0.00    +0.116 A 
ATOM      7  N   UNL     1      19.903  26.374   1.918  0.00  0.00    -0.223 NA
ATOM      8  C   UNL     1      20.363  27.059   3.027  0.00  0.00    +0.220 A 
ATOM      9  N   UNL     1      20.367  26.492   4.292  0.00  0.00    -0.283 N 
ATOM     36  H   UNL     1      20.722  27.027   5.084  0.00  0.00    +0.155 HD
ATOM     37  N   UNL     1      20.819  28.322   2.897  0.00  0.00    -0.214 NA
BRANCH   4   3
ATOM      1  C   UNL     1      22.248  32.415   0.491  0.00  0.00    +0.020 A 
ATOM      2  C   UNL     1      21.748  31.060   0.446  0.00  0.00    +0.013 A 
ATOM      3  C   UNL     1      21.365  30.366   1.669  0.00  0.00    +0.019 A 
ATOM     38  C   UNL     1      21.502  31.077   2.932  0.00  0.00    +0.120 A 
ATOM     39  N   UNL     1      21.989  32.380   2.944  0.00  0.00    -0.263 NA
ATOM     40  C   UNL     1      22.361  33.058   1.774  0.00  0.00    +0.111 A 
ENDBRANCH   4   3
ENDBRANCH  10   9
BRANCH  12  13
ATOM     13  N   UNL     1      16.669  23.456   5.657  0.00  0.00    -0.281 N 
ATOM     14  C   UNL     1      15.805  22.440   5.282  0.00  0.00    +0.248 C 
ATOM     30  O   UNL     1      15.981  21.702   4.324  0.00  0.00    -0.270 OA
ATOM     31  H   UNL     1      16.311  24.116   6.347  0.00  0.00    +0.155 HD
BRANCH  14  15
ATOM     15  C   UNL     1      14.558  22.222   6.077  0.00  0.00    +0.037 A 
ATOM     16  C   UNL     1      13.691  21.068   5.829  0.00  0.00    +0.013 A 
ATOM     17  C   UNL     1      12.485  20.891   6.599  0.00  0.00    +0.005 A 
ATOM     18  C   UNL     1      12.140  21.871   7.626  0.00  0.00    -0.033 A 
ATOM     28  C   UNL     1      13.021  23.004   7.854  0.00  0.00    +0.005 A 
ATOM     29  C   UNL     1      14.203  23.182   7.101  0.00  0.00    +0.013 A 
BRANCH  18  19
ATOM     19  C   UNL     1      10.863  21.773   8.480  0.00  0.00    +0.119 C 
BRANCH  19  20
ATOM     20  N   UNL     1      10.559  20.452   9.108  0.00  0.00    -0.302 NA
ATOM     21  C   UNL     1       9.176  20.432   9.764  0.00  0.00    +0.066 C 
ATOM     22  C   UNL     1       8.866  19.036  10.396  0.00  0.00    -0.064 C 
ATOM     23  N   UNL     1       9.953  18.688  11.414  0.00  0.00    +0.379 N 
ATOM     24  C   UNL     1       9.633  17.402  12.052  0.00  0.00    -0.096 C 
ATOM     25  H   UNL     1       9.938  19.472  12.206  0.00  0.00    -0.082 HD
ATOM     26  C   UNL     1      11.332  18.708  10.770  0.00  0.00    -0.064 C 
ATOM     27  C   UNL     1      11.618  20.090  10.120  0.00  0.00    +0.066 C 
ENDBRANCH  19  20
ENDBRANCH  18  19
ENDBRANCH  14  15
ENDBRANCH  12  13
TORSDOF 6
ENDMDL
MODEL 4
REMARK VINA RESULT:      -8.2      2.438      3.266
REMARK  Name = C:\Users\Docking\Desktop\test protocol\1iep_ligandH.pdb
REMARK  8 active torsions:
REMARK  status: ('A' for Active; 'I' for Inactive)
REMARK    1  A    between atoms: _5  and  _11
REMARK    2  A    between atoms: _19  and  _21
REMARK    3  A    between atoms: _22  and  _66
REMARK    4  A    between atoms: _27  and  _30
REMARK    5  A    between atoms: _32  and  _33
REMARK    6  A    between atoms: _38  and  _43
REMARK    7  A    between atoms: _43  and  _46
REMARK    8  A    between atoms: _53  and  _55
REMARK                            x       y       z     vdW  Elec       q    Type
REMARK                         _______ _______ _______ _____ _____    ______ ____
ROOT
ATOM     10  C   UNL     1      20.395  26.143   3.111  0.00  0.00    +0.038 A 
ATOM     11  C   UNL     1      19.120  25.957   3.703  0.00  0.00    +0.047 A 
ATOM     12  C   UNL     1      18.387  24.711   3.536  0.00  0.00    +0.035 A 
ATOM     32  C   UNL     1      18.984  23.675   2.761  0.00  0.00    +0.024 A 
ATOM     33  C   UNL     1      20.279  23.848   2.151  0.00  0.00    +0.007 A 
ATOM     34  C   UNL     1      21.005  25.075   2.310  0.00  0.00    -0.029 A 
ATOM     35  C   UNL     1      22.387  25.208   1.628  0.00  0.00    +0.045 C 
ENDROOT
BRANCH  10   9
ATOM      4  C   UNL     1      21.682  30.536   1.668  0.00  0.00    +0.077 A 
ATOM      5  C   UNL     1      21.006  30.385   0.411  0.00  0.00    +0.048 A 
ATOM      6  C   UNL     1      20.346  29.159   0.172  0.00  0.00    +0.116 A 
ATOM      7  N   UNL     1      20.365  28.165   1.127  0.00  0.00    -0.223 NA
ATOM      8  C   UNL     1      21.028  28.343   2.327  0.00  0.00    +0.220 A 
ATOM      9  N   UNL     1      21.054  27.359   3.304  0.00  0.00    -0.283 N 
ATOM     36  H   UNL     1      21.560  27.526   4.174  0.00  0.00    +0.155 HD
ATOM     37  N   UNL     1      21.667  29.504   2.579  0.00  0.00    -0.214 NA
BRANCH   4   3
ATOM      1  C   UNL     1      23.545  33.254   3.776  0.00  0.00    +0.020 A 
ATOM      2  C   UNL     1      22.831  32.043   3.442  0.00  0.00    +0.013 A 
ATOM      3  C   UNL     1      22.422  31.774   2.069  0.00  0.00    +0.019 A 
ATOM     38  C   UNL     1      22.753  32.759   1.050  0.00  0.00    +0.120 A 
ATOM     39  N   UNL     1      23.440  33.916   1.401  0.00  0.00    -0.263 NA
ATOM     40  C   UNL     1      23.838  34.187   2.719  0.00  0.00    +0.111 A 
ENDBRANCH   4   3
ENDBRANCH  10   9
BRANCH  12  13
ATOM     13  N   UNL     1      17.085  24.468   4.107  0.00  0.00    -0.281 N 
ATOM     14  C   UNL     1      15.907  24.166   3.443  0.00  0.00    +0.248 C 
ATOM     30  O   UNL     1      15.748  24.270   2.236  0.00  0.00    -0.270 OA
ATOM     31  H   UNL     1      17.025  24.524   5.123  0.00  0.00    +0.155 HD
BRANCH  14  15
ATOM     15  C   UNL     1      14.732  23.693   4.237  0.00  0.00    +0.037 A 
ATOM     16  C   UNL     1      14.908  22.907   5.460  0.00  0.00    +0.013 A 
ATOM     17  C   UNL     1      13.757  22.449   6.198  0.00  0.00    +0.005 A 
ATOM     18  C   UNL     1      12.419  22.779   5.713  0.00  0.00    -0.033 A 
ATOM     28  C   UNL     1      12.273  23.565   4.500  0.00  0.00    +0.005 A 
ATOM     29  C   UNL     1      13.399  24.014   3.774  0.00  0.00    +0.013 A 
BRANCH  18  19
ATOM     19  C   UNL     1      11.134  22.314   6.425  0.00  0.00    +0.119 C 
BRANCH  19  20
ATOM     20  N   UNL     1      11.252  21.917   7.859  0.00  0.00    -0.302 NA
ATOM     21  C   UNL     1      11.139  20.402   8.047  0.00  0.00    +0.066 C 
ATOM     22  C   UNL     1      11.287  20.002   9.551  0.00  0.00    -0.064 C 
ATOM     23  N   UNL     1      10.226  20.731  10.377  0.00  0.00    +0.379 N 
ATOM     24  C   UNL     1      10.325  20.312  11.783  0.00  0.00    -0.096 C 
ATOM     25  H   UNL     1       9.226  20.413   9.999  0.00  0.00    -0.082 HD
ATOM     26  C   UNL     1      10.330  22.238  10.194  0.00  0.00    -0.064 C 
ATOM     27  C   UNL     1      10.211  22.622   8.693  0.00  0.00    +0.066 C 
ENDBRANCH  19  20
ENDBRANCH  18  19
ENDBRANCH  14  15
ENDBRANCH  12  13
TORSDOF 6
ENDMDL
MODEL 5
REMARK VINA RESULT:      -8.2      7.608     12.751
REMARK  Name = C:\Users\Docking\Desktop\test protocol\1iep_ligandH.pdb
REMARK  8 active torsions:
REMARK  status: ('A' for Active; 'I' for Inactive)
REMARK    1  A    between atoms: _5  and  _11
REMARK    2  A    between atoms: _19  and  _21
REMARK    3  A    between atoms: _22  and  _66
REMARK    4  A    between atoms: _27  and  _30
REMARK    5  A    between atoms: _32  and  _33
REMARK    6  A    between atoms: _38  and  _43
REMARK    7  A    between atoms: _43  and  _46
REMARK    8  A    between atoms: _53  and  _55
REMARK                            x       y       z     vdW  Elec       q    Type
REMARK                         _______ _______ _______ _____ _____    ______ ____
ROOT
ATOM     10  C   UNL     1      25.658  34.737  -1.134  0.00  0.00    +0.038 A 
ATOM     11  C   UNL     1      24.907  33.581  -0.799  0.00  0.00    +0.047 A 
ATOM     12  C   UNL     1      24.322  33.421   0.523  0.00  0.00    +0.035 A 
ATOM     32  C   UNL     1      24.519  34.460   1.479  0.00  0.00    +0.024 A 
ATOM     33  C   UNL     1      25.280  35.641   1.156  0.00  0.00    +0.007 A 
ATOM     34  C   UNL     1      25.862  35.803  -0.146  0.00  0.00    -0.029 A 
ATOM     35  C   UNL     1      26.673  37.087  -0.435  0.00  0.00    +0.045 C 
ENDROOT
BRANCH  10   9
ATOM      4  C   UNL     1      28.905  33.557  -4.466  0.00  0.00    +0.077 A 
ATOM      5  C   UNL     1      29.600  32.685  -3.565  0.00  0.00    +0.048 A 
ATOM      6  C   UNL     1      29.095  32.573  -2.250  0.00  0.00    +0.116 A 
ATOM      7  N   UNL     1      27.976  33.285  -1.876  0.00  0.00    -0.223 NA
ATOM      8  C   UNL     1      27.329  34.119  -2.770  0.00  0.00    +0.220 A 
ATOM      9  N   UNL     1      26.198  34.838  -2.418  0.00  0.00    -0.283 N 
ATOM     36  H   UNL     1      25.754  35.448  -3.105  0.00  0.00    +0.155 HD
ATOM     37  N   UNL     1      27.793  34.244  -4.031  0.00  0.00    -0.214 NA
BRANCH   4   3
ATOM      1  C   UNL     1      30.991  33.690  -7.772  0.00  0.00    +0.020 A 
ATOM      2  C   UNL     1      30.646  33.458  -6.388  0.00  0.00    +0.013 A 
ATOM      3  C   UNL     1      29.315  33.777  -5.889  0.00  0.00    +0.019 A 
ATOM     38  C   UNL     1      28.348  34.334  -6.824  0.00  0.00    +0.120 A 
ATOM     39  N   UNL     1      28.709  34.547  -8.150  0.00  0.00    -0.263 NA
ATOM     40  C   UNL     1      29.988  34.246  -8.641  0.00  0.00    +0.111 A 
ENDBRANCH   4   3
ENDBRANCH  10   9
BRANCH  12  13
ATOM     13  N   UNL     1      23.557  32.266   0.923  0.00  0.00    -0.281 N 
ATOM     14  C   UNL     1      22.193  32.186   1.153  0.00  0.00    +0.248 C 
ATOM     30  O   UNL     1      21.452  33.152   1.257  0.00  0.00    -0.270 OA
ATOM     31  H   UNL     1      24.085  31.403   1.053  0.00  0.00    +0.155 HD
BRANCH  14  15
ATOM     15  C   UNL     1      21.565  30.838   1.304  0.00  0.00    +0.037 A 
ATOM     16  C   UNL     1      21.512  30.166   2.604  0.00  0.00    +0.013 A 
ATOM     17  C   UNL     1      20.915  28.858   2.719  0.00  0.00    +0.005 A 
ATOM     18  C   UNL     1      20.364  28.216   1.528  0.00  0.00    -0.033 A 
ATOM     28  C   UNL     1      20.425  28.908   0.251  0.00  0.00    +0.005 A 
ATOM     29  C   UNL     1      21.010  30.189   0.135  0.00  0.00    +0.013 A 
BRANCH  18  19
ATOM     19  C   UNL     1      19.727  26.814   1.553  0.00  0.00    +0.119 C 
BRANCH  19  20
ATOM     20  N   UNL     1      20.638  25.654   1.788  0.00  0.00    -0.302 NA
ATOM     21  C   UNL     1      20.880  25.406   3.279  0.00  0.00    +0.066 C 
ATOM     22  C   UNL     1      21.817  24.175   3.507  0.00  0.00    -0.064 C 
ATOM     23  N   UNL     1      23.140  24.401   2.774  0.00  0.00    +0.379 N 
ATOM     24  C   UNL     1      24.044  23.272   3.034  0.00  0.00    -0.096 C 
ATOM     25  H   UNL     1      23.610  25.317   3.201  0.00  0.00    -0.082 HD
ATOM     26  C   UNL     1      22.908  24.651   1.290  0.00  0.00    -0.064 C 
ATOM     27  C   UNL     1      21.952  25.858   1.075  0.00  0.00    +0.066 C 
ENDBRANCH  19  20
ENDBRANCH  18  19
ENDBRANCH  14  15
ENDBRANCH  12  13
TORSDOF 6
ENDMDL
