MODEL 1
REMARK VINA RESULT:      -7.2      0.000      0.000
REMARK  Name = C:\Users\Docking\Desktop\test protocol\1iep_ligandH.pdb
REMARK  8 active torsions:
REMARK  status: ('A' for Active; 'I' for Inactive)
REMARK    1  A    between atoms: _5  and  _11
REMARK    2  A    between atoms: _19  and  _21
REMARK    3  A    between atoms: _22  and  _66
REMARK    4  A    between atoms: _27  and  _30
REMARK    5  A    between atoms: _32  and  _33
REMARK    6  A    between atoms: _38  and  _43
REMARK    7  A    between atoms: _43  and  _46
REMARK    8  A    between atoms: _53  and  _55
REMARK                            x       y       z     vdW  Elec       q    Type
REMARK                         _______ _______ _______ _____ _____    ______ ____
ROOT
ATOM     10  C   UNL     1      53.521  15.176  66.552  0.00  0.00    +0.038 A 
ATOM     11  C   UNL     1      52.697  14.186  65.959  0.00  0.00    +0.047 A 
ATOM     12  C   UNL     1      52.599  12.850  66.527  0.00  0.00    +0.035 A 
ATOM     32  C   UNL     1      53.351  12.559  67.702  0.00  0.00    +0.024 A 
ATOM     33  C   UNL     1      54.194  13.554  68.317  0.00  0.00    +0.007 A 
ATOM     34  C   UNL     1      54.297  14.872  67.759  0.00  0.00    -0.029 A 
ATOM     35  C   UNL     1      55.222  15.897  68.457  0.00  0.00    +0.045 C 
ENDROOT
BRANCH  10   9
ATOM      4  C   UNL     1      55.252  18.264  63.310  0.00  0.00    +0.077 A 
ATOM      5  C   UNL     1      56.137  17.280  62.758  0.00  0.00    +0.048 A 
ATOM      6  C   UNL     1      56.121  15.993  63.341  0.00  0.00    +0.116 A 
ATOM      7  N   UNL     1      55.279  15.722  64.397  0.00  0.00    -0.223 NA
ATOM      8  C   UNL     1      54.439  16.695  64.907  0.00  0.00    +0.220 A 
ATOM      9  N   UNL     1      53.578  16.442  65.964  0.00  0.00    -0.283 N 
ATOM     36  H   UNL     1      52.979  17.189  66.316  0.00  0.00    +0.155 HD
ATOM     37  N   UNL     1      54.436  17.932  64.369  0.00  0.00    -0.214 NA
BRANCH   4   3
ATOM      1  C   UNL     1      55.542  21.447  61.054  0.00  0.00    +0.020 A 
ATOM      2  C   UNL     1      55.666  20.078  61.500  0.00  0.00    +0.013 A 
ATOM      3  C   UNL     1      55.151  19.668  62.800  0.00  0.00    +0.019 A 
ATOM     38  C   UNL     1      54.510  20.676  63.632  0.00  0.00    +0.120 A 
ATOM     39  N   UNL     1      54.407  21.987  63.177  0.00  0.00    -0.263 NA
ATOM     40  C   UNL     1      54.900  22.393  61.928  0.00  0.00    +0.111 A 
ENDBRANCH   4   3
ENDBRANCH  10   9
BRANCH  12  13
ATOM     13  N   UNL     1      51.785  11.801  65.964  0.00  0.00    -0.281 N 
ATOM     14  C   UNL     1      50.490  11.450  66.309  0.00  0.00    +0.248 C 
ATOM     30  O   UNL     1      49.908  11.849  67.306  0.00  0.00    -0.270 OA
ATOM     31  H   UNL     1      52.217  11.250  65.222  0.00  0.00    +0.155 HD
BRANCH  14  15
ATOM     15  C   UNL     1      49.739  10.507  65.425  0.00  0.00    +0.037 A 
ATOM     16  C   UNL     1      50.266  10.106  64.119  0.00  0.00    +0.013 A 
ATOM     17  C   UNL     1      49.513   9.209  63.279  0.00  0.00    +0.005 A 
ATOM     18  C   UNL     1      48.223   8.705  63.745  0.00  0.00    -0.033 A 
ATOM     28  C   UNL     1      47.726   9.115  65.048  0.00  0.00    +0.005 A 
ATOM     29  C   UNL     1      48.461   9.995  65.873  0.00  0.00    +0.013 A 
BRANCH  18  19
ATOM     19  C   UNL     1      47.342   7.760  62.907  0.00  0.00    +0.119 C 
BRANCH  19  20
ATOM     20  N   UNL     1      47.103   6.389  63.446  0.00  0.00    -0.302 NA
ATOM     21  C   UNL     1      47.357   5.305  62.394  0.00  0.00    +0.066 C 
ATOM     22  C   UNL     1      47.125   3.875  62.982  0.00  0.00    -0.064 C 
ATOM     23  N   UNL     1      45.699   3.777  63.529  0.00  0.00    +0.379 N 
ATOM     24  C   UNL     1      45.459   2.416  64.030  0.00  0.00    -0.096 C 
ATOM     25  H   UNL     1      44.999   3.953  62.680  0.00  0.00    -0.082 HD
ATOM     26  C   UNL     1      45.438   4.852  64.574  0.00  0.00    -0.064 C 
ATOM     27  C   UNL     1      45.700   6.268  63.988  0.00  0.00    +0.066 C 
ENDBRANCH  19  20
ENDBRANCH  18  19
ENDBRANCH  14  15
ENDBRANCH  12  13
TORSDOF 6
ENDMDL
MODEL 2
REMARK VINA RESULT:      -7.1     27.944     31.954
REMARK  Name = C:\Users\Docking\Desktop\test protocol\1iep_ligandH.pdb
REMARK  8 active torsions:
REMARK  status: ('A' for Active; 'I' for Inactive)
REMARK    1  A    between atoms: _5  and  _11
REMARK    2  A    between atoms: _19  and  _21
REMARK    3  A    between atoms: _22  and  _66
REMARK    4  A    between atoms: _27  and  _30
REMARK    5  A    between atoms: _32  and  _33
REMARK    6  A    between atoms: _38  and  _43
REMARK    7  A    between atoms: _43  and  _46
REMARK    8  A    between atoms: _53  and  _55
REMARK                            x       y       z     vdW  Elec       q    Type
REMARK                         _______ _______ _______ _____ _____    ______ ____
ROOT
ATOM     10  C   UNL     1      38.741  10.376  39.245  0.00  0.00    +0.038 A 
ATOM     11  C   UNL     1      38.613  11.779  39.082  0.00  0.00    +0.047 A 
ATOM     12  C   UNL     1      39.659  12.562  38.443  0.00  0.00    +0.035 A 
ATOM     32  C   UNL     1      40.822  11.882  37.977  0.00  0.00    +0.024 A 
ATOM     33  C   UNL     1      40.970  10.456  38.135  0.00  0.00    +0.007 A 
ATOM     34  C   UNL     1      39.942   9.680  38.768  0.00  0.00    -0.029 A 
ATOM     35  C   UNL     1      40.157   8.155  38.916  0.00  0.00    +0.045 C 
ENDROOT
BRANCH  10   9
ATOM      4  C   UNL     1      34.759   7.701  39.101  0.00  0.00    +0.077 A 
ATOM      5  C   UNL     1      34.722   7.726  37.667  0.00  0.00    +0.048 A 
ATOM      6  C   UNL     1      35.743   8.445  37.005  0.00  0.00    +0.116 A 
ATOM      7  N   UNL     1      36.722   9.086  37.732  0.00  0.00    -0.223 NA
ATOM      8  C   UNL     1      36.727   9.043  39.114  0.00  0.00    +0.220 A 
ATOM      9  N   UNL     1      37.706   9.674  39.866  0.00  0.00    -0.283 N 
ATOM     36  H   UNL     1      37.670   9.625  40.884  0.00  0.00    +0.155 HD
ATOM     37  N   UNL     1      35.762   8.365  39.770  0.00  0.00    -0.214 NA
BRANCH   4   3
ATOM      1  C   UNL     1      32.709   4.884  40.879  0.00  0.00    +0.020 A 
ATOM      2  C   UNL     1      33.701   5.529  40.051  0.00  0.00    +0.013 A 
ATOM      3  C   UNL     1      33.752   6.982  39.944  0.00  0.00    +0.019 A 
ATOM     38  C   UNL     1      32.777   7.759  40.694  0.00  0.00    +0.120 A 
ATOM     39  N   UNL     1      31.832   7.110  41.483  0.00  0.00    -0.263 NA
ATOM     40  C   UNL     1      31.772   5.712  41.592  0.00  0.00    +0.111 A 
ENDBRANCH   4   3
ENDBRANCH  10   9
BRANCH  12  13
ATOM     13  N   UNL     1      39.588  13.990  38.257  0.00  0.00    -0.281 N 
ATOM     14  C   UNL     1      38.871  14.690  37.301  0.00  0.00    +0.248 C 
ATOM     30  O   UNL     1      38.347  14.182  36.320  0.00  0.00    -0.270 OA
ATOM     31  H   UNL     1      40.132  14.553  38.910  0.00  0.00    +0.155 HD
BRANCH  14  15
ATOM     15  C   UNL     1      38.726  16.170  37.447  0.00  0.00    +0.037 A 
ATOM     16  C   UNL     1      39.815  16.991  37.982  0.00  0.00    +0.013 A 
ATOM     17  C   UNL     1      39.643  18.415  38.128  0.00  0.00    +0.005 A 
ATOM     18  C   UNL     1      38.376  19.027  37.737  0.00  0.00    -0.033 A 
ATOM     28  C   UNL     1      37.314  18.190  37.204  0.00  0.00    +0.005 A 
ATOM     29  C   UNL     1      37.478  16.794  37.060  0.00  0.00    +0.013 A 
BRANCH  18  19
ATOM     19  C   UNL     1      38.097  20.535  37.878  0.00  0.00    +0.119 C 
BRANCH  19  20
ATOM     20  N   UNL     1      38.635  21.220  39.091  0.00  0.00    -0.302 NA
ATOM     21  C   UNL     1      37.523  21.836  39.944  0.00  0.00    +0.066 C 
ATOM     22  C   UNL     1      38.103  22.529  41.220  0.00  0.00    -0.064 C 
ATOM     23  N   UNL     1      39.119  23.593  40.803  0.00  0.00    +0.379 N 
ATOM     24  C   UNL     1      39.622  24.286  41.998  0.00  0.00    -0.096 C 
ATOM     25  H   UNL     1      38.583  24.344  40.177  0.00  0.00    -0.082 HD
ATOM     26  C   UNL     1      40.227  22.989  39.952  0.00  0.00    -0.064 C 
ATOM     27  C   UNL     1      39.638  22.278  38.702  0.00  0.00    +0.066 C 
ENDBRANCH  19  20
ENDBRANCH  18  19
ENDBRANCH  14  15
ENDBRANCH  12  13
TORSDOF 6
ENDMDL
MODEL 3
REMARK VINA RESULT:      -7.0     28.458     29.638
REMARK  Name = C:\Users\Docking\Desktop\test protocol\1iep_ligandH.pdb
REMARK  8 active torsions:
REMARK  status: ('A' for Active; 'I' for Inactive)
REMARK    1  A    between atoms: _5  and  _11
REMARK    2  A    between atoms: _19  and  _21
REMARK    3  A    between atoms: _22  and  _66
REMARK    4  A    between atoms: _27  and  _30
REMARK    5  A    between atoms: _32  and  _33
REMARK    6  A    between atoms: _38  and  _43
REMARK    7  A    between atoms: _43  and  _46
REMARK    8  A    between atoms: _53  and  _55
REMARK                            x       y       z     vdW  Elec       q    Type
REMARK                         _______ _______ _______ _____ _____    ______ ____
ROOT
ATOM     10  C   UNL     1      39.411  11.054  38.985  0.00  0.00    +0.038 A 
ATOM     11  C   UNL     1      38.237  10.417  39.461  0.00  0.00    +0.047 A 
ATOM     12  C   UNL     1      38.111   8.968  39.456  0.00  0.00    +0.035 A 
ATOM     32  C   UNL     1      39.203   8.197  38.960  0.00  0.00    +0.024 A 
ATOM     33  C   UNL     1      40.404   8.828  38.472  0.00  0.00    +0.007 A 
ATOM     34  C   UNL     1      40.532  10.257  38.472  0.00  0.00    -0.029 A 
ATOM     35  C   UNL     1      41.841  10.879  37.931  0.00  0.00    +0.045 C 
ENDROOT
BRANCH  10   9
ATOM      4  C   UNL     1      38.481  15.375  37.116  0.00  0.00    +0.077 A 
ATOM      5  C   UNL     1      37.830  14.805  35.972  0.00  0.00    +0.048 A 
ATOM      6  C   UNL     1      37.761  13.396  35.899  0.00  0.00    +0.116 A 
ATOM      7  N   UNL     1      38.307  12.624  36.901  0.00  0.00    -0.223 NA
ATOM      8  C   UNL     1      38.930  13.205  37.990  0.00  0.00    +0.220 A 
ATOM      9  N   UNL     1      39.478  12.448  39.014  0.00  0.00    -0.283 N 
ATOM     36  H   UNL     1      39.936  12.915  39.797  0.00  0.00    +0.155 HD
ATOM     37  N   UNL     1      39.009  14.549  38.083  0.00  0.00    -0.214 NA
BRANCH   4   3
ATOM      1  C   UNL     1      39.934  18.878  38.075  0.00  0.00    +0.020 A 
ATOM      2  C   UNL     1      39.842  17.449  37.880  0.00  0.00    +0.013 A 
ATOM      3  C   UNL     1      38.630  16.848  37.338  0.00  0.00    +0.019 A 
ATOM     38  C   UNL     1      37.521  17.728  36.998  0.00  0.00    +0.120 A 
ATOM     39  N   UNL     1      37.639  19.100  37.198  0.00  0.00    -0.263 NA
ATOM     40  C   UNL     1      38.800  19.689  37.721  0.00  0.00    +0.111 A 
ENDBRANCH   4   3
ENDBRANCH  10   9
BRANCH  12  13
ATOM     13  N   UNL     1      36.939   8.267  39.919  0.00  0.00    -0.281 N 
ATOM     14  C   UNL     1      35.665   8.286  39.376  0.00  0.00    +0.248 C 
ATOM     30  O   UNL     1      35.286   9.083  38.531  0.00  0.00    -0.270 OA
ATOM     31  H   UNL     1      37.065   7.685  40.747  0.00  0.00    +0.155 HD
BRANCH  14  15
ATOM     15  C   UNL     1      34.662   7.286  39.852  0.00  0.00    +0.037 A 
ATOM     16  C   UNL     1      33.782   7.573  40.988  0.00  0.00    +0.013 A 
ATOM     17  C   UNL     1      32.835   6.584  41.438  0.00  0.00    +0.005 A 
ATOM     18  C   UNL     1      32.762   5.297  40.750  0.00  0.00    -0.033 A 
ATOM     28  C   UNL     1      33.644   5.040  39.623  0.00  0.00    +0.005 A 
ATOM     29  C   UNL     1      34.574   6.007  39.180  0.00  0.00    +0.013 A 
BRANCH  18  19
ATOM     19  C   UNL     1      31.797   4.175  41.174  0.00  0.00    +0.119 C 
BRANCH  19  20
ATOM     20  N   UNL     1      32.044   3.524  42.495  0.00  0.00    -0.302 NA
ATOM     21  C   UNL     1      32.106   1.998  42.381  0.00  0.00    +0.066 C 
ATOM     22  C   UNL     1      32.388   1.334  43.769  0.00  0.00    -0.064 C 
ATOM     23  N   UNL     1      31.306   1.760  44.763  0.00  0.00    +0.379 N 
ATOM     24  C   UNL     1      31.536   1.091  46.053  0.00  0.00    -0.096 C 
ATOM     25  H   UNL     1      30.326   1.405  44.368  0.00  0.00    -0.082 HD
ATOM     26  C   UNL     1      31.236   3.275  44.881  0.00  0.00    -0.064 C 
ATOM     27  C   UNL     1      30.985   3.926  43.492  0.00  0.00    +0.066 C 
ENDBRANCH  19  20
ENDBRANCH  18  19
ENDBRANCH  14  15
ENDBRANCH  12  13
TORSDOF 6
ENDMDL
MODEL 4
REMARK VINA RESULT:      -6.9     27.009     30.716
REMARK  Name = C:\Users\Docking\Desktop\test protocol\1iep_ligandH.pdb
REMARK  8 active torsions:
REMARK  status: ('A' for Active; 'I' for Inactive)
REMARK    1  A    between atoms: _5  and  _11
REMARK    2  A    between atoms: _19  and  _21
REMARK    3  A    between atoms: _22  and  _66
REMARK    4  A    between atoms: _27  and  _30
REMARK    5  A    between atoms: _32  and  _33
REMARK    6  A    between atoms: _38  and  _43
REMARK    7  A    between atoms: _43  and  _46
REMARK    8  A    between atoms: _53  and  _55
REMARK                            x       y       z     vdW  Elec       q    Type
REMARK                         _______ _______ _______ _____ _____    ______ ____
ROOT
ATOM     10  C   UNL     1      39.670   9.630  39.142  0.00  0.00    +0.038 A 
ATOM     11  C   UNL     1      40.748   8.767  38.820  0.00  0.00    +0.047 A 
ATOM     12  C   UNL     1      41.947   9.272  38.169  0.00  0.00    +0.035 A 
ATOM     32  C   UNL     1      42.015  10.662  37.862  0.00  0.00    +0.024 A 
ATOM     33  C   UNL     1      40.928  11.553  38.181  0.00  0.00    +0.007 A 
ATOM     34  C   UNL     1      39.742  11.061  38.821  0.00  0.00    -0.029 A 
ATOM     35  C   UNL     1      38.604  12.061  39.134  0.00  0.00    +0.045 C 
ENDROOT
BRANCH  10   9
ATOM      4  C   UNL     1      35.390   7.462  39.014  0.00  0.00    +0.077 A 
ATOM      5  C   UNL     1      35.387   7.421  37.579  0.00  0.00    +0.048 A 
ATOM      6  C   UNL     1      36.503   7.975  36.913  0.00  0.00    +0.116 A 
ATOM      7  N   UNL     1      37.538   8.526  37.636  0.00  0.00    -0.223 NA
ATOM      8  C   UNL     1      37.509   8.551  39.018  0.00  0.00    +0.220 A 
ATOM      9  N   UNL     1      38.542   9.092  39.766  0.00  0.00    -0.283 N 
ATOM     36  H   UNL     1      38.479   9.098  40.784  0.00  0.00    +0.155 HD
ATOM     37  N   UNL     1      36.454   8.029  39.679  0.00  0.00    -0.214 NA
BRANCH   4   3
ATOM      1  C   UNL     1      32.845   5.024  40.711  0.00  0.00    +0.020 A 
ATOM      2  C   UNL     1      33.921   5.502  39.874  0.00  0.00    +0.013 A 
ATOM      3  C   UNL     1      34.284   6.914  39.861  0.00  0.00    +0.019 A 
ATOM     38  C   UNL     1      33.533   7.822  40.714  0.00  0.00    +0.120 A 
ATOM     39  N   UNL     1      32.501   7.333  41.509  0.00  0.00    -0.263 NA
ATOM     40  C   UNL     1      32.141   5.977  41.528  0.00  0.00    +0.111 A 
ENDBRANCH   4   3
ENDBRANCH  10   9
BRANCH  12  13
ATOM     13  N   UNL     1      43.071   8.442  37.811  0.00  0.00    -0.281 N 
ATOM     14  C   UNL     1      43.191   7.594  36.722  0.00  0.00    +0.248 C 
ATOM     30  O   UNL     1      42.262   7.258  36.003  0.00  0.00    -0.270 OA
ATOM     31  H   UNL     1      43.876   8.485  38.436  0.00  0.00    +0.155 HD
BRANCH  14  15
ATOM     15  C   UNL     1      44.534   7.027  36.393  0.00  0.00    +0.037 A 
ATOM     16  C   UNL     1      45.720   7.883  36.306  0.00  0.00    +0.013 A 
ATOM     17  C   UNL     1      47.000   7.313  35.970  0.00  0.00    +0.005 A 
ATOM     18  C   UNL     1      47.101   5.877  35.720  0.00  0.00    -0.033 A 
ATOM     28  C   UNL     1      45.910   5.050  35.818  0.00  0.00    +0.005 A 
ATOM     29  C   UNL     1      44.653   5.606  36.146  0.00  0.00    +0.013 A 
BRANCH  18  19
ATOM     19  C   UNL     1      48.423   5.186  35.334  0.00  0.00    +0.119 C 
BRANCH  19  20
ATOM     20  N   UNL     1      49.281   4.682  36.448  0.00  0.00    -0.302 NA
ATOM     21  C   UNL     1      48.545   3.666  37.326  0.00  0.00    +0.066 C 
ATOM     22  C   UNL     1      49.464   3.132  38.472  0.00  0.00    -0.064 C 
ATOM     23  N   UNL     1      49.965   4.310  39.310  0.00  0.00    +0.379 N 
ATOM     24  C   UNL     1      50.783   3.807  40.424  0.00  0.00    -0.096 C 
ATOM     25  H   UNL     1      49.073   4.817  39.747  0.00  0.00    -0.082 HD
ATOM     26  C   UNL     1      50.696   5.326  38.445  0.00  0.00    -0.064 C 
ATOM     27  C   UNL     1      49.783   5.828  37.291  0.00  0.00    +0.066 C 
ENDBRANCH  19  20
ENDBRANCH  18  19
ENDBRANCH  14  15
ENDBRANCH  12  13
TORSDOF 6
ENDMDL
MODEL 5
REMARK VINA RESULT:      -6.8      2.349      3.482
REMARK  Name = C:\Users\Docking\Desktop\test protocol\1iep_ligandH.pdb
REMARK  8 active torsions:
REMARK  status: ('A' for Active; 'I' for Inactive)
REMARK    1  A    between atoms: _5  and  _11
REMARK    2  A    between atoms: _19  and  _21
REMARK    3  A    between atoms: _22  and  _66
REMARK    4  A    between atoms: _27  and  _30
REMARK    5  A    between atoms: _32  and  _33
REMARK    6  A    between atoms: _38  and  _43
REMARK    7  A    between atoms: _43  and  _46
REMARK    8  A    between atoms: _53  and  _55
REMARK                            x       y       z     vdW  Elec       q    Type
REMARK                         _______ _______ _______ _____ _____    ______ ____
ROOT
ATOM     10  C   UNL     1      54.685  16.500  64.321  0.00  0.00    +0.038 A 
ATOM     11  C   UNL     1      53.695  15.503  64.512  0.00  0.00    +0.047 A 
ATOM     12  C   UNL     1      53.851  14.471  65.525  0.00  0.00    +0.035 A 
ATOM     32  C   UNL     1      55.029  14.485  66.327  0.00  0.00    +0.024 A 
ATOM     33  C   UNL     1      56.047  15.490  66.145  0.00  0.00    +0.007 A 
ATOM     34  C   UNL     1      55.899  16.510  65.146  0.00  0.00    -0.029 A 
ATOM     35  C   UNL     1      57.025  17.558  64.991  0.00  0.00    +0.045 C 
ENDROOT
BRANCH  10   9
ATOM      4  C   UNL     1      55.216  18.159  59.848  0.00  0.00    +0.077 A 
ATOM      5  C   UNL     1      55.984  17.014  59.451  0.00  0.00    +0.048 A 
ATOM      6  C   UNL     1      56.226  16.024  60.430  0.00  0.00    +0.116 A 
ATOM      7  N   UNL     1      55.732  16.178  61.707  0.00  0.00    -0.223 NA
ATOM      8  C   UNL     1      54.997  17.295  62.057  0.00  0.00    +0.220 A 
ATOM      9  N   UNL     1      54.483  17.467  63.334  0.00  0.00    -0.283 N 
ATOM     36  H   UNL     1      53.952  18.309  63.554  0.00  0.00    +0.155 HD
ATOM     37  N   UNL     1      54.753  18.256  61.141  0.00  0.00    -0.214 NA
BRANCH   4   3
ATOM      1  C   UNL     1      53.755  20.240  56.875  0.00  0.00    +0.020 A 
ATOM      2  C   UNL     1      54.057  19.116  57.732  0.00  0.00    +0.013 A 
ATOM      3  C   UNL     1      54.874  19.288  58.927  0.00  0.00    +0.019 A 
ATOM     38  C   UNL     1      55.373  20.621  59.229  0.00  0.00    +0.120 A 
ATOM     39  N   UNL     1      55.067  21.684  58.385  0.00  0.00    -0.263 NA
ATOM     40  C   UNL     1      54.283  21.530  57.232  0.00  0.00    +0.111 A 
ENDBRANCH   4   3
ENDBRANCH  10   9
BRANCH  12  13
ATOM     13  N   UNL     1      52.883  13.429  65.759  0.00  0.00    -0.281 N 
ATOM     14  C   UNL     1      52.052  13.269  66.856  0.00  0.00    +0.248 C 
ATOM     30  O   UNL     1      52.168  13.885  67.906  0.00  0.00    -0.270 OA
ATOM     31  H   UNL     1      52.800  12.723  65.028  0.00  0.00    +0.155 HD
BRANCH  14  15
ATOM     15  C   UNL     1      50.941  12.273  66.781  0.00  0.00    +0.037 A 
ATOM     16  C   UNL     1      50.028  12.067  67.908  0.00  0.00    +0.013 A 
ATOM     17  C   UNL     1      48.975  11.087  67.816  0.00  0.00    +0.005 A 
ATOM     18  C   UNL     1      48.829  10.305  66.591  0.00  0.00    -0.033 A 
ATOM     28  C   UNL     1      49.745  10.534  65.486  0.00  0.00    +0.005 A 
ATOM     29  C   UNL     1      50.779  11.493  65.573  0.00  0.00    +0.013 A 
BRANCH  18  19
ATOM     19  C   UNL     1      47.747   9.224  66.412  0.00  0.00    +0.119 C 
BRANCH  19  20
ATOM     20  N   UNL     1      47.697   8.517  65.098  0.00  0.00    -0.302 NA
ATOM     21  C   UNL     1      46.286   8.509  64.503  0.00  0.00    +0.066 C 
ATOM     22  C   UNL     1      46.256   7.786  63.117  0.00  0.00    -0.064 C 
ATOM     23  N   UNL     1      46.784   6.359  63.279  0.00  0.00    +0.379 N 
ATOM     24  C   UNL     1      46.703   5.657  61.989  0.00  0.00    -0.096 C 
ATOM     25  H   UNL     1      46.113   5.830  63.995  0.00  0.00    -0.082 HD
ATOM     26  C   UNL     1      48.185   6.357  63.872  0.00  0.00    -0.064 C 
ATOM     27  C   UNL     1      48.209   7.104  65.235  0.00  0.00    +0.066 C 
ENDBRANCH  19  20
ENDBRANCH  18  19
ENDBRANCH  14  15
ENDBRANCH  12  13
TORSDOF 6
ENDMDL
