MODEL 1
REMARK VINA RESULT:      -8.3      0.000      0.000
REMARK  Name = C:\Users\Docking\Desktop\test protocol\1iep_ligandH.pdb
REMARK  8 active torsions:
REMARK  status: ('A' for Active; 'I' for Inactive)
REMARK    1  A    between atoms: _5  and  _11
REMARK    2  A    between atoms: _19  and  _21
REMARK    3  A    between atoms: _22  and  _66
REMARK    4  A    between atoms: _27  and  _30
REMARK    5  A    between atoms: _32  and  _33
REMARK    6  A    between atoms: _38  and  _43
REMARK    7  A    between atoms: _43  and  _46
REMARK    8  A    between atoms: _53  and  _55
REMARK                            x       y       z     vdW  Elec       q    Type
REMARK                         _______ _______ _______ _____ _____    ______ ____
ROOT
ATOM     10  C   UNL     1      20.302  25.431   4.055  0.00  0.00    +0.038 A 
ATOM     11  C   UNL     1      19.002  25.210   4.579  0.00  0.00    +0.047 A 
ATOM     12  C   UNL     1      18.410  23.881   4.585  0.00  0.00    +0.035 A 
ATOM     32  C   UNL     1      19.171  22.800   4.053  0.00  0.00    +0.024 A 
ATOM     33  C   UNL     1      20.493  23.007   3.516  0.00  0.00    +0.007 A 
ATOM     34  C   UNL     1      21.081  24.316   3.504  0.00  0.00    -0.029 A 
ATOM     35  C   UNL     1      22.499  24.481   2.910  0.00  0.00    +0.045 C 
ENDROOT
BRANCH  10   9
ATOM      4  C   UNL     1      21.405  29.581   1.911  0.00  0.00    +0.077 A 
ATOM      5  C   UNL     1      20.931  29.118   0.638  0.00  0.00    +0.048 A 
ATOM      6  C   UNL     1      20.417  27.803   0.577  0.00  0.00    +0.116 A 
ATOM      7  N   UNL     1      20.384  27.019   1.710  0.00  0.00    -0.223 NA
ATOM      8  C   UNL     1      20.852  27.496   2.921  0.00  0.00    +0.220 A 
ATOM      9  N   UNL     1      20.822  26.728   4.074  0.00  0.00    -0.283 N 
ATOM     36  H   UNL     1      21.183  27.113   4.947  0.00  0.00    +0.155 HD
ATOM     37  N   UNL     1      21.349  28.747   3.005  0.00  0.00    -0.214 NA
BRANCH   4   3
ATOM      1  C   UNL     1      23.512  32.856   1.540  0.00  0.00    +0.020 A 
ATOM      2  C   UNL     1      22.997  31.532   1.278  0.00  0.00    +0.013 A 
ATOM      3  C   UNL     1      21.974  30.947   2.137  0.00  0.00    +0.019 A 
ATOM     38  C   UNL     1      21.489  31.736   3.260  0.00  0.00    +0.120 A 
ATOM     39  N   UNL     1      22.005  33.008   3.488  0.00  0.00    -0.263 NA
ATOM     40  C   UNL     1      22.991  33.579   2.670  0.00  0.00    +0.111 A 
ENDBRANCH   4   3
ENDBRANCH  10   9
BRANCH  12  13
ATOM     13  N   UNL     1      17.092  23.597   5.096  0.00  0.00    -0.281 N 
ATOM     14  C   UNL     1      16.756  22.919   6.256  0.00  0.00    +0.248 C 
ATOM     30  O   UNL     1      17.541  22.264   6.926  0.00  0.00    -0.270 OA
ATOM     31  H   UNL     1      16.312  23.937   4.534  0.00  0.00    +0.155 HD
BRANCH  14  15
ATOM     15  C   UNL     1      15.341  22.962   6.734  0.00  0.00    +0.037 A 
ATOM     16  C   UNL     1      14.993  22.608   8.113  0.00  0.00    +0.013 A 
ATOM     17  C   UNL     1      13.618  22.642   8.543  0.00  0.00    +0.005 A 
ATOM     18  C   UNL     1      12.579  23.034   7.593  0.00  0.00    -0.033 A 
ATOM     28  C   UNL     1      12.953  23.385   6.233  0.00  0.00    +0.005 A 
ATOM     29  C   UNL     1      14.300  23.352   5.807  0.00  0.00    +0.013 A 
BRANCH  18  19
ATOM     19  C   UNL     1      11.084  23.078   7.959  0.00  0.00    +0.119 C 
BRANCH  19  20
ATOM     20  N   UNL     1      10.441  24.422   8.049  0.00  0.00    -0.302 NA
ATOM     21  C   UNL     1      11.324  25.433   8.788  0.00  0.00    +0.066 C 
ATOM     22  C   UNL     1      10.646  26.840   8.853  0.00  0.00    -0.064 C 
ATOM     23  N   UNL     1       9.281  26.715   9.532  0.00  0.00    +0.379 N 
ATOM     24  C   UNL     1       8.666  28.045   9.647  0.00  0.00    -0.096 C 
ATOM     25  H   UNL     1       9.451  26.330  10.565  0.00  0.00    -0.082 HD
ATOM     26  C   UNL     1       8.398  25.710   8.806  0.00  0.00    -0.064 C 
ATOM     27  C   UNL     1       9.094  24.323   8.721  0.00  0.00    +0.066 C 
ENDBRANCH  19  20
ENDBRANCH  18  19
ENDBRANCH  14  15
ENDBRANCH  12  13
TORSDOF 6
ENDMDL
MODEL 2
REMARK VINA RESULT:      -8.0      2.095      2.945
REMARK  Name = C:\Users\Docking\Desktop\test protocol\1iep_ligandH.pdb
REMARK  8 active torsions:
REMARK  status: ('A' for Active; 'I' for Inactive)
REMARK    1  A    between atoms: _5  and  _11
REMARK    2  A    between atoms: _19  and  _21
REMARK    3  A    between atoms: _22  and  _66
REMARK    4  A    between atoms: _27  and  _30
REMARK    5  A    between atoms: _32  and  _33
REMARK    6  A    between atoms: _38  and  _43
REMARK    7  A    between atoms: _43  and  _46
REMARK    8  A    between atoms: _53  and  _55
REMARK                            x       y       z     vdW  Elec       q    Type
REMARK                         _______ _______ _______ _____ _____    ______ ____
ROOT
ATOM     10  C   UNL     1      20.213  25.576   4.244  0.00  0.00    +0.038 A 
ATOM     11  C   UNL     1      18.884  25.450   4.723  0.00  0.00    +0.047 A 
ATOM     12  C   UNL     1      18.230  24.153   4.796  0.00  0.00    +0.035 A 
ATOM     32  C   UNL     1      18.960  23.003   4.376  0.00  0.00    +0.024 A 
ATOM     33  C   UNL     1      20.312  23.113   3.885  0.00  0.00    +0.007 A 
ATOM     34  C   UNL     1      20.961  24.390   3.808  0.00  0.00    -0.029 A 
ATOM     35  C   UNL     1      22.409  24.449   3.268  0.00  0.00    +0.045 C 
ENDROOT
BRANCH  10   9
ATOM      4  C   UNL     1      21.395  29.602   1.914  0.00  0.00    +0.077 A 
ATOM      5  C   UNL     1      20.835  29.124   0.683  0.00  0.00    +0.048 A 
ATOM      6  C   UNL     1      20.259  27.834   0.689  0.00  0.00    +0.116 A 
ATOM      7  N   UNL     1      20.248  27.087   1.847  0.00  0.00    -0.223 NA
ATOM      8  C   UNL     1      20.799  27.577   3.017  0.00  0.00    +0.220 A 
ATOM      9  N   UNL     1      20.792  26.846   4.195  0.00  0.00    -0.283 N 
ATOM     36  H   UNL     1      21.215  27.240   5.036  0.00  0.00    +0.155 HD
ATOM     37  N   UNL     1      21.356  28.805   3.036  0.00  0.00    -0.214 NA
BRANCH   4   3
ATOM      1  C   UNL     1      23.650  32.748   1.351  0.00  0.00    +0.020 A 
ATOM      2  C   UNL     1      23.063  31.442   1.159  0.00  0.00    +0.013 A 
ATOM      3  C   UNL     1      22.037  30.946   2.067  0.00  0.00    +0.019 A 
ATOM     38  C   UNL     1      21.623  31.803   3.168  0.00  0.00    +0.120 A 
ATOM     39  N   UNL     1      22.207  33.056   3.328  0.00  0.00    -0.263 NA
ATOM     40  C   UNL     1      23.197  33.543   2.462  0.00  0.00    +0.111 A 
ENDBRANCH   4   3
ENDBRANCH  10   9
BRANCH  12  13
ATOM     13  N   UNL     1      16.880  23.965   5.266  0.00  0.00    -0.281 N 
ATOM     14  C   UNL     1      15.933  23.068   4.799  0.00  0.00    +0.248 C 
ATOM     30  O   UNL     1      16.034  22.435   3.758  0.00  0.00    -0.270 OA
ATOM     31  H   UNL     1      16.586  24.565   6.037  0.00  0.00    +0.155 HD
BRANCH  14  15
ATOM     15  C   UNL     1      14.686  22.855   5.595  0.00  0.00    +0.037 A 
ATOM     16  C   UNL     1      13.406  22.571   4.941  0.00  0.00    +0.013 A 
ATOM     17  C   UNL     1      12.215  22.386   5.732  0.00  0.00    +0.005 A 
ATOM     18  C   UNL     1      12.300  22.483   7.187  0.00  0.00    -0.033 A 
ATOM     28  C   UNL     1      13.583  22.760   7.810  0.00  0.00    +0.005 A 
ATOM     29  C   UNL     1      14.752  22.943   7.038  0.00  0.00    +0.013 A 
BRANCH  18  19
ATOM     19  C   UNL     1      11.076  22.320   8.109  0.00  0.00    +0.119 C 
BRANCH  19  20
ATOM     20  N   UNL     1      11.260  21.515   9.353  0.00  0.00    -0.302 NA
ATOM     21  C   UNL     1      10.188  20.431   9.499  0.00  0.00    +0.066 C 
ATOM     22  C   UNL     1      10.408  19.584  10.795  0.00  0.00    -0.064 C 
ATOM     23  N   UNL     1      10.411  20.511  12.012  0.00  0.00    +0.379 N 
ATOM     24  C   UNL     1      10.560  19.711  13.237  0.00  0.00    -0.096 C 
ATOM     25  H   UNL     1       9.418  21.014  12.056  0.00  0.00    -0.082 HD
ATOM     26  C   UNL     1      11.472  21.593  11.874  0.00  0.00    -0.064 C 
ATOM     27  C   UNL     1      11.261  22.410  10.568  0.00  0.00    +0.066 C 
ENDBRANCH  19  20
ENDBRANCH  18  19
ENDBRANCH  14  15
ENDBRANCH  12  13
TORSDOF 6
ENDMDL
MODEL 3
REMARK VINA RESULT:      -7.9      3.394     12.401
REMARK  Name = C:\Users\Docking\Desktop\test protocol\1iep_ligandH.pdb
REMARK  8 active torsions:
REMARK  status: ('A' for Active; 'I' for Inactive)
REMARK    1  A    between atoms: _5  and  _11
REMARK    2  A    between atoms: _19  and  _21
REMARK    3  A    between atoms: _22  and  _66
REMARK    4  A    between atoms: _27  and  _30
REMARK    5  A    between atoms: _32  and  _33
REMARK    6  A    between atoms: _38  and  _43
REMARK    7  A    between atoms: _43  and  _46
REMARK    8  A    between atoms: _53  and  _55
REMARK                            x       y       z     vdW  Elec       q    Type
REMARK                         _______ _______ _______ _____ _____    ______ ____
ROOT
ATOM     10  C   UNL     1      12.878  23.042   8.115  0.00  0.00    +0.038 A 
ATOM     11  C   UNL     1      14.052  23.446   7.430  0.00  0.00    +0.047 A 
ATOM     12  C   UNL     1      15.367  23.002   7.865  0.00  0.00    +0.035 A 
ATOM     32  C   UNL     1      15.449  22.144   9.000  0.00  0.00    +0.024 A 
ATOM     33  C   UNL     1      14.266  21.724   9.709  0.00  0.00    +0.007 A 
ATOM     34  C   UNL     1      12.966  22.162   9.286  0.00  0.00    -0.029 A 
ATOM     35  C   UNL     1      11.732  21.686  10.087  0.00  0.00    +0.045 C 
ENDROOT
BRANCH  10   9
ATOM      4  C   UNL     1       9.371  26.315   7.941  0.00  0.00    +0.077 A 
ATOM      5  C   UNL     1      10.048  27.176   8.868  0.00  0.00    +0.048 A 
ATOM      6  C   UNL     1      11.293  26.736   9.371  0.00  0.00    +0.116 A 
ATOM      7  N   UNL     1      11.813  25.525   8.971  0.00  0.00    -0.223 NA
ATOM      8  C   UNL     1      11.133  24.718   8.077  0.00  0.00    +0.220 A 
ATOM      9  N   UNL     1      11.641  23.499   7.654  0.00  0.00    -0.283 N 
ATOM     36  H   UNL     1      11.106  22.929   6.999  0.00  0.00    +0.155 HD
ATOM     37  N   UNL     1       9.942  25.114   7.583  0.00  0.00    -0.214 NA
BRANCH   4   3
ATOM      1  C   UNL     1       5.628  27.337   7.449  0.00  0.00    +0.020 A 
ATOM      2  C   UNL     1       6.881  27.031   8.099  0.00  0.00    +0.013 A 
ATOM      3  C   UNL     1       8.049  26.641   7.319  0.00  0.00    +0.019 A 
ATOM     38  C   UNL     1       7.914  26.570   5.872  0.00  0.00    +0.120 A 
ATOM     39  N   UNL     1       6.694  26.869   5.274  0.00  0.00    -0.263 NA
ATOM     40  C   UNL     1       5.563  27.244   6.014  0.00  0.00    +0.111 A 
ENDBRANCH   4   3
ENDBRANCH  10   9
BRANCH  12  13
ATOM     13  N   UNL     1      16.596  23.386   7.214  0.00  0.00    -0.281 N 
ATOM     14  C   UNL     1      17.274  22.714   6.210  0.00  0.00    +0.248 C 
ATOM     30  O   UNL     1      17.038  21.565   5.866  0.00  0.00    -0.270 OA
ATOM     31  H   UNL     1      17.016  24.259   7.532  0.00  0.00    +0.155 HD
BRANCH  14  15
ATOM     15  C   UNL     1      18.384  23.413   5.495  0.00  0.00    +0.037 A 
ATOM     16  C   UNL     1      18.125  24.580   4.647  0.00  0.00    +0.013 A 
ATOM     17  C   UNL     1      19.212  25.226   3.955  0.00  0.00    +0.005 A 
ATOM     18  C   UNL     1      20.569  24.707   4.109  0.00  0.00    -0.033 A 
ATOM     28  C   UNL     1      20.798  23.551   4.961  0.00  0.00    +0.005 A 
ATOM     29  C   UNL     1      19.735  22.915   5.640  0.00  0.00    +0.013 A 
BRANCH  18  19
ATOM     19  C   UNL     1      21.786  25.320   3.392  0.00  0.00    +0.119 C 
BRANCH  19  20
ATOM     20  N   UNL     1      22.252  24.650   2.141  0.00  0.00    -0.302 NA
ATOM     21  C   UNL     1      23.484  23.774   2.384  0.00  0.00    +0.066 C 
ATOM     22  C   UNL     1      23.944  23.063   1.070  0.00  0.00    -0.064 C 
ATOM     23  N   UNL     1      24.230  24.115  -0.003  0.00  0.00    +0.379 N 
ATOM     24  C   UNL     1      24.719  23.453  -1.221  0.00  0.00    -0.096 C 
ATOM     25  H   UNL     1      25.047  24.771   0.376  0.00  0.00    -0.082 HD
ATOM     26  C   UNL     1      23.010  24.992  -0.249  0.00  0.00    -0.064 C 
ATOM     27  C   UNL     1      22.544  25.671   1.069  0.00  0.00    +0.066 C 
ENDBRANCH  19  20
ENDBRANCH  18  19
ENDBRANCH  14  15
ENDBRANCH  12  13
TORSDOF 6
ENDMDL
MODEL 4
REMARK VINA RESULT:      -7.8     12.979     15.455
REMARK  Name = C:\Users\Docking\Desktop\test protocol\1iep_ligandH.pdb
REMARK  8 active torsions:
REMARK  status: ('A' for Active; 'I' for Inactive)
REMARK    1  A    between atoms: _5  and  _11
REMARK    2  A    between atoms: _19  and  _21
REMARK    3  A    between atoms: _22  and  _66
REMARK    4  A    between atoms: _27  and  _30
REMARK    5  A    between atoms: _32  and  _33
REMARK    6  A    between atoms: _38  and  _43
REMARK    7  A    between atoms: _43  and  _46
REMARK    8  A    between atoms: _53  and  _55
REMARK                            x       y       z     vdW  Elec       q    Type
REMARK                         _______ _______ _______ _____ _____    ______ ____
ROOT
ATOM     10  C   UNL     1      27.167  31.331  -3.341  0.00  0.00    +0.038 A 
ATOM     11  C   UNL     1      26.791  32.031  -2.166  0.00  0.00    +0.047 A 
ATOM     12  C   UNL     1      27.148  33.429  -1.976  0.00  0.00    +0.035 A 
ATOM     32  C   UNL     1      27.887  34.083  -3.004  0.00  0.00    +0.024 A 
ATOM     33  C   UNL     1      28.279  33.386  -4.204  0.00  0.00    +0.007 A 
ATOM     34  C   UNL     1      27.931  32.007  -4.396  0.00  0.00    -0.029 A 
ATOM     35  C   UNL     1      28.383  31.309  -5.700  0.00  0.00    +0.045 C 
ENDROOT
BRANCH  10   9
ATOM      4  C   UNL     1      28.114  26.634  -3.069  0.00  0.00    +0.077 A 
ATOM      5  C   UNL     1      29.467  26.870  -2.658  0.00  0.00    +0.048 A 
ATOM      6  C   UNL     1      29.883  28.215  -2.536  0.00  0.00    +0.116 A 
ATOM      7  N   UNL     1      29.001  29.239  -2.806  0.00  0.00    -0.223 NA
ATOM      8  C   UNL     1      27.703  28.977  -3.202  0.00  0.00    +0.220 A 
ATOM      9  N   UNL     1      26.797  29.991  -3.471  0.00  0.00    -0.283 N 
ATOM     36  H   UNL     1      25.850  29.756  -3.768  0.00  0.00    +0.155 HD
ATOM     37  N   UNL     1      27.282  27.701  -3.328  0.00  0.00    -0.214 NA
BRANCH   4   3
ATOM      1  C   UNL     1      27.619  22.754  -3.059  0.00  0.00    +0.020 A 
ATOM      2  C   UNL     1      28.233  24.048  -2.873  0.00  0.00    +0.013 A 
ATOM      3  C   UNL     1      27.525  25.268  -3.241  0.00  0.00    +0.019 A 
ATOM     38  C   UNL     1      26.187  25.142  -3.798  0.00  0.00    +0.120 A 
ATOM     39  N   UNL     1      25.622  23.882  -3.967  0.00  0.00    -0.263 NA
ATOM     40  C   UNL     1      26.294  22.701  -3.618  0.00  0.00    +0.111 A 
ENDBRANCH   4   3
ENDBRANCH  10   9
BRANCH  12  13
ATOM     13  N   UNL     1      26.801  34.189  -0.800  0.00  0.00    -0.281 N 
ATOM     14  C   UNL     1      25.539  34.569  -0.375  0.00  0.00    +0.248 C 
ATOM     30  O   UNL     1      24.528  34.496  -1.057  0.00  0.00    -0.270 OA
ATOM     31  H   UNL     1      27.580  34.481  -0.211  0.00  0.00    +0.155 HD
BRANCH  14  15
ATOM     15  C   UNL     1      25.379  35.125   1.004  0.00  0.00    +0.037 A 
ATOM     16  C   UNL     1      24.727  34.353   2.064  0.00  0.00    +0.013 A 
ATOM     17  C   UNL     1      24.570  34.919   3.380  0.00  0.00    +0.005 A 
ATOM     18  C   UNL     1      25.070  36.267   3.643  0.00  0.00    -0.033 A 
ATOM     28  C   UNL     1      25.718  37.009   2.575  0.00  0.00    +0.005 A 
ATOM     29  C   UNL     1      25.872  36.457   1.283  0.00  0.00    +0.013 A 
BRANCH  18  19
ATOM     19  C   UNL     1      24.927  36.959   5.012  0.00  0.00    +0.119 C 
BRANCH  19  20
ATOM     20  N   UNL     1      25.119  38.439   5.053  0.00  0.00    -0.302 NA
ATOM     21  C   UNL     1      25.072  38.985   6.483  0.00  0.00    +0.066 C 
ATOM     22  C   UNL     1      25.297  40.532   6.509  0.00  0.00    -0.064 C 
ATOM     23  N   UNL     1      24.243  41.213   5.635  0.00  0.00    +0.379 N 
ATOM     24  C   UNL     1      24.416  42.671   5.703  0.00  0.00    -0.096 C 
ATOM     25  H   UNL     1      23.242  40.970   6.061  0.00  0.00    -0.082 HD
ATOM     26  C   UNL     1      24.281  40.674   4.212  0.00  0.00    -0.064 C 
ATOM     27  C   UNL     1      24.085  39.132   4.199  0.00  0.00    +0.066 C 
ENDBRANCH  19  20
ENDBRANCH  18  19
ENDBRANCH  14  15
ENDBRANCH  12  13
TORSDOF 6
ENDMDL
MODEL 5
REMARK VINA RESULT:      -7.8     10.403     16.974
REMARK  Name = C:\Users\Docking\Desktop\test protocol\1iep_ligandH.pdb
REMARK  8 active torsions:
REMARK  status: ('A' for Active; 'I' for Inactive)
REMARK    1  A    between atoms: _5  and  _11
REMARK    2  A    between atoms: _19  and  _21
REMARK    3  A    between atoms: _22  and  _66
REMARK    4  A    between atoms: _27  and  _30
REMARK    5  A    between atoms: _32  and  _33
REMARK    6  A    between atoms: _38  and  _43
REMARK    7  A    between atoms: _43  and  _46
REMARK    8  A    between atoms: _53  and  _55
REMARK                            x       y       z     vdW  Elec       q    Type
REMARK                         _______ _______ _______ _____ _____    ______ ____
ROOT
ATOM     10  C   UNL     1       3.173  28.280   7.239  0.00  0.00    +0.038 A 
ATOM     11  C   UNL     1       4.293  27.636   7.824  0.00  0.00    +0.047 A 
ATOM     12  C   UNL     1       5.306  26.993   7.002  0.00  0.00    +0.035 A 
ATOM     32  C   UNL     1       5.148  27.027   5.586  0.00  0.00    +0.024 A 
ATOM     33  C   UNL     1       4.016  27.676   4.974  0.00  0.00    +0.007 A 
ATOM     34  C   UNL     1       3.012  28.311   5.780  0.00  0.00    -0.029 A 
ATOM     35  C   UNL     1       1.816  28.986   5.070  0.00  0.00    +0.045 C 
ENDROOT
BRANCH  10   9
ATOM      4  C   UNL     1      -0.993  28.266   9.622  0.00  0.00    +0.077 A 
ATOM      5  C   UNL     1      -1.334  26.960   9.136  0.00  0.00    +0.048 A 
ATOM      6  C   UNL     1      -0.413  26.329   8.270  0.00  0.00    +0.116 A 
ATOM      7  N   UNL     1       0.758  26.966   7.922  0.00  0.00    -0.223 NA
ATOM      8  C   UNL     1       1.056  28.226   8.406  0.00  0.00    +0.220 A 
ATOM      9  N   UNL     1       2.231  28.882   8.076  0.00  0.00    -0.283 N 
ATOM     36  H   UNL     1       2.410  29.815   8.448  0.00  0.00    +0.155 HD
ATOM     37  N   UNL     1       0.192  28.851   9.234  0.00  0.00    -0.214 NA
BRANCH   4   3
ATOM      1  C   UNL     1      -2.968  29.466  12.778  0.00  0.00    +0.020 A 
ATOM      2  C   UNL     1      -2.122  28.663  11.925  0.00  0.00    +0.013 A 
ATOM      3  C   UNL     1      -1.861  29.060  10.547  0.00  0.00    +0.019 A 
ATOM     38  C   UNL     1      -2.476  30.285  10.059  0.00  0.00    +0.120 A 
ATOM     39  N   UNL     1      -3.288  31.038  10.903  0.00  0.00    -0.263 NA
ATOM     40  C   UNL     1      -3.547  30.664  12.230  0.00  0.00    +0.111 A 
ENDBRANCH   4   3
ENDBRANCH  10   9
BRANCH  12  13
ATOM     13  N   UNL     1       6.460  26.316   7.540  0.00  0.00    -0.281 N 
ATOM     14  C   UNL     1       7.668  26.872   7.928  0.00  0.00    +0.248 C 
ATOM     30  O   UNL     1       8.019  28.014   7.671  0.00  0.00    -0.270 OA
ATOM     31  H   UNL     1       6.376  25.305   7.648  0.00  0.00    +0.155 HD
BRANCH  14  15
ATOM     15  C   UNL     1       8.633  26.032   8.702  0.00  0.00    +0.037 A 
ATOM     16  C   UNL     1       9.927  26.566   9.135  0.00  0.00    +0.013 A 
ATOM     17  C   UNL     1      10.846  25.729   9.865  0.00  0.00    +0.005 A 
ATOM     18  C   UNL     1      10.473  24.350  10.169  0.00  0.00    -0.033 A 
ATOM     28  C   UNL     1       9.180  23.848   9.733  0.00  0.00    +0.005 A 
ATOM     29  C   UNL     1       8.277  24.665   9.016  0.00  0.00    +0.013 A 
BRANCH  18  19
ATOM     19  C   UNL     1      11.400  23.380  10.926  0.00  0.00    +0.119 C 
BRANCH  19  20
ATOM     20  N   UNL     1      11.020  21.936  10.931  0.00  0.00    -0.302 NA
ATOM     21  C   UNL     1      11.046  21.340  12.342  0.00  0.00    +0.066 C 
ATOM     22  C   UNL     1      10.624  19.835  12.332  0.00  0.00    -0.064 C 
ATOM     23  N   UNL     1      11.550  19.055  11.398  0.00  0.00    +0.379 N 
ATOM     24  C   UNL     1      11.193  17.629  11.431  0.00  0.00    -0.096 C 
ATOM     25  H   UNL     1      12.589  19.153  11.792  0.00  0.00    -0.082 HD
ATOM     26  C   UNL     1      11.533  19.642   9.993  0.00  0.00    -0.064 C 
ATOM     27  C   UNL     1      11.925  21.146  10.018  0.00  0.00    +0.066 C 
ENDBRANCH  19  20
ENDBRANCH  18  19
ENDBRANCH  14  15
ENDBRANCH  12  13
TORSDOF 6
ENDMDL
