MODEL 1
REMARK VINA RESULT:      -7.6      0.000      0.000
REMARK  Name = C:\Users\Docking\Desktop\test protocol\1iep_ligandH.pdb
REMARK  8 active torsions:
REMARK  status: ('A' for Active; 'I' for Inactive)
REMARK    1  A    between atoms: _5  and  _11
REMARK    2  A    between atoms: _19  and  _21
REMARK    3  A    between atoms: _22  and  _66
REMARK    4  A    between atoms: _27  and  _30
REMARK    5  A    between atoms: _32  and  _33
REMARK    6  A    between atoms: _38  and  _43
REMARK    7  A    between atoms: _43  and  _46
REMARK    8  A    between atoms: _53  and  _55
REMARK                            x       y       z     vdW  Elec       q    Type
REMARK                         _______ _______ _______ _____ _____    ______ ____
ROOT
ATOM     10  C   UNL     1      94.201   1.087  31.522  0.00  0.00    +0.038 A 
ATOM     11  C   UNL     1      92.834   0.942  31.873  0.00  0.00    +0.047 A 
ATOM     12  C   UNL     1      92.442   0.323  33.130  0.00  0.00    +0.035 A 
ATOM     32  C   UNL     1      93.469  -0.135  34.007  0.00  0.00    +0.024 A 
ATOM     33  C   UNL     1      94.862   0.004  33.665  0.00  0.00    +0.007 A 
ATOM     34  C   UNL     1      95.255   0.611  32.426  0.00  0.00    -0.029 A 
ATOM     35  C   UNL     1      96.764   0.728  32.108  0.00  0.00    +0.045 C 
ENDROOT
BRANCH  10   9
ATOM      4  C   UNL     1      95.428   4.900  28.878  0.00  0.00    +0.077 A 
ATOM      5  C   UNL     1      95.405   5.772  30.017  0.00  0.00    +0.048 A 
ATOM      6  C   UNL     1      95.065   5.201  31.264  0.00  0.00    +0.116 A 
ATOM      7  N   UNL     1      94.773   3.857  31.353  0.00  0.00    -0.223 NA
ATOM      8  C   UNL     1      94.803   3.045  30.235  0.00  0.00    +0.220 A 
ATOM      9  N   UNL     1      94.521   1.689  30.303  0.00  0.00    -0.283 N 
ATOM     36  H   UNL     1      94.547   1.126  29.454  0.00  0.00    +0.155 HD
ATOM     37  N   UNL     1      95.123   3.566  29.032  0.00  0.00    -0.214 NA
BRANCH   4   3
ATOM      1  C   UNL     1      97.414   6.084  25.722  0.00  0.00    +0.020 A 
ATOM      2  C   UNL     1      97.136   5.649  27.072  0.00  0.00    +0.013 A 
ATOM      3  C   UNL     1      95.772   5.354  27.493  0.00  0.00    +0.019 A 
ATOM     38  C   UNL     1      94.705   5.508  26.516  0.00  0.00    +0.120 A 
ATOM     39  N   UNL     1      95.003   5.929  25.224  0.00  0.00    -0.263 NA
ATOM     40  C   UNL     1      96.311   6.218  24.808  0.00  0.00    +0.111 A 
ENDBRANCH   4   3
ENDBRANCH  10   9
BRANCH  12  13
ATOM     13  N   UNL     1      91.071   0.141  33.537  0.00  0.00    -0.281 N 
ATOM     14  C   UNL     1      90.461  -1.022  33.978  0.00  0.00    +0.248 C 
ATOM     30  O   UNL     1      90.951  -2.137  33.887  0.00  0.00    -0.270 OA
ATOM     31  H   UNL     1      90.478   0.970  33.494  0.00  0.00    +0.155 HD
BRANCH  14  15
ATOM     15  C   UNL     1      89.103  -0.934  34.598  0.00  0.00    +0.037 A 
ATOM     16  C   UNL     1      88.930  -0.535  35.997  0.00  0.00    +0.013 A 
ATOM     17  C   UNL     1      87.611  -0.475  36.574  0.00  0.00    +0.005 A 
ATOM     18  C   UNL     1      86.453  -0.815  35.751  0.00  0.00    -0.033 A 
ATOM     28  C   UNL     1      86.653  -1.203  34.365  0.00  0.00    +0.005 A 
ATOM     29  C   UNL     1      87.944  -1.264  33.795  0.00  0.00    +0.013 A 
BRANCH  18  19
ATOM     19  C   UNL     1      85.010  -0.799  36.290  0.00  0.00    +0.119 C 
BRANCH  19  20
ATOM     20  N   UNL     1      84.564   0.429  37.013  0.00  0.00    -0.302 NA
ATOM     21  C   UNL     1      84.262   0.150  38.488  0.00  0.00    +0.066 C 
ATOM     22  C   UNL     1      83.818   1.450  39.234  0.00  0.00    -0.064 C 
ATOM     23  N   UNL     1      82.594   2.044  38.533  0.00  0.00    +0.379 N 
ATOM     24  C   UNL     1      82.139   3.235  39.266  0.00  0.00    -0.096 C 
ATOM     25  H   UNL     1      81.778   1.286  38.579  0.00  0.00    -0.082 HD
ATOM     26  C   UNL     1      82.885   2.322  37.065  0.00  0.00    -0.064 C 
ATOM     27  C   UNL     1      83.354   1.030  36.340  0.00  0.00    +0.066 C 
ENDBRANCH  19  20
ENDBRANCH  18  19
ENDBRANCH  14  15
ENDBRANCH  12  13
TORSDOF 6
ENDMDL
MODEL 2
REMARK VINA RESULT:      -7.2      2.021     12.269
REMARK  Name = C:\Users\Docking\Desktop\test protocol\1iep_ligandH.pdb
REMARK  8 active torsions:
REMARK  status: ('A' for Active; 'I' for Inactive)
REMARK    1  A    between atoms: _5  and  _11
REMARK    2  A    between atoms: _19  and  _21
REMARK    3  A    between atoms: _22  and  _66
REMARK    4  A    between atoms: _27  and  _30
REMARK    5  A    between atoms: _32  and  _33
REMARK    6  A    between atoms: _38  and  _43
REMARK    7  A    between atoms: _43  and  _46
REMARK    8  A    between atoms: _53  and  _55
REMARK                            x       y       z     vdW  Elec       q    Type
REMARK                         _______ _______ _______ _____ _____    ______ ____
ROOT
ATOM     10  C   UNL     1      91.138  -0.657  34.512  0.00  0.00    +0.038 A 
ATOM     11  C   UNL     1      91.589   0.424  33.713  0.00  0.00    +0.047 A 
ATOM     12  C   UNL     1      92.621   0.236  32.705  0.00  0.00    +0.035 A 
ATOM     32  C   UNL     1      93.171  -1.068  32.537  0.00  0.00    +0.024 A 
ATOM     33  C   UNL     1      92.725  -2.178  33.341  0.00  0.00    +0.007 A 
ATOM     34  C   UNL     1      91.709  -1.998  34.338  0.00  0.00    -0.029 A 
ATOM     35  C   UNL     1      91.274  -3.223  35.176  0.00  0.00    +0.045 C 
ENDROOT
BRANCH  10   9
ATOM      4  C   UNL     1      86.553  -0.644  35.932  0.00  0.00    +0.077 A 
ATOM      5  C   UNL     1      86.096  -1.126  34.660  0.00  0.00    +0.048 A 
ATOM      6  C   UNL     1      87.072  -1.358  33.665  0.00  0.00    +0.116 A 
ATOM      7  N   UNL     1      88.403  -1.122  33.934  0.00  0.00    -0.223 NA
ATOM      8  C   UNL     1      88.810  -0.656  35.170  0.00  0.00    +0.220 A 
ATOM      9  N   UNL     1      90.144  -0.420  35.464  0.00  0.00    -0.283 N 
ATOM     36  H   UNL     1      90.403  -0.069  36.386  0.00  0.00    +0.155 HD
ATOM     37  N   UNL     1      87.897  -0.426  36.137  0.00  0.00    -0.214 NA
BRANCH   4   3
ATOM      1  C   UNL     1      85.064  -0.394  39.540  0.00  0.00    +0.020 A 
ATOM      2  C   UNL     1      85.978  -0.695  38.463  0.00  0.00    +0.013 A 
ATOM      3  C   UNL     1      85.643  -0.355  37.085  0.00  0.00    +0.019 A 
ATOM     38  C   UNL     1      84.367   0.295  36.830  0.00  0.00    +0.120 A 
ATOM     39  N   UNL     1      83.506   0.571  37.888  0.00  0.00    -0.263 NA
ATOM     40  C   UNL     1      83.816   0.248  39.217  0.00  0.00    +0.111 A 
ENDBRANCH   4   3
ENDBRANCH  10   9
BRANCH  12  13
ATOM     13  N   UNL     1      93.125   1.298  31.870  0.00  0.00    -0.281 N 
ATOM     14  C   UNL     1      94.113   2.221  32.169  0.00  0.00    +0.248 C 
ATOM     30  O   UNL     1      94.568   2.409  33.288  0.00  0.00    -0.270 OA
ATOM     31  H   UNL     1      92.701   1.379  30.945  0.00  0.00    +0.155 HD
BRANCH  14  15
ATOM     15  C   UNL     1      94.666   3.069  31.070  0.00  0.00    +0.037 A 
ATOM     16  C   UNL     1      94.998   4.479  31.291  0.00  0.00    +0.013 A 
ATOM     17  C   UNL     1      95.514   5.279  30.208  0.00  0.00    +0.005 A 
ATOM     18  C   UNL     1      95.702   4.670  28.894  0.00  0.00    -0.033 A 
ATOM     28  C   UNL     1      95.369   3.268  28.704  0.00  0.00    +0.005 A 
ATOM     29  C   UNL     1      94.862   2.481  29.762  0.00  0.00    +0.013 A 
BRANCH  18  19
ATOM     19  C   UNL     1      96.227   5.453  27.676  0.00  0.00    +0.119 C 
BRANCH  19  20
ATOM     20  N   UNL     1      95.222   6.181  26.846  0.00  0.00    -0.302 NA
ATOM     21  C   UNL     1      94.672   7.417  27.563  0.00  0.00    +0.066 C 
ATOM     22  C   UNL     1      93.638   8.179  26.671  0.00  0.00    -0.064 C 
ATOM     23  N   UNL     1      92.504   7.229  26.284  0.00  0.00    +0.379 N 
ATOM     24  C   UNL     1      91.501   7.957  25.494  0.00  0.00    -0.096 C 
ATOM     25  H   UNL     1      92.012   6.889  27.225  0.00  0.00    -0.082 HD
ATOM     26  C   UNL     1      93.042   5.995  25.573  0.00  0.00    -0.064 C 
ATOM     27  C   UNL     1      94.090   5.262  26.456  0.00  0.00    +0.066 C 
ENDBRANCH  19  20
ENDBRANCH  18  19
ENDBRANCH  14  15
ENDBRANCH  12  13
TORSDOF 6
ENDMDL
MODEL 3
REMARK VINA RESULT:      -7.2      7.833     13.284
REMARK  Name = C:\Users\Docking\Desktop\test protocol\1iep_ligandH.pdb
REMARK  8 active torsions:
REMARK  status: ('A' for Active; 'I' for Inactive)
REMARK    1  A    between atoms: _5  and  _11
REMARK    2  A    between atoms: _19  and  _21
REMARK    3  A    between atoms: _22  and  _66
REMARK    4  A    between atoms: _27  and  _30
REMARK    5  A    between atoms: _32  and  _33
REMARK    6  A    between atoms: _38  and  _43
REMARK    7  A    between atoms: _43  and  _46
REMARK    8  A    between atoms: _53  and  _55
REMARK                            x       y       z     vdW  Elec       q    Type
REMARK                         _______ _______ _______ _____ _____    ______ ____
ROOT
ATOM     10  C   UNL     1      83.409   4.282  37.591  0.00  0.00    +0.038 A 
ATOM     11  C   UNL     1      82.017   4.111  37.382  0.00  0.00    +0.047 A 
ATOM     12  C   UNL     1      81.042   4.890  38.130  0.00  0.00    +0.035 A 
ATOM     32  C   UNL     1      81.521   5.837  39.081  0.00  0.00    +0.024 A 
ATOM     33  C   UNL     1      82.933   6.023  39.307  0.00  0.00    +0.007 A 
ATOM     34  C   UNL     1      83.899   5.255  38.574  0.00  0.00    -0.029 A 
ATOM     35  C   UNL     1      85.399   5.492  38.862  0.00  0.00    +0.045 C 
ENDROOT
BRANCH  10   9
ATOM      4  C   UNL     1      85.700   0.164  36.679  0.00  0.00    +0.077 A 
ATOM      5  C   UNL     1      85.091  -0.492  37.799  0.00  0.00    +0.048 A 
ATOM      6  C   UNL     1      84.199   0.268  38.589  0.00  0.00    +0.116 A 
ATOM      7  N   UNL     1      83.943   1.584  38.273  0.00  0.00    -0.223 NA
ATOM      8  C   UNL     1      84.549   2.187  37.186  0.00  0.00    +0.220 A 
ATOM      9  N   UNL     1      84.300   3.507  36.845  0.00  0.00    -0.283 N 
ATOM     36  H   UNL     1      84.773   3.918  36.040  0.00  0.00    +0.155 HD
ATOM     37  N   UNL     1      85.406   1.484  36.417  0.00  0.00    -0.214 NA
BRANCH   4   3
ATOM      1  C   UNL     1      87.229  -1.711  33.605  0.00  0.00    +0.020 A 
ATOM      2  C   UNL     1      86.260  -1.075  34.468  0.00  0.00    +0.013 A 
ATOM      3  C   UNL     1      86.662  -0.506  35.748  0.00  0.00    +0.019 A 
ATOM     38  C   UNL     1      88.064  -0.598  36.128  0.00  0.00    +0.120 A 
ATOM     39  N   UNL     1      88.974  -1.218  35.278  0.00  0.00    -0.263 NA
ATOM     40  C   UNL     1      88.598  -1.770  34.044  0.00  0.00    +0.111 A 
ENDBRANCH   4   3
ENDBRANCH  10   9
BRANCH  12  13
ATOM     13  N   UNL     1      79.616   4.753  37.966  0.00  0.00    -0.281 N 
ATOM     14  C   UNL     1      78.685   4.351  38.910  0.00  0.00    +0.248 C 
ATOM     30  O   UNL     1      78.966   3.840  39.983  0.00  0.00    -0.270 OA
ATOM     31  H   UNL     1      79.248   4.981  37.042  0.00  0.00    +0.155 HD
BRANCH  14  15
ATOM     15  C   UNL     1      77.231   4.530  38.612  0.00  0.00    +0.037 A 
ATOM     16  C   UNL     1      76.209   4.259  39.626  0.00  0.00    +0.013 A 
ATOM     17  C   UNL     1      74.813   4.423  39.307  0.00  0.00    +0.005 A 
ATOM     18  C   UNL     1      74.431   4.862  37.967  0.00  0.00    -0.033 A 
ATOM     28  C   UNL     1      75.466   5.129  36.982  0.00  0.00    +0.005 A 
ATOM     29  C   UNL     1      76.835   4.969  37.291  0.00  0.00    +0.013 A 
BRANCH  18  19
ATOM     19  C   UNL     1      72.965   5.044  37.532  0.00  0.00    +0.119 C 
BRANCH  19  20
ATOM     20  N   UNL     1      72.320   3.907  36.810  0.00  0.00    -0.302 NA
ATOM     21  C   UNL     1      72.714   2.552  37.403  0.00  0.00    +0.066 C 
ATOM     22  C   UNL     1      72.013   1.375  36.650  0.00  0.00    -0.064 C 
ATOM     23  N   UNL     1      72.370   1.440  35.164  0.00  0.00    +0.379 N 
ATOM     24  C   UNL     1      71.759   0.301  34.462  0.00  0.00    -0.096 C 
ATOM     25  H   UNL     1      73.477   1.337  35.077  0.00  0.00    -0.082 HD
ATOM     26  C   UNL     1      71.984   2.786  34.566  0.00  0.00    -0.064 C 
ATOM     27  C   UNL     1      72.662   3.950  35.341  0.00  0.00    +0.066 C 
ENDBRANCH  19  20
ENDBRANCH  18  19
ENDBRANCH  14  15
ENDBRANCH  12  13
TORSDOF 6
ENDMDL
MODEL 4
REMARK VINA RESULT:      -7.2     14.473     20.755
REMARK  Name = C:\Users\Docking\Desktop\test protocol\1iep_ligandH.pdb
REMARK  8 active torsions:
REMARK  status: ('A' for Active; 'I' for Inactive)
REMARK    1  A    between atoms: _5  and  _11
REMARK    2  A    between atoms: _19  and  _21
REMARK    3  A    between atoms: _22  and  _66
REMARK    4  A    between atoms: _27  and  _30
REMARK    5  A    between atoms: _32  and  _33
REMARK    6  A    between atoms: _38  and  _43
REMARK    7  A    between atoms: _43  and  _46
REMARK    8  A    between atoms: _53  and  _55
REMARK                            x       y       z     vdW  Elec       q    Type
REMARK                         _______ _______ _______ _____ _____    ______ ____
ROOT
ATOM     10  C   UNL     1      75.976  -9.579  32.472  0.00  0.00    +0.038 A 
ATOM     11  C   UNL     1      77.346  -9.828  32.744  0.00  0.00    +0.047 A 
ATOM     12  C   UNL     1      78.017 -11.003  32.212  0.00  0.00    +0.035 A 
ATOM     32  C   UNL     1      77.264 -11.904  31.404  0.00  0.00    +0.024 A 
ATOM     33  C   UNL     1      75.871 -11.667  31.117  0.00  0.00    +0.007 A 
ATOM     34  C   UNL     1      75.202 -10.510  31.641  0.00  0.00    -0.029 A 
ATOM     35  C   UNL     1      73.706 -10.309  31.307  0.00  0.00    +0.045 C 
ENDROOT
BRANCH  10   9
ATOM      4  C   UNL     1      73.881  -7.186  36.066  0.00  0.00    +0.077 A 
ATOM      5  C   UNL     1      73.951  -8.321  36.941  0.00  0.00    +0.048 A 
ATOM      6  C   UNL     1      74.528  -9.503  36.425  0.00  0.00    +0.116 A 
ATOM      7  N   UNL     1      74.996  -9.537  35.130  0.00  0.00    -0.223 NA
ATOM      8  C   UNL     1      74.911  -8.425  34.312  0.00  0.00    +0.220 A 
ATOM      9  N   UNL     1      75.382  -8.434  33.008  0.00  0.00    -0.283 N 
ATOM     36  H   UNL     1      75.294  -7.596  32.434  0.00  0.00    +0.155 HD
ATOM     37  N   UNL     1      74.363  -7.285  34.780  0.00  0.00    -0.214 NA
BRANCH   4   3
ATOM      1  C   UNL     1      72.087  -4.352  38.078  0.00  0.00    +0.020 A 
ATOM      2  C   UNL     1      72.628  -5.648  37.740  0.00  0.00    +0.013 A 
ATOM      3  C   UNL     1      73.302  -5.865  36.466  0.00  0.00    +0.019 A 
ATOM     38  C   UNL     1      73.414  -4.740  35.550  0.00  0.00    +0.120 A 
ATOM     39  N   UNL     1      72.882  -3.503  35.902  0.00  0.00    -0.263 NA
ATOM     40  C   UNL     1      72.229  -3.283  37.124  0.00  0.00    +0.111 A 
ENDBRANCH   4   3
ENDBRANCH  10   9
BRANCH  12  13
ATOM     13  N   UNL     1      79.403 -11.313  32.462  0.00  0.00    -0.281 N 
ATOM     14  C   UNL     1      79.933 -12.081  33.485  0.00  0.00    +0.248 C 
ATOM     30  O   UNL     1      79.309 -12.446  34.471  0.00  0.00    -0.270 OA
ATOM     31  H   UNL     1      80.075 -10.917  31.805  0.00  0.00    +0.155 HD
BRANCH  14  15
ATOM     15  C   UNL     1      81.368 -12.493  33.411  0.00  0.00    +0.037 A 
ATOM     16  C   UNL     1      82.448 -11.525  33.623  0.00  0.00    +0.013 A 
ATOM     17  C   UNL     1      83.824 -11.945  33.528  0.00  0.00    +0.005 A 
ATOM     18  C   UNL     1      84.127 -13.340  33.221  0.00  0.00    -0.033 A 
ATOM     28  C   UNL     1      83.037 -14.280  33.021  0.00  0.00    +0.005 A 
ATOM     29  C   UNL     1      81.687 -13.872  33.112  0.00  0.00    +0.013 A 
BRANCH  18  19
ATOM     19  C   UNL     1      85.566 -13.871  33.080  0.00  0.00    +0.119 C 
BRANCH  19  20
ATOM     20  N   UNL     1      86.560 -12.983  32.407  0.00  0.00    -0.302 NA
ATOM     21  C   UNL     1      87.082 -13.591  31.102  0.00  0.00    +0.066 C 
ATOM     22  C   UNL     1      88.104 -12.639  30.400  0.00  0.00    -0.064 C 
ATOM     23  N   UNL     1      89.258 -12.338  31.357  0.00  0.00    +0.379 N 
ATOM     24  C   UNL     1      90.250 -11.490  30.679  0.00  0.00    -0.096 C 
ATOM     25  H   UNL     1      89.754 -13.306  31.604  0.00  0.00    -0.082 HD
ATOM     26  C   UNL     1      88.748 -11.736  32.658  0.00  0.00    -0.064 C 
ATOM     27  C   UNL     1      87.711 -12.677  33.333  0.00  0.00    +0.066 C 
ENDBRANCH  19  20
ENDBRANCH  18  19
ENDBRANCH  14  15
ENDBRANCH  12  13
TORSDOF 6
ENDMDL
MODEL 5
REMARK VINA RESULT:      -7.1     14.822     21.017
REMARK  Name = C:\Users\Docking\Desktop\test protocol\1iep_ligandH.pdb
REMARK  8 active torsions:
REMARK  status: ('A' for Active; 'I' for Inactive)
REMARK    1  A    between atoms: _5  and  _11
REMARK    2  A    between atoms: _19  and  _21
REMARK    3  A    between atoms: _22  and  _66
REMARK    4  A    between atoms: _27  and  _30
REMARK    5  A    between atoms: _32  and  _33
REMARK    6  A    between atoms: _38  and  _43
REMARK    7  A    between atoms: _43  and  _46
REMARK    8  A    between atoms: _53  and  _55
REMARK                            x       y       z     vdW  Elec       q    Type
REMARK                         _______ _______ _______ _____ _____    ______ ____
ROOT
ATOM     10  C   UNL     1      76.191  -9.901  32.564  0.00  0.00    +0.038 A 
ATOM     11  C   UNL     1      77.462 -10.532  32.568  0.00  0.00    +0.047 A 
ATOM     12  C   UNL     1      78.080 -10.970  33.809  0.00  0.00    +0.035 A 
ATOM     32  C   UNL     1      77.375 -10.754  35.029  0.00  0.00    +0.024 A 
ATOM     33  C   UNL     1      76.083 -10.114  35.043  0.00  0.00    +0.007 A 
ATOM     34  C   UNL     1      75.469  -9.676  33.822  0.00  0.00    -0.029 A 
ATOM     35  C   UNL     1      74.085  -8.990  33.898  0.00  0.00    +0.045 C 
ENDROOT
BRANCH  10   9
ATOM      4  C   UNL     1      73.640 -10.747  28.587  0.00  0.00    +0.077 A 
ATOM      5  C   UNL     1      73.399 -12.111  28.961  0.00  0.00    +0.048 A 
ATOM      6  C   UNL     1      73.955 -12.558  30.180  0.00  0.00    +0.116 A 
ATOM      7  N   UNL     1      74.695 -11.696  30.961  0.00  0.00    -0.223 NA
ATOM      8  C   UNL     1      74.910 -10.387  30.570  0.00  0.00    +0.220 A 
ATOM      9  N   UNL     1      75.644  -9.500  31.343  0.00  0.00    -0.283 N 
ATOM     36  H   UNL     1      75.786  -8.545  31.017  0.00  0.00    +0.155 HD
ATOM     37  N   UNL     1      74.391  -9.936  29.409  0.00  0.00    -0.214 NA
BRANCH   4   3
ATOM      1  C   UNL     1      73.015  -8.267  25.627  0.00  0.00    +0.020 A 
ATOM      2  C   UNL     1      73.552  -8.821  26.849  0.00  0.00    +0.013 A 
ATOM      3  C   UNL     1      73.116 -10.126  27.330  0.00  0.00    +0.019 A 
ATOM     38  C   UNL     1      72.128 -10.850  26.544  0.00  0.00    +0.120 A 
ATOM     39  N   UNL     1      71.628 -10.291  25.373  0.00  0.00    -0.263 NA
ATOM     40  C   UNL     1      72.039  -9.035  24.901  0.00  0.00    +0.111 A 
ENDBRANCH   4   3
ENDBRANCH  10   9
BRANCH  12  13
ATOM     13  N   UNL     1      79.371 -11.609  33.876  0.00  0.00    -0.281 N 
ATOM     14  C   UNL     1      79.916 -12.524  32.990  0.00  0.00    +0.248 C 
ATOM     30  O   UNL     1      79.285 -13.097  32.115  0.00  0.00    -0.270 OA
ATOM     31  H   UNL     1      79.955 -11.355  34.673  0.00  0.00    +0.155 HD
BRANCH  14  15
ATOM     15  C   UNL     1      81.367 -12.862  33.102  0.00  0.00    +0.037 A 
ATOM     16  C   UNL     1      81.849 -14.227  32.878  0.00  0.00    +0.013 A 
ATOM     17  C   UNL     1      83.253 -14.529  33.009  0.00  0.00    +0.005 A 
ATOM     18  C   UNL     1      84.185 -13.462  33.365  0.00  0.00    -0.033 A 
ATOM     28  C   UNL     1      83.680 -12.116  33.577  0.00  0.00    +0.005 A 
ATOM     29  C   UNL     1      82.305 -11.816  33.450  0.00  0.00    +0.013 A 
BRANCH  18  19
ATOM     19  C   UNL     1      85.696 -13.698  33.548  0.00  0.00    +0.119 C 
BRANCH  19  20
ATOM     20  N   UNL     1      86.623 -12.840  32.751  0.00  0.00    -0.302 NA
ATOM     21  C   UNL     1      86.978 -13.475  31.404  0.00  0.00    +0.066 C 
ATOM     22  C   UNL     1      87.930 -12.553  30.574  0.00  0.00    -0.064 C 
ATOM     23  N   UNL     1      89.194 -12.266  31.387  0.00  0.00    +0.379 N 
ATOM     24  C   UNL     1      90.117 -11.448  30.587  0.00  0.00    -0.096 C 
ATOM     25  H   UNL     1      89.695 -13.241  31.589  0.00  0.00    -0.082 HD
ATOM     26  C   UNL     1      88.849 -11.637  32.730  0.00  0.00    -0.064 C 
ATOM     27  C   UNL     1      87.879 -12.547  33.534  0.00  0.00    +0.066 C 
ENDBRANCH  19  20
ENDBRANCH  18  19
ENDBRANCH  14  15
ENDBRANCH  12  13
TORSDOF 6
ENDMDL
