MODEL 1
REMARK VINA RESULT:      -7.1      0.000      0.000
REMARK  Name = C:\Users\Docking\Desktop\test protocol\1iep_ligandH.pdb
REMARK  8 active torsions:
REMARK  status: ('A' for Active; 'I' for Inactive)
REMARK    1  A    between atoms: _5  and  _11
REMARK    2  A    between atoms: _19  and  _21
REMARK    3  A    between atoms: _22  and  _66
REMARK    4  A    between atoms: _27  and  _30
REMARK    5  A    between atoms: _32  and  _33
REMARK    6  A    between atoms: _38  and  _43
REMARK    7  A    between atoms: _43  and  _46
REMARK    8  A    between atoms: _53  and  _55
REMARK                            x       y       z     vdW  Elec       q    Type
REMARK                         _______ _______ _______ _____ _____    ______ ____
ROOT
ATOM     10  C   UNL     1      74.521  -7.640  37.505  0.00  0.00    +0.038 A 
ATOM     11  C   UNL     1      75.685  -8.182  36.903  0.00  0.00    +0.047 A 
ATOM     12  C   UNL     1      75.656  -9.476  36.238  0.00  0.00    +0.035 A 
ATOM     32  C   UNL     1      74.422 -10.190  36.203  0.00  0.00    +0.024 A 
ATOM     33  C   UNL     1      73.230  -9.654  36.812  0.00  0.00    +0.007 A 
ATOM     34  C   UNL     1      73.253  -8.380  37.471  0.00  0.00    -0.029 A 
ATOM     35  C   UNL     1      71.946  -7.858  38.111  0.00  0.00    +0.045 C 
ENDROOT
BRANCH  10   9
ATOM      4  C   UNL     1      74.382  -2.843  37.418  0.00  0.00    +0.077 A 
ATOM      5  C   UNL     1      74.148  -2.817  36.003  0.00  0.00    +0.048 A 
ATOM      6  C   UNL     1      74.076  -4.060  35.334  0.00  0.00    +0.116 A 
ATOM      7  N   UNL     1      74.229  -5.234  36.037  0.00  0.00    -0.223 NA
ATOM      8  C   UNL     1      74.457  -5.224  37.401  0.00  0.00    +0.220 A 
ATOM      9  N   UNL     1      74.606  -6.394  38.130  0.00  0.00    -0.283 N 
ATOM     36  H   UNL     1      74.779  -6.344  39.134  0.00  0.00    +0.155 HD
ATOM     37  N   UNL     1      74.530  -4.051  38.063  0.00  0.00    -0.214 NA
BRANCH   4   3
ATOM      1  C   UNL     1      74.366  -0.408  40.479  0.00  0.00    +0.020 A 
ATOM      2  C   UNL     1      74.258  -1.624  39.706  0.00  0.00    +0.013 A 
ATOM      3  C   UNL     1      74.480  -1.613  38.266  0.00  0.00    +0.019 A 
ATOM     38  C   UNL     1      74.813  -0.346  37.633  0.00  0.00    +0.120 A 
ATOM     39  N   UNL     1      74.908   0.810  38.403  0.00  0.00    -0.263 NA
ATOM     40  C   UNL     1      74.694   0.812  39.789  0.00  0.00    +0.111 A 
ENDBRANCH   4   3
ENDBRANCH  10   9
BRANCH  12  13
ATOM     13  N   UNL     1      76.807 -10.080  35.616  0.00  0.00    -0.281 N 
ATOM     14  C   UNL     1      77.147 -10.081  34.273  0.00  0.00    +0.248 C 
ATOM     30  O   UNL     1      76.397  -9.743  33.370  0.00  0.00    -0.270 OA
ATOM     31  H   UNL     1      77.450 -10.566  36.241  0.00  0.00    +0.155 HD
BRANCH  14  15
ATOM     15  C   UNL     1      78.514 -10.537  33.875  0.00  0.00    +0.037 A 
ATOM     16  C   UNL     1      79.439 -11.112  34.854  0.00  0.00    +0.013 A 
ATOM     17  C   UNL     1      80.757 -11.529  34.447  0.00  0.00    +0.005 A 
ATOM     18  C   UNL     1      81.158 -11.373  33.051  0.00  0.00    -0.033 A 
ATOM     28  C   UNL     1      80.219 -10.804  32.098  0.00  0.00    +0.005 A 
ATOM     29  C   UNL     1      78.926 -10.394  32.494  0.00  0.00    +0.013 A 
BRANCH  18  19
ATOM     19  C   UNL     1      82.552 -11.770  32.531  0.00  0.00    +0.119 C 
BRANCH  19  20
ATOM     20  N   UNL     1      83.435 -12.537  33.460  0.00  0.00    -0.302 NA
ATOM     21  C   UNL     1      84.918 -12.245  33.215  0.00  0.00    +0.066 C 
ATOM     22  C   UNL     1      85.826 -13.038  34.210  0.00  0.00    -0.064 C 
ATOM     23  N   UNL     1      85.539 -14.535  34.077  0.00  0.00    +0.379 N 
ATOM     24  C   UNL     1      86.433 -15.287  34.970  0.00  0.00    -0.096 C 
ATOM     25  H   UNL     1      85.778 -14.833  33.030  0.00  0.00    -0.082 HD
ATOM     26  C   UNL     1      84.066 -14.833  34.317  0.00  0.00    -0.064 C 
ATOM     27  C   UNL     1      83.171 -14.018  33.342  0.00  0.00    +0.066 C 
ENDBRANCH  19  20
ENDBRANCH  18  19
ENDBRANCH  14  15
ENDBRANCH  12  13
TORSDOF 6
ENDMDL
MODEL 2
REMARK VINA RESULT:      -7.0      9.434     16.554
REMARK  Name = C:\Users\Docking\Desktop\test protocol\1iep_ligandH.pdb
REMARK  8 active torsions:
REMARK  status: ('A' for Active; 'I' for Inactive)
REMARK    1  A    between atoms: _5  and  _11
REMARK    2  A    between atoms: _19  and  _21
REMARK    3  A    between atoms: _22  and  _66
REMARK    4  A    between atoms: _27  and  _30
REMARK    5  A    between atoms: _32  and  _33
REMARK    6  A    between atoms: _38  and  _43
REMARK    7  A    between atoms: _43  and  _46
REMARK    8  A    between atoms: _53  and  _55
REMARK                            x       y       z     vdW  Elec       q    Type
REMARK                         _______ _______ _______ _____ _____    ______ ____
ROOT
ATOM     10  C   UNL     1      93.318  -9.018  29.717  0.00  0.00    +0.038 A 
ATOM     11  C   UNL     1      91.975  -9.398  29.973  0.00  0.00    +0.047 A 
ATOM     12  C   UNL     1      91.638 -10.762  30.349  0.00  0.00    +0.035 A 
ATOM     32  C   UNL     1      92.693 -11.714  30.457  0.00  0.00    +0.024 A 
ATOM     33  C   UNL     1      94.063 -11.345  30.199  0.00  0.00    +0.007 A 
ATOM     34  C   UNL     1      94.402 -10.002  29.826  0.00  0.00    -0.029 A 
ATOM     35  C   UNL     1      95.887  -9.665  29.555  0.00  0.00    +0.045 C 
ENDROOT
BRANCH  10   9
ATOM      4  C   UNL     1      94.088  -4.410  30.817  0.00  0.00    +0.077 A 
ATOM      5  C   UNL     1      93.917  -4.655  32.220  0.00  0.00    +0.048 A 
ATOM      6  C   UNL     1      93.625  -5.980  32.617  0.00  0.00    +0.116 A 
ATOM      7  N   UNL     1      93.514  -6.977  31.672  0.00  0.00    -0.223 NA
ATOM      8  C   UNL     1      93.683  -6.706  30.327  0.00  0.00    +0.220 A 
ATOM      9  N   UNL     1      93.585  -7.695  29.360  0.00  0.00    -0.283 N 
ATOM     36  H   UNL     1      93.709  -7.453  28.377  0.00  0.00    +0.155 HD
ATOM     37  N   UNL     1      93.962  -5.449  29.922  0.00  0.00    -0.214 NA
BRANCH   4   3
ATOM      1  C   UNL     1      95.460  -1.564  28.512  0.00  0.00    +0.020 A 
ATOM      2  C   UNL     1      95.184  -2.886  29.025  0.00  0.00    +0.013 A 
ATOM      3  C   UNL     1      94.403  -3.064  30.243  0.00  0.00    +0.019 A 
ATOM     38  C   UNL     1      93.911  -1.875  30.922  0.00  0.00    +0.120 A 
ATOM     39  N   UNL     1      94.194  -0.614  30.405  0.00  0.00    -0.263 NA
ATOM     40  C   UNL     1      94.946  -0.430  29.235  0.00  0.00    +0.111 A 
ENDBRANCH   4   3
ENDBRANCH  10   9
BRANCH  12  13
ATOM     13  N   UNL     1      90.292 -11.208  30.613  0.00  0.00    -0.281 N 
ATOM     14  C   UNL     1      89.736 -12.447  30.340  0.00  0.00    +0.248 C 
ATOM     30  O   UNL     1      90.254 -13.294  29.627  0.00  0.00    -0.270 OA
ATOM     31  H   UNL     1      89.675 -10.527  31.056  0.00  0.00    +0.155 HD
BRANCH  14  15
ATOM     15  C   UNL     1      88.407 -12.788  30.931  0.00  0.00    +0.037 A 
ATOM     16  C   UNL     1      87.604 -13.897  30.408  0.00  0.00    +0.013 A 
ATOM     17  C   UNL     1      86.318 -14.194  30.985  0.00  0.00    +0.005 A 
ATOM     18  C   UNL     1      85.825 -13.381  32.094  0.00  0.00    -0.033 A 
ATOM     28  C   UNL     1      86.644 -12.290  32.597  0.00  0.00    +0.005 A 
ATOM     29  C   UNL     1      87.905 -11.995  32.033  0.00  0.00    +0.013 A 
BRANCH  18  19
ATOM     19  C   UNL     1      84.455 -13.612  32.758  0.00  0.00    +0.119 C 
BRANCH  19  20
ATOM     20  N   UNL     1      83.276 -12.928  32.148  0.00  0.00    -0.302 NA
ATOM     21  C   UNL     1      82.911 -11.640  32.890  0.00  0.00    +0.066 C 
ATOM     22  C   UNL     1      81.690 -10.926  32.226  0.00  0.00    -0.064 C 
ATOM     23  N   UNL     1      80.499 -11.885  32.190  0.00  0.00    +0.379 N 
ATOM     24  C   UNL     1      79.332 -11.198  31.618  0.00  0.00    -0.096 C 
ATOM     25  H   UNL     1      80.251 -12.155  33.243  0.00  0.00    -0.082 HD
ATOM     26  C   UNL     1      80.854 -13.171  31.456  0.00  0.00    -0.064 C 
ATOM     27  C   UNL     1      82.087 -13.857  32.107  0.00  0.00    +0.066 C 
ENDBRANCH  19  20
ENDBRANCH  18  19
ENDBRANCH  14  15
ENDBRANCH  12  13
TORSDOF 6
ENDMDL
MODEL 3
REMARK VINA RESULT:      -6.9     10.442     17.361
REMARK  Name = C:\Users\Docking\Desktop\test protocol\1iep_ligandH.pdb
REMARK  8 active torsions:
REMARK  status: ('A' for Active; 'I' for Inactive)
REMARK    1  A    between atoms: _5  and  _11
REMARK    2  A    between atoms: _19  and  _21
REMARK    3  A    between atoms: _22  and  _66
REMARK    4  A    between atoms: _27  and  _30
REMARK    5  A    between atoms: _32  and  _33
REMARK    6  A    between atoms: _38  and  _43
REMARK    7  A    between atoms: _43  and  _46
REMARK    8  A    between atoms: _53  and  _55
REMARK                            x       y       z     vdW  Elec       q    Type
REMARK                         _______ _______ _______ _____ _____    ______ ____
ROOT
ATOM     10  C   UNL     1      90.393 -12.214  30.408  0.00  0.00    +0.038 A 
ATOM     11  C   UNL     1      90.845 -10.870  30.389  0.00  0.00    +0.047 A 
ATOM     12  C   UNL     1      92.265 -10.554  30.369  0.00  0.00    +0.035 A 
ATOM     32  C   UNL     1      93.197 -11.632  30.365  0.00  0.00    +0.024 A 
ATOM     33  C   UNL     1      92.755 -13.004  30.384  0.00  0.00    +0.007 A 
ATOM     34  C   UNL     1      91.356 -13.322  30.407  0.00  0.00    -0.029 A 
ATOM     35  C   UNL     1      90.939 -14.811  30.434  0.00  0.00    +0.045 C 
ENDROOT
BRANCH  10   9
ATOM      4  C   UNL     1      86.239 -12.848  32.727  0.00  0.00    +0.077 A 
ATOM      5  C   UNL     1      86.865 -12.705  34.010  0.00  0.00    +0.048 A 
ATOM      6  C   UNL     1      88.259 -12.475  34.029  0.00  0.00    +0.116 A 
ATOM      7  N   UNL     1      88.964 -12.397  32.848  0.00  0.00    -0.223 NA
ATOM      8  C   UNL     1      88.330 -12.542  31.628  0.00  0.00    +0.220 A 
ATOM      9  N   UNL     1      89.018 -12.459  30.427  0.00  0.00    -0.283 N 
ATOM     36  H   UNL     1      88.515 -12.579  29.548  0.00  0.00    +0.155 HD
ATOM     37  N   UNL     1      87.000 -12.763  31.582  0.00  0.00    -0.214 NA
BRANCH   4   3
ATOM      1  C   UNL     1      82.350 -12.430  32.776  0.00  0.00    +0.020 A 
ATOM      2  C   UNL     1      83.752 -12.147  32.979  0.00  0.00    +0.013 A 
ATOM      3  C   UNL     1      84.773 -13.091  32.541  0.00  0.00    +0.019 A 
ATOM     38  C   UNL     1      84.338 -14.320  31.896  0.00  0.00    +0.120 A 
ATOM     39  N   UNL     1      82.981 -14.566  31.715  0.00  0.00    -0.263 NA
ATOM     40  C   UNL     1      81.989 -13.666  32.133  0.00  0.00    +0.111 A 
ENDBRANCH   4   3
ENDBRANCH  10   9
BRANCH  12  13
ATOM     13  N   UNL     1      92.784  -9.208  30.357  0.00  0.00    -0.281 N 
ATOM     14  C   UNL     1      92.750  -8.291  29.320  0.00  0.00    +0.248 C 
ATOM     30  O   UNL     1      92.456  -8.564  28.165  0.00  0.00    -0.270 OA
ATOM     31  H   UNL     1      93.230  -8.894  31.219  0.00  0.00    +0.155 HD
BRANCH  14  15
ATOM     15  C   UNL     1      93.108  -6.868  29.602  0.00  0.00    +0.037 A 
ATOM     16  C   UNL     1      92.075  -5.842  29.764  0.00  0.00    +0.013 A 
ATOM     17  C   UNL     1      92.448  -4.473  30.019  0.00  0.00    +0.005 A 
ATOM     18  C   UNL     1      93.863  -4.123  30.115  0.00  0.00    -0.033 A 
ATOM     28  C   UNL     1      94.868  -5.161  29.955  0.00  0.00    +0.005 A 
ATOM     29  C   UNL     1      94.505  -6.504  29.704  0.00  0.00    +0.013 A 
BRANCH  18  19
ATOM     19  C   UNL     1      94.354  -2.684  30.363  0.00  0.00    +0.119 C 
BRANCH  19  20
ATOM     20  N   UNL     1      95.662  -2.294  29.759  0.00  0.00    -0.302 NA
ATOM     21  C   UNL     1      96.550  -1.535  30.750  0.00  0.00    +0.066 C 
ATOM     22  C   UNL     1      97.923  -1.155  30.108  0.00  0.00    -0.064 C 
ATOM     23  N   UNL     1      97.681  -0.320  28.849  0.00  0.00    +0.379 N 
ATOM     24  C   UNL     1      98.972   0.089  28.276  0.00  0.00    -0.096 C 
ATOM     25  H   UNL     1      97.139   0.605  29.156  0.00  0.00    -0.082 HD
ATOM     26  C   UNL     1      96.797  -1.065  27.859  0.00  0.00    -0.064 C 
ATOM     27  C   UNL     1      95.447  -1.465  28.516  0.00  0.00    +0.066 C 
ENDBRANCH  19  20
ENDBRANCH  18  19
ENDBRANCH  14  15
ENDBRANCH  12  13
TORSDOF 6
ENDMDL
MODEL 4
REMARK VINA RESULT:      -6.9      9.618     16.572
REMARK  Name = C:\Users\Docking\Desktop\test protocol\1iep_ligandH.pdb
REMARK  8 active torsions:
REMARK  status: ('A' for Active; 'I' for Inactive)
REMARK    1  A    between atoms: _5  and  _11
REMARK    2  A    between atoms: _19  and  _21
REMARK    3  A    between atoms: _22  and  _66
REMARK    4  A    between atoms: _27  and  _30
REMARK    5  A    between atoms: _32  and  _33
REMARK    6  A    between atoms: _38  and  _43
REMARK    7  A    between atoms: _43  and  _46
REMARK    8  A    between atoms: _53  and  _55
REMARK                            x       y       z     vdW  Elec       q    Type
REMARK                         _______ _______ _______ _____ _____    ______ ____
ROOT
ATOM     10  C   UNL     1      93.876  -8.619  29.792  0.00  0.00    +0.038 A 
ATOM     11  C   UNL     1      92.618  -9.205  30.085  0.00  0.00    +0.047 A 
ATOM     12  C   UNL     1      92.498 -10.628  30.364  0.00  0.00    +0.035 A 
ATOM     32  C   UNL     1      93.680 -11.424  30.339  0.00  0.00    +0.024 A 
ATOM     33  C   UNL     1      94.967 -10.844  30.043  0.00  0.00    +0.007 A 
ATOM     34  C   UNL     1      95.091  -9.442  29.764  0.00  0.00    -0.029 A 
ATOM     35  C   UNL     1      96.495  -8.876  29.447  0.00  0.00    +0.045 C 
ENDROOT
BRANCH  10   9
ATOM      4  C   UNL     1      93.952  -4.038  31.225  0.00  0.00    +0.077 A 
ATOM      5  C   UNL     1      93.840  -4.407  32.607  0.00  0.00    +0.048 A 
ATOM      6  C   UNL     1      93.759  -5.785  32.906  0.00  0.00    +0.116 A 
ATOM      7  N   UNL     1      93.788  -6.717  31.891  0.00  0.00    -0.223 NA
ATOM      8  C   UNL     1      93.895  -6.328  30.568  0.00  0.00    +0.220 A 
ATOM      9  N   UNL     1      93.934  -7.248  29.532  0.00  0.00    -0.283 N 
ATOM     36  H   UNL     1      94.006  -6.920  28.569  0.00  0.00    +0.155 HD
ATOM     37  N   UNL     1      93.973  -5.017  30.256  0.00  0.00    -0.214 NA
BRANCH   4   3
ATOM      1  C   UNL     1      94.860  -0.855  29.141  0.00  0.00    +0.020 A 
ATOM      2  C   UNL     1      94.797  -2.237  29.558  0.00  0.00    +0.013 A 
ATOM      3  C   UNL     1      94.051  -2.622  30.749  0.00  0.00    +0.019 A 
ATOM     38  C   UNL     1      93.374  -1.577  31.502  0.00  0.00    +0.120 A 
ATOM     39  N   UNL     1      93.454  -0.254  31.078  0.00  0.00    -0.263 NA
ATOM     40  C   UNL     1      94.171   0.129  29.934  0.00  0.00    +0.111 A 
ENDBRANCH   4   3
ENDBRANCH  10   9
BRANCH  12  13
ATOM     13  N   UNL     1      91.247 -11.281  30.659  0.00  0.00    -0.281 N 
ATOM     14  C   UNL     1      90.675 -11.504  31.900  0.00  0.00    +0.248 C 
ATOM     30  O   UNL     1      91.258 -11.365  32.965  0.00  0.00    -0.270 OA
ATOM     31  H   UNL     1      90.718 -11.619  29.854  0.00  0.00    +0.155 HD
BRANCH  14  15
ATOM     15  C   UNL     1      89.254 -11.963  31.969  0.00  0.00    +0.037 A 
ATOM     16  C   UNL     1      88.572 -12.503  30.790  0.00  0.00    +0.013 A 
ATOM     17  C   UNL     1      87.195 -12.922  30.880  0.00  0.00    +0.005 A 
ATOM     18  C   UNL     1      86.492 -12.803  32.155  0.00  0.00    -0.033 A 
ATOM     28  C   UNL     1      87.194 -12.268  33.309  0.00  0.00    +0.005 A 
ATOM     29  C   UNL     1      88.543 -11.855  33.225  0.00  0.00    +0.013 A 
BRANCH  18  19
ATOM     19  C   UNL     1      85.016 -13.205  32.337  0.00  0.00    +0.119 C 
BRANCH  19  20
ATOM     20  N   UNL     1      84.203 -12.405  33.300  0.00  0.00    -0.302 NA
ATOM     21  C   UNL     1      84.008 -13.136  34.632  0.00  0.00    +0.066 C 
ATOM     22  C   UNL     1      83.174 -12.275  35.636  0.00  0.00    -0.064 C 
ATOM     23  N   UNL     1      81.825 -11.927  35.007  0.00  0.00    +0.379 N 
ATOM     24  C   UNL     1      81.015 -11.167  35.971  0.00  0.00    -0.096 C 
ATOM     25  H   UNL     1      81.292 -12.884  34.798  0.00  0.00    -0.082 HD
ATOM     26  C   UNL     1      82.009 -11.203  33.681  0.00  0.00    -0.064 C 
ATOM     27  C   UNL     1      82.864 -12.054  32.701  0.00  0.00    +0.066 C 
ENDBRANCH  19  20
ENDBRANCH  18  19
ENDBRANCH  14  15
ENDBRANCH  12  13
TORSDOF 6
ENDMDL
MODEL 5
REMARK VINA RESULT:      -6.9      7.724     13.081
REMARK  Name = C:\Users\Docking\Desktop\test protocol\1iep_ligandH.pdb
REMARK  8 active torsions:
REMARK  status: ('A' for Active; 'I' for Inactive)
REMARK    1  A    between atoms: _5  and  _11
REMARK    2  A    between atoms: _19  and  _21
REMARK    3  A    between atoms: _22  and  _66
REMARK    4  A    between atoms: _27  and  _30
REMARK    5  A    between atoms: _32  and  _33
REMARK    6  A    between atoms: _38  and  _43
REMARK    7  A    between atoms: _43  and  _46
REMARK    8  A    between atoms: _53  and  _55
REMARK                            x       y       z     vdW  Elec       q    Type
REMARK                         _______ _______ _______ _____ _____    ______ ____
ROOT
ATOM     10  C   UNL     1      82.060 -11.374  33.673  0.00  0.00    +0.038 A 
ATOM     11  C   UNL     1      81.208 -11.376  32.539  0.00  0.00    +0.047 A 
ATOM     12  C   UNL     1      79.779 -11.610  32.673  0.00  0.00    +0.035 A 
ATOM     32  C   UNL     1      79.250 -11.837  33.977  0.00  0.00    +0.024 A 
ATOM     33  C   UNL     1      80.102 -11.839  35.140  0.00  0.00    +0.007 A 
ATOM     34  C   UNL     1      81.513 -11.611  35.014  0.00  0.00    -0.029 A 
ATOM     35  C   UNL     1      82.380 -11.632  36.295  0.00  0.00    +0.045 C 
ENDROOT
BRANCH  10   9
ATOM      4  C   UNL     1      86.459 -12.806  32.393  0.00  0.00    +0.077 A 
ATOM      5  C   UNL     1      86.004 -14.133  32.094  0.00  0.00    +0.048 A 
ATOM      6  C   UNL     1      84.632 -14.409  32.291  0.00  0.00    +0.116 A 
ATOM      7  N   UNL     1      83.787 -13.422  32.751  0.00  0.00    -0.223 NA
ATOM      8  C   UNL     1      84.259 -12.153  33.031  0.00  0.00    +0.220 A 
ATOM      9  N   UNL     1      83.425 -11.143  33.487  0.00  0.00    -0.283 N 
ATOM     36  H   UNL     1      83.813 -10.222  33.689  0.00  0.00    +0.155 HD
ATOM     37  N   UNL     1      85.565 -11.865  32.853  0.00  0.00    -0.214 NA
BRANCH   4   3
ATOM      1  C   UNL     1      89.937 -11.903  30.847  0.00  0.00    +0.020 A 
ATOM      2  C   UNL     1      88.565 -12.344  30.947  0.00  0.00    +0.013 A 
ATOM      3  C   UNL     1      87.879 -12.360  32.233  0.00  0.00    +0.019 A 
ATOM     38  C   UNL     1      88.616 -11.920  33.408  0.00  0.00    +0.120 A 
ATOM     39  N   UNL     1      89.937 -11.503  33.282  0.00  0.00    -0.263 NA
ATOM     40  C   UNL     1      90.608 -11.484  32.050  0.00  0.00    +0.111 A 
ENDBRANCH   4   3
ENDBRANCH  10   9
BRANCH  12  13
ATOM     13  N   UNL     1      78.865 -11.632  31.557  0.00  0.00    -0.281 N 
ATOM     14  C   UNL     1      78.269 -12.733  30.966  0.00  0.00    +0.248 C 
ATOM     30  O   UNL     1      78.598 -13.892  31.173  0.00  0.00    -0.270 OA
ATOM     31  H   UNL     1      78.630 -10.724  31.154  0.00  0.00    +0.155 HD
BRANCH  14  15
ATOM     15  C   UNL     1      77.155 -12.516  29.994  0.00  0.00    +0.037 A 
ATOM     16  C   UNL     1      77.217 -13.056  28.633  0.00  0.00    +0.013 A 
ATOM     17  C   UNL     1      76.136 -12.818  27.710  0.00  0.00    +0.005 A 
ATOM     18  C   UNL     1      74.982 -12.035  28.146  0.00  0.00    -0.033 A 
ATOM     28  C   UNL     1      74.943 -11.516  29.503  0.00  0.00    +0.005 A 
ATOM     29  C   UNL     1      76.001 -11.747  30.410  0.00  0.00    +0.013 A 
BRANCH  18  19
ATOM     19  C   UNL     1      73.792 -11.714  27.221  0.00  0.00    +0.119 C 
BRANCH  19  20
ATOM     20  N   UNL     1      73.963 -10.588  26.255  0.00  0.00    -0.302 NA
ATOM     21  C   UNL     1      74.543  -9.339  26.924  0.00  0.00    +0.066 C 
ATOM     22  C   UNL     1      74.735  -8.179  25.894  0.00  0.00    -0.064 C 
ATOM     23  N   UNL     1      73.395  -7.863  25.229  0.00  0.00    +0.379 N 
ATOM     24  C   UNL     1      73.560  -6.734  24.302  0.00  0.00    -0.096 C 
ATOM     25  H   UNL     1      72.687  -7.544  26.029  0.00  0.00    -0.082 HD
ATOM     26  C   UNL     1      72.810  -9.101  24.563  0.00  0.00    -0.064 C 
ATOM     27  C   UNL     1      72.650 -10.257  25.589  0.00  0.00    +0.066 C 
ENDBRANCH  19  20
ENDBRANCH  18  19
ENDBRANCH  14  15
ENDBRANCH  12  13
TORSDOF 6
ENDMDL
