MODEL 1
REMARK VINA RESULT:      -7.4      0.000      0.000
REMARK  Name = C:\Users\Docking\Desktop\test protocol\1iep_ligandH.pdb
REMARK  8 active torsions:
REMARK  status: ('A' for Active; 'I' for Inactive)
REMARK    1  A    between atoms: _5  and  _11
REMARK    2  A    between atoms: _19  and  _21
REMARK    3  A    between atoms: _22  and  _66
REMARK    4  A    between atoms: _27  and  _30
REMARK    5  A    between atoms: _32  and  _33
REMARK    6  A    between atoms: _38  and  _43
REMARK    7  A    between atoms: _43  and  _46
REMARK    8  A    between atoms: _53  and  _55
REMARK                            x       y       z     vdW  Elec       q    Type
REMARK                         _______ _______ _______ _____ _____    ______ ____
ROOT
ATOM     10  C   UNL     1      21.267  34.973  -5.817  0.00  0.00    +0.038 A 
ATOM     11  C   UNL     1      20.516  35.819  -4.961  0.00  0.00    +0.047 A 
ATOM     12  C   UNL     1      20.353  35.507  -3.550  0.00  0.00    +0.035 A 
ATOM     32  C   UNL     1      20.970  34.326  -3.043  0.00  0.00    +0.024 A 
ATOM     33  C   UNL     1      21.735  33.455  -3.899  0.00  0.00    +0.007 A 
ATOM     34  C   UNL     1      21.898  33.756  -5.293  0.00  0.00    -0.029 A 
ATOM     35  C   UNL     1      22.724  32.783  -6.165  0.00  0.00    +0.045 C 
ENDROOT
BRANCH  10   9
ATOM      4  C   UNL     1      23.592  37.089  -9.444  0.00  0.00    +0.077 A 
ATOM      5  C   UNL     1      24.632  37.564  -8.578  0.00  0.00    +0.048 A 
ATOM      6  C   UNL     1      24.528  37.249  -7.205  0.00  0.00    +0.116 A 
ATOM      7  N   UNL     1      23.459  36.512  -6.743  0.00  0.00    -0.223 NA
ATOM      8  C   UNL     1      22.472  36.070  -7.605  0.00  0.00    +0.220 A 
ATOM      9  N   UNL     1      21.392  35.321  -7.164  0.00  0.00    -0.283 N 
ATOM     36  H   UNL     1      20.681  35.020  -7.830  0.00  0.00    +0.155 HD
ATOM     37  N   UNL     1      22.547  36.359  -8.921  0.00  0.00    -0.214 NA
BRANCH   4   3
ATOM      1  C   UNL     1      24.635  37.372 -13.204  0.00  0.00    +0.020 A 
ATOM      2  C   UNL     1      24.716  37.116 -11.784  0.00  0.00    +0.013 A 
ATOM      3  C   UNL     1      23.563  37.337 -10.920  0.00  0.00    +0.019 A 
ATOM     38  C   UNL     1      22.333  37.821 -11.530  0.00  0.00    +0.120 A 
ATOM     39  N   UNL     1      22.285  38.059 -12.900  0.00  0.00    -0.263 NA
ATOM     40  C   UNL     1      23.388  37.852 -13.740  0.00  0.00    +0.111 A 
ENDBRANCH   4   3
ENDBRANCH  10   9
BRANCH  12  13
ATOM     13  N   UNL     1      19.595  36.324  -2.634  0.00  0.00    -0.281 N 
ATOM     14  C   UNL     1      20.074  37.262  -1.734  0.00  0.00    +0.248 C 
ATOM     30  O   UNL     1      21.250  37.388  -1.427  0.00  0.00    -0.270 OA
ATOM     31  H   UNL     1      18.583  36.195  -2.652  0.00  0.00    +0.155 HD
BRANCH  14  15
ATOM     15  C   UNL     1      19.104  38.183  -1.067  0.00  0.00    +0.037 A 
ATOM     16  C   UNL     1      19.546  39.159  -0.068  0.00  0.00    +0.013 A 
ATOM     17  C   UNL     1      18.587  40.023   0.573  0.00  0.00    +0.005 A 
ATOM     18  C   UNL     1      17.175  39.917   0.214  0.00  0.00    -0.033 A 
ATOM     28  C   UNL     1      16.764  38.944  -0.784  0.00  0.00    +0.005 A 
ATOM     29  C   UNL     1      17.701  38.094  -1.413  0.00  0.00    +0.013 A 
BRANCH  18  19
ATOM     19  C   UNL     1      16.080  40.785   0.862  0.00  0.00    +0.119 C 
BRANCH  19  20
ATOM     20  N   UNL     1      14.662  40.372   0.643  0.00  0.00    -0.302 NA
ATOM     21  C   UNL     1      13.935  41.306  -0.328  0.00  0.00    +0.066 C 
ATOM     22  C   UNL     1      12.459  40.846  -0.563  0.00  0.00    -0.064 C 
ATOM     23  N   UNL     1      11.727  40.784   0.779  0.00  0.00    +0.379 N 
ATOM     24  C   UNL     1      10.323  40.408   0.556  0.00  0.00    -0.096 C 
ATOM     25  H   UNL     1      11.737  41.809   1.217  0.00  0.00    -0.082 HD
ATOM     26  C   UNL     1      12.445  39.859   1.752  0.00  0.00    -0.064 C 
ATOM     27  C   UNL     1      13.919  40.308   1.955  0.00  0.00    +0.066 C 
ENDBRANCH  19  20
ENDBRANCH  18  19
ENDBRANCH  14  15
ENDBRANCH  12  13
TORSDOF 6
ENDMDL
MODEL 2
REMARK VINA RESULT:      -7.0      6.444     12.009
REMARK  Name = C:\Users\Docking\Desktop\test protocol\1iep_ligandH.pdb
REMARK  8 active torsions:
REMARK  status: ('A' for Active; 'I' for Inactive)
REMARK    1  A    between atoms: _5  and  _11
REMARK    2  A    between atoms: _19  and  _21
REMARK    3  A    between atoms: _22  and  _66
REMARK    4  A    between atoms: _27  and  _30
REMARK    5  A    between atoms: _32  and  _33
REMARK    6  A    between atoms: _38  and  _43
REMARK    7  A    between atoms: _43  and  _46
REMARK    8  A    between atoms: _53  and  _55
REMARK                            x       y       z     vdW  Elec       q    Type
REMARK                         _______ _______ _______ _____ _____    ______ ____
ROOT
ATOM     10  C   UNL     1      22.414  32.093  -3.748  0.00  0.00    +0.038 A 
ATOM     11  C   UNL     1      22.508  32.626  -5.059  0.00  0.00    +0.047 A 
ATOM     12  C   UNL     1      22.332  34.048  -5.308  0.00  0.00    +0.035 A 
ATOM     32  C   UNL     1      22.064  34.900  -4.197  0.00  0.00    +0.024 A 
ATOM     33  C   UNL     1      21.964  34.375  -2.858  0.00  0.00    +0.007 A 
ATOM     34  C   UNL     1      22.134  32.973  -2.607  0.00  0.00    -0.029 A 
ATOM     35  C   UNL     1      22.010  32.465  -1.151  0.00  0.00    +0.045 C 
ENDROOT
BRANCH  10   9
ATOM      4  C   UNL     1      25.086  28.294  -2.537  0.00  0.00    +0.077 A 
ATOM      5  C   UNL     1      26.233  29.113  -2.269  0.00  0.00    +0.048 A 
ATOM      6  C   UNL     1      26.096  30.506  -2.461  0.00  0.00    +0.116 A 
ATOM      7  N   UNL     1      24.897  31.030  -2.891  0.00  0.00    -0.223 NA
ATOM      8  C   UNL     1      23.810  30.213  -3.142  0.00  0.00    +0.220 A 
ATOM      9  N   UNL     1      22.591  30.720  -3.567  0.00  0.00    -0.283 N 
ATOM     36  H   UNL     1      21.816  30.083  -3.748  0.00  0.00    +0.155 HD
ATOM     37  N   UNL     1      23.916  28.879  -2.967  0.00  0.00    -0.214 NA
BRANCH   4   3
ATOM      1  C   UNL     1      24.162  24.671  -1.387  0.00  0.00    +0.020 A 
ATOM      2  C   UNL     1      24.133  26.111  -1.506  0.00  0.00    +0.013 A 
ATOM      3  C   UNL     1      25.073  26.806  -2.377  0.00  0.00    +0.019 A 
ATOM     38  C   UNL     1      26.036  26.008  -3.121  0.00  0.00    +0.120 A 
ATOM     39  N   UNL     1      26.041  24.623  -2.986  0.00  0.00    -0.263 NA
ATOM     40  C   UNL     1      25.143  23.944  -2.150  0.00  0.00    +0.111 A 
ENDBRANCH   4   3
ENDBRANCH  10   9
BRANCH  12  13
ATOM     13  N   UNL     1      22.408  34.645  -6.618  0.00  0.00    -0.281 N 
ATOM     14  C   UNL     1      21.569  35.600  -7.169  0.00  0.00    +0.248 C 
ATOM     30  O   UNL     1      20.493  35.932  -6.694  0.00  0.00    -0.270 OA
ATOM     31  H   UNL     1      23.173  34.325  -7.212  0.00  0.00    +0.155 HD
BRANCH  14  15
ATOM     15  C   UNL     1      21.977  36.273  -8.439  0.00  0.00    +0.037 A 
ATOM     16  C   UNL     1      23.361  36.219  -8.917  0.00  0.00    +0.013 A 
ATOM     17  C   UNL     1      23.732  36.892 -10.137  0.00  0.00    +0.005 A 
ATOM     18  C   UNL     1      22.715  37.624 -10.888  0.00  0.00    -0.033 A 
ATOM     28  C   UNL     1      21.349  37.657 -10.394  0.00  0.00    +0.005 A 
ATOM     29  C   UNL     1      20.982  37.000  -9.198  0.00  0.00    +0.013 A 
BRANCH  18  19
ATOM     19  C   UNL     1      23.026  38.389 -12.189  0.00  0.00    +0.119 C 
BRANCH  19  20
ATOM     20  N   UNL     1      21.872  38.728 -13.075  0.00  0.00    -0.302 NA
ATOM     21  C   UNL     1      21.586  37.622 -14.094  0.00  0.00    +0.066 C 
ATOM     22  C   UNL     1      20.362  37.983 -14.997  0.00  0.00    -0.064 C 
ATOM     23  N   UNL     1      20.628  39.314 -15.703  0.00  0.00    +0.379 N 
ATOM     24  C   UNL     1      19.504  39.627 -16.598  0.00  0.00    -0.096 C 
ATOM     25  H   UNL     1      21.537  39.186 -16.334  0.00  0.00    -0.082 HD
ATOM     26  C   UNL     1      20.916  40.419 -14.697  0.00  0.00    -0.064 C 
ATOM     27  C   UNL     1      22.115  40.037 -13.785  0.00  0.00    +0.066 C 
ENDBRANCH  19  20
ENDBRANCH  18  19
ENDBRANCH  14  15
ENDBRANCH  12  13
TORSDOF 6
ENDMDL
MODEL 3
REMARK VINA RESULT:      -6.8      6.104     10.711
REMARK  Name = C:\Users\Docking\Desktop\test protocol\1iep_ligandH.pdb
REMARK  8 active torsions:
REMARK  status: ('A' for Active; 'I' for Inactive)
REMARK    1  A    between atoms: _5  and  _11
REMARK    2  A    between atoms: _19  and  _21
REMARK    3  A    between atoms: _22  and  _66
REMARK    4  A    between atoms: _27  and  _30
REMARK    5  A    between atoms: _32  and  _33
REMARK    6  A    between atoms: _38  and  _43
REMARK    7  A    between atoms: _43  and  _46
REMARK    8  A    between atoms: _53  and  _55
REMARK                            x       y       z     vdW  Elec       q    Type
REMARK                         _______ _______ _______ _____ _____    ______ ____
ROOT
ATOM     10  C   UNL     1      21.639  34.405  -5.672  0.00  0.00    +0.038 A 
ATOM     11  C   UNL     1      22.354  33.248  -5.268  0.00  0.00    +0.047 A 
ATOM     12  C   UNL     1      22.312  32.780  -3.891  0.00  0.00    +0.035 A 
ATOM     32  C   UNL     1      21.529  33.513  -2.952  0.00  0.00    +0.024 A 
ATOM     33  C   UNL     1      20.798  34.692  -3.345  0.00  0.00    +0.007 A 
ATOM     34  C   UNL     1      20.838  35.159  -4.701  0.00  0.00    -0.029 A 
ATOM     35  C   UNL     1      20.039  36.433  -5.065  0.00  0.00    +0.045 C 
ENDROOT
BRANCH  10   9
ATOM      4  C   UNL     1      23.638  36.951  -9.216  0.00  0.00    +0.077 A 
ATOM      5  C   UNL     1      24.594  37.547  -8.328  0.00  0.00    +0.048 A 
ATOM      6  C   UNL     1      24.534  37.177  -6.966  0.00  0.00    +0.116 A 
ATOM      7  N   UNL     1      23.583  36.277  -6.534  0.00  0.00    -0.223 NA
ATOM      8  C   UNL     1      22.675  35.722  -7.417  0.00  0.00    +0.220 A 
ATOM      9  N   UNL     1      21.715  34.809  -7.006  0.00  0.00    -0.283 N 
ATOM     36  H   UNL     1      21.058  34.428  -7.687  0.00  0.00    +0.155 HD
ATOM     37  N   UNL     1      22.711  36.061  -8.722  0.00  0.00    -0.214 NA
BRANCH   4   3
ATOM      1  C   UNL     1      24.608  37.367 -12.982  0.00  0.00    +0.020 A 
ATOM      2  C   UNL     1      24.720  37.075 -11.572  0.00  0.00    +0.013 A 
ATOM      3  C   UNL     1      23.576  37.239 -10.683  0.00  0.00    +0.019 A 
ATOM     38  C   UNL     1      22.323  37.704 -11.259  0.00  0.00    +0.120 A 
ATOM     39  N   UNL     1      22.245  37.978 -12.621  0.00  0.00    -0.263 NA
ATOM     40  C   UNL     1      23.339  37.825 -13.485  0.00  0.00    +0.111 A 
ENDBRANCH   4   3
ENDBRANCH  10   9
BRANCH  12  13
ATOM     13  N   UNL     1      23.022  31.617  -3.421  0.00  0.00    -0.281 N 
ATOM     14  C   UNL     1      24.316  31.550  -2.929  0.00  0.00    +0.248 C 
ATOM     30  O   UNL     1      25.136  32.452  -3.017  0.00  0.00    -0.270 OA
ATOM     31  H   UNL     1      22.510  30.735  -3.456  0.00  0.00    +0.155 HD
BRANCH  14  15
ATOM     15  C   UNL     1      24.767  30.296  -2.252  0.00  0.00    +0.037 A 
ATOM     16  C   UNL     1      25.434  30.334  -0.948  0.00  0.00    +0.013 A 
ATOM     17  C   UNL     1      25.875  29.111  -0.326  0.00  0.00    +0.005 A 
ATOM     18  C   UNL     1      25.648  27.838  -1.007  0.00  0.00    -0.033 A 
ATOM     28  C   UNL     1      24.979  27.830  -2.298  0.00  0.00    +0.005 A 
ATOM     29  C   UNL     1      24.547  29.026  -2.911  0.00  0.00    +0.013 A 
BRANCH  18  19
ATOM     19  C   UNL     1      26.104  26.486  -0.427  0.00  0.00    +0.119 C 
BRANCH  19  20
ATOM     20  N   UNL     1      25.051  25.603   0.156  0.00  0.00    -0.302 NA
ATOM     21  C   UNL     1      24.873  25.837   1.659  0.00  0.00    +0.066 C 
ATOM     22  C   UNL     1      23.752  24.920   2.249  0.00  0.00    -0.064 C 
ATOM     23  N   UNL     1      24.092  23.456   1.965  0.00  0.00    +0.379 N 
ATOM     24  C   UNL     1      23.070  22.589   2.569  0.00  0.00    -0.096 C 
ATOM     25  H   UNL     1      25.063  23.232   2.464  0.00  0.00    -0.082 HD
ATOM     26  C   UNL     1      24.273  23.215   0.473  0.00  0.00    -0.064 C 
ATOM     27  C   UNL     1      25.369  24.152  -0.109  0.00  0.00    +0.066 C 
ENDBRANCH  19  20
ENDBRANCH  18  19
ENDBRANCH  14  15
ENDBRANCH  12  13
TORSDOF 6
ENDMDL
MODEL 4
REMARK VINA RESULT:      -6.8     16.503     23.344
REMARK  Name = C:\Users\Docking\Desktop\test protocol\1iep_ligandH.pdb
REMARK  8 active torsions:
REMARK  status: ('A' for Active; 'I' for Inactive)
REMARK    1  A    between atoms: _5  and  _11
REMARK    2  A    between atoms: _19  and  _21
REMARK    3  A    between atoms: _22  and  _66
REMARK    4  A    between atoms: _27  and  _30
REMARK    5  A    between atoms: _32  and  _33
REMARK    6  A    between atoms: _38  and  _43
REMARK    7  A    between atoms: _43  and  _46
REMARK    8  A    between atoms: _53  and  _55
REMARK                            x       y       z     vdW  Elec       q    Type
REMARK                         _______ _______ _______ _____ _____    ______ ____
ROOT
ATOM     10  C   UNL     1      10.552  43.995  13.192  0.00  0.00    +0.038 A 
ATOM     11  C   UNL     1      11.271  43.904  14.411  0.00  0.00    +0.047 A 
ATOM     12  C   UNL     1      10.683  43.279  15.586  0.00  0.00    +0.035 A 
ATOM     32  C   UNL     1       9.361  42.757  15.483  0.00  0.00    +0.024 A 
ATOM     33  C   UNL     1       8.615  42.842  14.252  0.00  0.00    +0.007 A 
ATOM     34  C   UNL     1       9.189  43.459  13.090  0.00  0.00    -0.029 A 
ATOM     35  C   UNL     1       8.342  43.529  11.798  0.00  0.00    +0.045 C 
ENDROOT
BRANCH  10   9
ATOM      4  C   UNL     1      13.238  43.839   9.217  0.00  0.00    +0.077 A 
ATOM      5  C   UNL     1      13.462  42.428   9.353  0.00  0.00    +0.048 A 
ATOM      6  C   UNL     1      12.873  41.781  10.463  0.00  0.00    +0.116 A 
ATOM      7  N   UNL     1      12.120  42.502  11.364  0.00  0.00    -0.223 NA
ATOM      8  C   UNL     1      11.926  43.862  11.205  0.00  0.00    +0.220 A 
ATOM      9  N   UNL     1      11.165  44.605  12.095  0.00  0.00    -0.283 N 
ATOM     36  H   UNL     1      11.052  45.607  11.946  0.00  0.00    +0.155 HD
ATOM     37  N   UNL     1      12.478  44.503  10.154  0.00  0.00    -0.214 NA
BRANCH   4   3
ATOM      1  C   UNL     1      15.639  45.968   6.980  0.00  0.00    +0.020 A 
ATOM      2  C   UNL     1      15.154  45.178   8.088  0.00  0.00    +0.013 A 
ATOM      3  C   UNL     1      13.791  44.662   8.096  0.00  0.00    +0.019 A 
ATOM     38  C   UNL     1      12.937  44.966   6.957  0.00  0.00    +0.120 A 
ATOM     39  N   UNL     1      13.431  45.730   5.905  0.00  0.00    -0.263 NA
ATOM     40  C   UNL     1      14.740  46.233   5.887  0.00  0.00    +0.111 A 
ENDBRANCH   4   3
ENDBRANCH  10   9
BRANCH  12  13
ATOM     13  N   UNL     1      11.361  43.165  16.853  0.00  0.00    -0.281 N 
ATOM     14  C   UNL     1      11.593  44.160  17.788  0.00  0.00    +0.248 C 
ATOM     30  O   UNL     1      11.439  45.354  17.579  0.00  0.00    -0.270 OA
ATOM     31  H   UNL     1      11.713  42.237  17.089  0.00  0.00    +0.155 HD
BRANCH  14  15
ATOM     15  C   UNL     1      12.082  43.775  19.147  0.00  0.00    +0.037 A 
ATOM     16  C   UNL     1      12.945  44.666  19.925  0.00  0.00    +0.013 A 
ATOM     17  C   UNL     1      13.416  44.263  21.226  0.00  0.00    +0.005 A 
ATOM     18  C   UNL     1      13.022  42.961  21.758  0.00  0.00    -0.033 A 
ATOM     28  C   UNL     1      12.160  42.098  20.967  0.00  0.00    +0.005 A 
ATOM     29  C   UNL     1      11.698  42.490  19.691  0.00  0.00    +0.013 A 
BRANCH  18  19
ATOM     19  C   UNL     1      13.494  42.439  23.129  0.00  0.00    +0.119 C 
BRANCH  19  20
ATOM     20  N   UNL     1      12.630  42.739  24.309  0.00  0.00    -0.302 NA
ATOM     21  C   UNL     1      13.452  42.941  25.586  0.00  0.00    +0.066 C 
ATOM     22  C   UNL     1      12.534  43.276  26.806  0.00  0.00    -0.064 C 
ATOM     23  N   UNL     1      11.509  42.156  26.993  0.00  0.00    +0.379 N 
ATOM     24  C   UNL     1      10.682  42.439  28.174  0.00  0.00    -0.096 C 
ATOM     25  H   UNL     1      12.071  41.213  27.191  0.00  0.00    -0.082 HD
ATOM     26  C   UNL     1      10.690  41.947  25.727  0.00  0.00    -0.064 C 
ATOM     27  C   UNL     1      11.613  41.643  24.514  0.00  0.00    +0.066 C 
ENDBRANCH  19  20
ENDBRANCH  18  19
ENDBRANCH  14  15
ENDBRANCH  12  13
TORSDOF 6
ENDMDL
MODEL 5
REMARK VINA RESULT:      -6.7     12.604     18.212
REMARK  Name = C:\Users\Docking\Desktop\test protocol\1iep_ligandH.pdb
REMARK  8 active torsions:
REMARK  status: ('A' for Active; 'I' for Inactive)
REMARK    1  A    between atoms: _5  and  _11
REMARK    2  A    between atoms: _19  and  _21
REMARK    3  A    between atoms: _22  and  _66
REMARK    4  A    between atoms: _27  and  _30
REMARK    5  A    between atoms: _32  and  _33
REMARK    6  A    between atoms: _38  and  _43
REMARK    7  A    between atoms: _43  and  _46
REMARK    8  A    between atoms: _53  and  _55
REMARK                            x       y       z     vdW  Elec       q    Type
REMARK                         _______ _______ _______ _____ _____    ______ ____
ROOT
ATOM     10  C   UNL     1      25.645  31.345   9.563  0.00  0.00    +0.038 A 
ATOM     11  C   UNL     1      25.374  31.201   8.178  0.00  0.00    +0.047 A 
ATOM     12  C   UNL     1      25.985  30.136   7.399  0.00  0.00    +0.035 A 
ATOM     32  C   UNL     1      26.866  29.232   8.063  0.00  0.00    +0.024 A 
ATOM     33  C   UNL     1      27.153  29.365   9.469  0.00  0.00    +0.007 A 
ATOM     34  C   UNL     1      26.555  30.416  10.243  0.00  0.00    -0.029 A 
ATOM     35  C   UNL     1      26.905  30.514  11.746  0.00  0.00    +0.045 C 
ENDROOT
BRANCH  10   9
ATOM      4  C   UNL     1      25.376  35.932  10.949  0.00  0.00    +0.077 A 
ATOM      5  C   UNL     1      26.575  36.278  10.242  0.00  0.00    +0.048 A 
ATOM      6  C   UNL     1      27.235  35.245   9.539  0.00  0.00    +0.116 A 
ATOM      7  N   UNL     1      26.725  33.965   9.550  0.00  0.00    -0.223 NA
ATOM      8  C   UNL     1      25.567  33.665  10.244  0.00  0.00    +0.220 A 
ATOM      9  N   UNL     1      25.031  32.386  10.262  0.00  0.00    -0.283 N 
ATOM     36  H   UNL     1      24.180  32.204  10.793  0.00  0.00    +0.155 HD
ATOM     37  N   UNL     1      24.919  34.634  10.924  0.00  0.00    -0.214 NA
BRANCH   4   3
ATOM      1  C   UNL     1      22.370  37.886  12.515  0.00  0.00    +0.020 A 
ATOM      2  C   UNL     1      23.107  36.916  11.738  0.00  0.00    +0.013 A 
ATOM      3  C   UNL     1      24.564  36.914  11.736  0.00  0.00    +0.019 A 
ATOM     38  C   UNL     1      25.252  37.915  12.538  0.00  0.00    +0.120 A 
ATOM     39  N   UNL     1      24.516  38.838  13.275  0.00  0.00    -0.263 NA
ATOM     40  C   UNL     1      23.113  38.850  13.283  0.00  0.00    +0.111 A 
ENDBRANCH   4   3
ENDBRANCH  10   9
BRANCH  12  13
ATOM     13  N   UNL     1      25.754  29.945   5.988  0.00  0.00    -0.281 N 
ATOM     14  C   UNL     1      26.336  30.623   4.930  0.00  0.00    +0.248 C 
ATOM     30  O   UNL     1      26.990  31.650   5.043  0.00  0.00    -0.270 OA
ATOM     31  H   UNL     1      25.079  29.221   5.740  0.00  0.00    +0.155 HD
BRANCH  14  15
ATOM     15  C   UNL     1      26.154  30.093   3.545  0.00  0.00    +0.037 A 
ATOM     16  C   UNL     1      26.048  28.654   3.289  0.00  0.00    +0.013 A 
ATOM     17  C   UNL     1      25.890  28.169   1.941  0.00  0.00    +0.005 A 
ATOM     18  C   UNL     1      25.835  29.125   0.838  0.00  0.00    -0.033 A 
ATOM     28  C   UNL     1      25.937  30.547   1.120  0.00  0.00    +0.005 A 
ATOM     29  C   UNL     1      26.093  31.026   2.440  0.00  0.00    +0.013 A 
BRANCH  18  19
ATOM     19  C   UNL     1      25.690  28.695  -0.634  0.00  0.00    +0.119 C 
BRANCH  19  20
ATOM     20  N   UNL     1      25.674  27.230  -0.921  0.00  0.00    -0.302 NA
ATOM     21  C   UNL     1      26.945  26.772  -1.641  0.00  0.00    +0.066 C 
ATOM     22  C   UNL     1      26.923  25.232  -1.912  0.00  0.00    -0.064 C 
ATOM     23  N   UNL     1      25.680  24.880  -2.731  0.00  0.00    +0.379 N 
ATOM     24  C   UNL     1      25.685  23.442  -3.038  0.00  0.00    -0.096 C 
ATOM     25  H   UNL     1      25.744  25.432  -3.697  0.00  0.00    -0.082 HD
ATOM     26  C   UNL     1      24.411  25.334  -2.023  0.00  0.00    -0.064 C 
ATOM     27  C   UNL     1      24.457  26.860  -1.732  0.00  0.00    +0.066 C 
ENDBRANCH  19  20
ENDBRANCH  18  19
ENDBRANCH  14  15
ENDBRANCH  12  13
TORSDOF 6
ENDMDL
