MODEL 1
REMARK VINA RESULT:      -8.6      0.000      0.000
REMARK  Name = C:\Users\Docking\Desktop\test protocol\1iep_ligandH.pdb
REMARK  8 active torsions:
REMARK  status: ('A' for Active; 'I' for Inactive)
REMARK    1  A    between atoms: _5  and  _11
REMARK    2  A    between atoms: _19  and  _21
REMARK    3  A    between atoms: _22  and  _66
REMARK    4  A    between atoms: _27  and  _30
REMARK    5  A    between atoms: _32  and  _33
REMARK    6  A    between atoms: _38  and  _43
REMARK    7  A    between atoms: _43  and  _46
REMARK    8  A    between atoms: _53  and  _55
REMARK                            x       y       z     vdW  Elec       q    Type
REMARK                         _______ _______ _______ _____ _____    ______ ____
ROOT
ATOM     10  C   UNL     1      25.435  41.328  44.068  0.00  0.00    +0.038 A 
ATOM     11  C   UNL     1      24.117  41.836  43.938  0.00  0.00    +0.047 A 
ATOM     12  C   UNL     1      23.559  42.159  42.634  0.00  0.00    +0.035 A 
ATOM     32  C   UNL     1      24.371  41.949  41.482  0.00  0.00    +0.024 A 
ATOM     33  C   UNL     1      25.713  41.434  41.595  0.00  0.00    +0.007 A 
ATOM     34  C   UNL     1      26.269  41.117  42.879  0.00  0.00    -0.029 A 
ATOM     35  C   UNL     1      27.716  40.574  42.941  0.00  0.00    +0.045 C 
ENDROOT
BRANCH  10   9
ATOM      4  C   UNL     1      27.681  42.559  48.127  0.00  0.00    +0.077 A 
ATOM      5  C   UNL     1      27.934  43.889  47.653  0.00  0.00    +0.048 A 
ATOM      6  C   UNL     1      27.475  44.215  46.357  0.00  0.00    +0.116 A 
ATOM      7  N   UNL     1      26.815  43.272  45.600  0.00  0.00    -0.223 NA
ATOM      8  C   UNL     1      26.589  41.997  46.086  0.00  0.00    +0.220 A 
ATOM      9  N   UNL     1      25.919  41.036  45.344  0.00  0.00    -0.283 N 
ATOM     36  H   UNL     1      25.779  40.105  45.736  0.00  0.00    +0.155 HD
ATOM     37  N   UNL     1      27.018  41.662  47.320  0.00  0.00    -0.214 NA
BRANCH   4   3
ATOM      1  C   UNL     1      28.270  40.280  51.251  0.00  0.00    +0.020 A 
ATOM      2  C   UNL     1      27.843  40.707  49.938  0.00  0.00    +0.013 A 
ATOM      3  C   UNL     1      28.100  42.065  49.476  0.00  0.00    +0.019 A 
ATOM     38  C   UNL     1      28.797  42.974  50.374  0.00  0.00    +0.120 A 
ATOM     39  N   UNL     1      29.195  42.535  51.634  0.00  0.00    -0.263 NA
ATOM     40  C   UNL     1      28.951  41.230  52.089  0.00  0.00    +0.111 A 
ENDBRANCH   4   3
ENDBRANCH  10   9
BRANCH  12  13
ATOM     13  N   UNL     1      22.230  42.685  42.441  0.00  0.00    -0.281 N 
ATOM     14  C   UNL     1      21.031  42.151  42.884  0.00  0.00    +0.248 C 
ATOM     30  O   UNL     1      20.900  41.021  43.331  0.00  0.00    -0.270 OA
ATOM     31  H   UNL     1      22.166  43.556  41.915  0.00  0.00    +0.155 HD
BRANCH  14  15
ATOM     15  C   UNL     1      19.795  42.988  42.803  0.00  0.00    +0.037 A 
ATOM     16  C   UNL     1      18.811  42.790  41.736  0.00  0.00    +0.013 A 
ATOM     17  C   UNL     1      17.636  43.623  41.672  0.00  0.00    +0.005 A 
ATOM     18  C   UNL     1      17.438  44.660  42.681  0.00  0.00    -0.033 A 
ATOM     28  C   UNL     1      18.427  44.832  43.732  0.00  0.00    +0.005 A 
ATOM     29  C   UNL     1      19.581  44.018  43.797  0.00  0.00    +0.013 A 
BRANCH  18  19
ATOM     19  C   UNL     1      16.224  45.609  42.678  0.00  0.00    +0.119 C 
BRANCH  19  20
ATOM     20  N   UNL     1      15.940  46.352  41.415  0.00  0.00    -0.302 NA
ATOM     21  C   UNL     1      15.211  47.673  41.677  0.00  0.00    +0.066 C 
ATOM     22  C   UNL     1      14.942  48.448  40.346  0.00  0.00    -0.064 C 
ATOM     23  N   UNL     1      14.133  47.562  39.397  0.00  0.00    +0.379 N 
ATOM     24  C   UNL     1      13.829  48.309  38.168  0.00  0.00    -0.096 C 
ATOM     25  H   UNL     1      13.166  47.326  39.898  0.00  0.00    -0.082 HD
ATOM     26  C   UNL     1      14.850  46.245  39.133  0.00  0.00    -0.064 C 
ATOM     27  C   UNL     1      15.139  45.497  40.465  0.00  0.00    +0.066 C 
ENDBRANCH  19  20
ENDBRANCH  18  19
ENDBRANCH  14  15
ENDBRANCH  12  13
TORSDOF 6
ENDMDL
MODEL 2
REMARK VINA RESULT:      -8.5     15.678     19.688
REMARK  Name = C:\Users\Docking\Desktop\test protocol\1iep_ligandH.pdb
REMARK  8 active torsions:
REMARK  status: ('A' for Active; 'I' for Inactive)
REMARK    1  A    between atoms: _5  and  _11
REMARK    2  A    between atoms: _19  and  _21
REMARK    3  A    between atoms: _22  and  _66
REMARK    4  A    between atoms: _27  and  _30
REMARK    5  A    between atoms: _32  and  _33
REMARK    6  A    between atoms: _38  and  _43
REMARK    7  A    between atoms: _43  and  _46
REMARK    8  A    between atoms: _53  and  _55
REMARK                            x       y       z     vdW  Elec       q    Type
REMARK                         _______ _______ _______ _____ _____    ______ ____
ROOT
ATOM     10  C   UNL     1      17.122  32.135  35.279  0.00  0.00    +0.038 A 
ATOM     11  C   UNL     1      16.664  31.114  36.151  0.00  0.00    +0.047 A 
ATOM     12  C   UNL     1      16.539  29.738  35.698  0.00  0.00    +0.035 A 
ATOM     32  C   UNL     1      16.892  29.435  34.350  0.00  0.00    +0.024 A 
ATOM     33  C   UNL     1      17.358  30.461  33.450  0.00  0.00    +0.007 A 
ATOM     34  C   UNL     1      17.481  31.821  33.891  0.00  0.00    -0.029 A 
ATOM     35  C   UNL     1      17.981  32.880  32.881  0.00  0.00    +0.045 C 
ENDROOT
BRANCH  10   9
ATOM      4  C   UNL     1      15.516  36.641  35.677  0.00  0.00    +0.077 A 
ATOM      5  C   UNL     1      14.396  36.380  34.820  0.00  0.00    +0.048 A 
ATOM      6  C   UNL     1      14.273  35.076  34.291  0.00  0.00    +0.116 A 
ATOM      7  N   UNL     1      15.207  34.111  34.603  0.00  0.00    -0.223 NA
ATOM      8  C   UNL     1      16.276  34.396  35.433  0.00  0.00    +0.220 A 
ATOM      9  N   UNL     1      17.222  33.440  35.767  0.00  0.00    -0.283 N 
ATOM     36  H   UNL     1      18.001  33.692  36.376  0.00  0.00    +0.155 HD
ATOM     37  N   UNL     1      16.416  35.635  35.949  0.00  0.00    -0.214 NA
BRANCH   4   3
ATOM      1  C   UNL     1      16.544  39.413  38.239  0.00  0.00    +0.020 A 
ATOM      2  C   UNL     1      16.305  38.107  37.669  0.00  0.00    +0.013 A 
ATOM      3  C   UNL     1      15.780  37.969  36.316  0.00  0.00    +0.019 A 
ATOM     38  C   UNL     1      15.505  39.182  35.561  0.00  0.00    +0.120 A 
ATOM     39  N   UNL     1      15.743  40.426  36.136  0.00  0.00    -0.263 NA
ATOM     40  C   UNL     1      16.247  40.571  37.438  0.00  0.00    +0.111 A 
ENDBRANCH   4   3
ENDBRANCH  10   9
BRANCH  12  13
ATOM     13  N   UNL     1      16.072  28.661  36.535  0.00  0.00    -0.281 N 
ATOM     14  C   UNL     1      16.796  27.585  37.021  0.00  0.00    +0.248 C 
ATOM     30  O   UNL     1      17.910  27.269  36.631  0.00  0.00    -0.270 OA
ATOM     31  H   UNL     1      15.088  28.696  36.802  0.00  0.00    +0.155 HD
BRANCH  14  15
ATOM     15  C   UNL     1      16.188  26.726  38.083  0.00  0.00    +0.037 A 
ATOM     16  C   UNL     1      14.743  26.491  38.135  0.00  0.00    +0.013 A 
ATOM     17  C   UNL     1      14.181  25.672  39.180  0.00  0.00    +0.005 A 
ATOM     18  C   UNL     1      15.066  25.082  40.181  0.00  0.00    -0.033 A 
ATOM     28  C   UNL     1      16.497  25.327  40.103  0.00  0.00    +0.005 A 
ATOM     29  C   UNL     1      17.051  26.129  39.080  0.00  0.00    +0.013 A 
BRANCH  18  19
ATOM     19  C   UNL     1      14.551  24.212  41.344  0.00  0.00    +0.119 C 
BRANCH  19  20
ATOM     20  N   UNL     1      14.831  22.747  41.278  0.00  0.00    -0.302 NA
ATOM     21  C   UNL     1      14.750  22.211  39.846  0.00  0.00    +0.066 C 
ATOM     22  C   UNL     1      15.067  20.681  39.792  0.00  0.00    -0.064 C 
ATOM     23  N   UNL     1      14.098  19.930  40.706  0.00  0.00    +0.379 N 
ATOM     24  C   UNL     1      14.355  18.485  40.613  0.00  0.00    -0.096 C 
ATOM     25  H   UNL     1      13.065  20.114  40.329  0.00  0.00    -0.082 HD
ATOM     26  C   UNL     1      14.169  20.458  42.132  0.00  0.00    -0.064 C 
ATOM     27  C   UNL     1      13.882  21.985  42.170  0.00  0.00    +0.066 C 
ENDBRANCH  19  20
ENDBRANCH  18  19
ENDBRANCH  14  15
ENDBRANCH  12  13
TORSDOF 6
ENDMDL
MODEL 3
REMARK VINA RESULT:      -8.4     19.233     21.300
REMARK  Name = C:\Users\Docking\Desktop\test protocol\1iep_ligandH.pdb
REMARK  8 active torsions:
REMARK  status: ('A' for Active; 'I' for Inactive)
REMARK    1  A    between atoms: _5  and  _11
REMARK    2  A    between atoms: _19  and  _21
REMARK    3  A    between atoms: _22  and  _66
REMARK    4  A    between atoms: _27  and  _30
REMARK    5  A    between atoms: _32  and  _33
REMARK    6  A    between atoms: _38  and  _43
REMARK    7  A    between atoms: _43  and  _46
REMARK    8  A    between atoms: _53  and  _55
REMARK                            x       y       z     vdW  Elec       q    Type
REMARK                         _______ _______ _______ _____ _____    ______ ____
ROOT
ATOM     10  C   UNL     1      16.385  23.594  41.443  0.00  0.00    +0.038 A 
ATOM     11  C   UNL     1      16.549  24.369  40.267  0.00  0.00    +0.047 A 
ATOM     12  C   UNL     1      15.939  25.683  40.139  0.00  0.00    +0.035 A 
ATOM     32  C   UNL     1      15.169  26.179  41.232  0.00  0.00    +0.024 A 
ATOM     33  C   UNL     1      14.991  25.405  42.435  0.00  0.00    +0.007 A 
ATOM     34  C   UNL     1      15.589  24.107  42.565  0.00  0.00    -0.029 A 
ATOM     35  C   UNL     1      15.360  23.318  43.876  0.00  0.00    +0.045 C 
ENDROOT
BRANCH  10   9
ATOM      4  C   UNL     1      16.361  18.838  40.800  0.00  0.00    +0.077 A 
ATOM      5  C   UNL     1      15.012  18.851  40.311  0.00  0.00    +0.048 A 
ATOM      6  C   UNL     1      14.357  20.102  40.248  0.00  0.00    +0.116 A 
ATOM      7  N   UNL     1      15.013  21.247  40.646  0.00  0.00    -0.223 NA
ATOM      8  C   UNL     1      16.313  21.199  41.114  0.00  0.00    +0.220 A 
ATOM      9  N   UNL     1      16.994  22.339  41.512  0.00  0.00    -0.283 N 
ATOM     36  H   UNL     1      17.950  22.260  41.858  0.00  0.00    +0.155 HD
ATOM     37  N   UNL     1      16.959  20.017  41.185  0.00  0.00    -0.214 NA
BRANCH   4   3
ATOM      1  C   UNL     1      19.357  16.387  41.361  0.00  0.00    +0.020 A 
ATOM      2  C   UNL     1      18.605  17.616  41.254  0.00  0.00    +0.013 A 
ATOM      3  C   UNL     1      17.186  17.595  40.923  0.00  0.00    +0.019 A 
ATOM     38  C   UNL     1      16.553  16.303  40.705  0.00  0.00    +0.120 A 
ATOM     39  N   UNL     1      17.302  15.136  40.813  0.00  0.00    -0.263 NA
ATOM     40  C   UNL     1      18.669  15.144  41.130  0.00  0.00    +0.111 A 
ENDBRANCH   4   3
ENDBRANCH  10   9
BRANCH  12  13
ATOM     13  N   UNL     1      16.063  26.511  38.966  0.00  0.00    -0.281 N 
ATOM     14  C   UNL     1      15.226  26.557  37.863  0.00  0.00    +0.248 C 
ATOM     30  O   UNL     1      14.355  25.735  37.622  0.00  0.00    -0.270 OA
ATOM     31  H   UNL     1      16.867  27.140  38.945  0.00  0.00    +0.155 HD
BRANCH  14  15
ATOM     15  C   UNL     1      15.390  27.670  36.878  0.00  0.00    +0.037 A 
ATOM     16  C   UNL     1      14.233  28.268  36.208  0.00  0.00    +0.013 A 
ATOM     17  C   UNL     1      14.420  29.328  35.249  0.00  0.00    +0.005 A 
ATOM     18  C   UNL     1      15.772  29.798  34.957  0.00  0.00    -0.033 A 
ATOM     28  C   UNL     1      16.902  29.191  35.641  0.00  0.00    +0.005 A 
ATOM     29  C   UNL     1      16.722  28.151  36.580  0.00  0.00    +0.013 A 
BRANCH  18  19
ATOM     19  C   UNL     1      16.067  30.911  33.933  0.00  0.00    +0.119 C 
BRANCH  19  20
ATOM     20  N   UNL     1      15.698  32.306  34.314  0.00  0.00    -0.302 NA
ATOM     21  C   UNL     1      16.674  33.337  33.740  0.00  0.00    +0.066 C 
ATOM     22  C   UNL     1      16.260  34.793  34.129  0.00  0.00    -0.064 C 
ATOM     23  N   UNL     1      16.185  34.909  35.652  0.00  0.00    +0.379 N 
ATOM     24  C   UNL     1      15.852  36.292  36.023  0.00  0.00    -0.096 C 
ATOM     25  H   UNL     1      17.198  34.684  36.059  0.00  0.00    -0.082 HD
ATOM     26  C   UNL     1      15.218  33.886  36.232  0.00  0.00    -0.064 C 
ATOM     27  C   UNL     1      15.622  32.444  35.815  0.00  0.00    +0.066 C 
ENDBRANCH  19  20
ENDBRANCH  18  19
ENDBRANCH  14  15
ENDBRANCH  12  13
TORSDOF 6
ENDMDL
MODEL 4
REMARK VINA RESULT:      -8.1     19.484     21.589
REMARK  Name = C:\Users\Docking\Desktop\test protocol\1iep_ligandH.pdb
REMARK  8 active torsions:
REMARK  status: ('A' for Active; 'I' for Inactive)
REMARK    1  A    between atoms: _5  and  _11
REMARK    2  A    between atoms: _19  and  _21
REMARK    3  A    between atoms: _22  and  _66
REMARK    4  A    between atoms: _27  and  _30
REMARK    5  A    between atoms: _32  and  _33
REMARK    6  A    between atoms: _38  and  _43
REMARK    7  A    between atoms: _43  and  _46
REMARK    8  A    between atoms: _53  and  _55
REMARK                            x       y       z     vdW  Elec       q    Type
REMARK                         _______ _______ _______ _____ _____    ______ ____
ROOT
ATOM     10  C   UNL     1      16.366  23.541  41.531  0.00  0.00    +0.038 A 
ATOM     11  C   UNL     1      16.484  24.342  40.366  0.00  0.00    +0.047 A 
ATOM     12  C   UNL     1      15.863  25.655  40.290  0.00  0.00    +0.035 A 
ATOM     32  C   UNL     1      15.131  26.123  41.420  0.00  0.00    +0.024 A 
ATOM     33  C   UNL     1      15.000  25.322  42.612  0.00  0.00    +0.007 A 
ATOM     34  C   UNL     1      15.608  24.025  42.692  0.00  0.00    -0.029 A 
ATOM     35  C   UNL     1      15.430  23.207  43.992  0.00  0.00    +0.045 C 
ENDROOT
BRANCH  10   9
ATOM      4  C   UNL     1      16.320  18.791  40.845  0.00  0.00    +0.077 A 
ATOM      5  C   UNL     1      14.944  18.803  40.440  0.00  0.00    +0.048 A 
ATOM      6  C   UNL     1      14.282  20.051  40.429  0.00  0.00    +0.116 A 
ATOM      7  N   UNL     1      14.956  21.196  40.797  0.00  0.00    -0.223 NA
ATOM      8  C   UNL     1      16.283  21.149  41.184  0.00  0.00    +0.220 A 
ATOM      9  N   UNL     1      16.982  22.288  41.550  0.00  0.00    -0.283 N 
ATOM     36  H   UNL     1      17.958  22.211  41.836  0.00  0.00    +0.155 HD
ATOM     37  N   UNL     1      16.937  19.969  41.204  0.00  0.00    -0.214 NA
BRANCH   4   3
ATOM      1  C   UNL     1      17.454  15.048  40.805  0.00  0.00    +0.020 A 
ATOM      2  C   UNL     1      16.603  16.213  40.739  0.00  0.00    +0.013 A 
ATOM      3  C   UNL     1      17.157  17.551  40.905  0.00  0.00    +0.019 A 
ATOM     38  C   UNL     1      18.587  17.676  41.138  0.00  0.00    +0.120 A 
ATOM     39  N   UNL     1      19.382  16.536  41.199  0.00  0.00    -0.263 NA
ATOM     40  C   UNL     1      18.860  15.243  41.042  0.00  0.00    +0.111 A 
ENDBRANCH   4   3
ENDBRANCH  10   9
BRANCH  12  13
ATOM     13  N   UNL     1      15.942  26.510  39.131  0.00  0.00    -0.281 N 
ATOM     14  C   UNL     1      15.231  26.405  37.946  0.00  0.00    +0.248 C 
ATOM     30  O   UNL     1      14.571  25.430  37.620  0.00  0.00    -0.270 OA
ATOM     31  H   UNL     1      16.601  27.286  39.191  0.00  0.00    +0.155 HD
BRANCH  14  15
ATOM     15  C   UNL     1      15.272  27.543  36.978  0.00  0.00    +0.037 A 
ATOM     16  C   UNL     1      16.515  28.271  36.712  0.00  0.00    +0.013 A 
ATOM     17  C   UNL     1      16.522  29.376  35.786  0.00  0.00    +0.005 A 
ATOM     18  C   UNL     1      15.281  29.757  35.117  0.00  0.00    -0.033 A 
ATOM     28  C   UNL     1      14.063  29.014  35.394  0.00  0.00    +0.005 A 
ATOM     29  C   UNL     1      14.052  27.932  36.302  0.00  0.00    +0.013 A 
BRANCH  18  19
ATOM     19  C   UNL     1      15.192  30.936  34.129  0.00  0.00    +0.119 C 
BRANCH  19  20
ATOM     20  N   UNL     1      16.426  31.752  33.925  0.00  0.00    -0.302 NA
ATOM     21  C   UNL     1      16.107  33.236  33.725  0.00  0.00    +0.066 C 
ATOM     22  C   UNL     1      17.410  34.078  33.535  0.00  0.00    -0.064 C 
ATOM     23  N   UNL     1      18.200  33.529  32.346  0.00  0.00    +0.379 N 
ATOM     24  C   UNL     1      19.397  34.355  32.129  0.00  0.00    -0.096 C 
ATOM     25  H   UNL     1      17.556  33.623  31.441  0.00  0.00    -0.082 HD
ATOM     26  C   UNL     1      18.519  32.053  32.535  0.00  0.00    -0.064 C 
ATOM     27  C   UNL     1      17.219  31.230  32.752  0.00  0.00    +0.066 C 
ENDBRANCH  19  20
ENDBRANCH  18  19
ENDBRANCH  14  15
ENDBRANCH  12  13
TORSDOF 6
ENDMDL
MODEL 5
REMARK VINA RESULT:      -8.1     19.608     21.798
REMARK  Name = C:\Users\Docking\Desktop\test protocol\1iep_ligandH.pdb
REMARK  8 active torsions:
REMARK  status: ('A' for Active; 'I' for Inactive)
REMARK    1  A    between atoms: _5  and  _11
REMARK    2  A    between atoms: _19  and  _21
REMARK    3  A    between atoms: _22  and  _66
REMARK    4  A    between atoms: _27  and  _30
REMARK    5  A    between atoms: _32  and  _33
REMARK    6  A    between atoms: _38  and  _43
REMARK    7  A    between atoms: _43  and  _46
REMARK    8  A    between atoms: _53  and  _55
REMARK                            x       y       z     vdW  Elec       q    Type
REMARK                         _______ _______ _______ _____ _____    ______ ____
ROOT
ATOM     10  C   UNL     1      16.361  23.583  41.503  0.00  0.00    +0.038 A 
ATOM     11  C   UNL     1      16.543  24.380  40.344  0.00  0.00    +0.047 A 
ATOM     12  C   UNL     1      15.929  25.694  40.231  0.00  0.00    +0.035 A 
ATOM     32  C   UNL     1      15.137  26.165  41.318  0.00  0.00    +0.024 A 
ATOM     33  C   UNL     1      14.940  25.368  42.502  0.00  0.00    +0.007 A 
ATOM     34  C   UNL     1      15.542  24.070  42.619  0.00  0.00    -0.029 A 
ATOM     35  C   UNL     1      15.291  23.256  43.910  0.00  0.00    +0.045 C 
ENDROOT
BRANCH  10   9
ATOM      4  C   UNL     1      16.353  18.833  40.815  0.00  0.00    +0.077 A 
ATOM      5  C   UNL     1      15.004  18.846  40.328  0.00  0.00    +0.048 A 
ATOM      6  C   UNL     1      14.345  20.094  40.277  0.00  0.00    +0.116 A 
ATOM      7  N   UNL     1      14.996  21.238  40.685  0.00  0.00    -0.223 NA
ATOM      8  C   UNL     1      16.297  21.190  41.151  0.00  0.00    +0.220 A 
ATOM      9  N   UNL     1      16.974  22.329  41.559  0.00  0.00    -0.283 N 
ATOM     36  H   UNL     1      17.931  22.251  41.903  0.00  0.00    +0.155 HD
ATOM     37  N   UNL     1      16.948  20.010  41.211  0.00  0.00    -0.214 NA
BRANCH   4   3
ATOM      1  C   UNL     1      19.351  16.385  41.382  0.00  0.00    +0.020 A 
ATOM      2  C   UNL     1      18.595  17.612  41.289  0.00  0.00    +0.013 A 
ATOM      3  C   UNL     1      17.184  17.591  40.925  0.00  0.00    +0.019 A 
ATOM     38  C   UNL     1      16.563  16.302  40.661  0.00  0.00    +0.120 A 
ATOM     39  N   UNL     1      17.317  15.137  40.757  0.00  0.00    -0.263 NA
ATOM     40  C   UNL     1      18.676  15.144  41.104  0.00  0.00    +0.111 A 
ENDBRANCH   4   3
ENDBRANCH  10   9
BRANCH  12  13
ATOM     13  N   UNL     1      16.072  26.545  39.076  0.00  0.00    -0.281 N 
ATOM     14  C   UNL     1      15.426  26.439  37.855  0.00  0.00    +0.248 C 
ATOM     30  O   UNL     1      14.782  25.464  37.496  0.00  0.00    -0.270 OA
ATOM     31  H   UNL     1      16.729  27.319  39.169  0.00  0.00    +0.155 HD
BRANCH  14  15
ATOM     15  C   UNL     1      15.521  27.574  36.887  0.00  0.00    +0.037 A 
ATOM     16  C   UNL     1      14.319  28.215  36.347  0.00  0.00    +0.013 A 
ATOM     17  C   UNL     1      14.439  29.297  35.402  0.00  0.00    +0.005 A 
ATOM     18  C   UNL     1      15.767  29.745  34.991  0.00  0.00    -0.033 A 
ATOM     28  C   UNL     1      16.943  29.095  35.546  0.00  0.00    +0.005 A 
ATOM     29  C   UNL     1      16.829  28.034  36.472  0.00  0.00    +0.013 A 
BRANCH  18  19
ATOM     19  C   UNL     1      15.989  30.878  33.972  0.00  0.00    +0.119 C 
BRANCH  19  20
ATOM     20  N   UNL     1      17.348  30.992  33.361  0.00  0.00    -0.302 NA
ATOM     21  C   UNL     1      18.129  32.185  33.919  0.00  0.00    +0.066 C 
ATOM     22  C   UNL     1      19.556  32.276  33.286  0.00  0.00    -0.064 C 
ATOM     23  N   UNL     1      19.431  32.373  31.764  0.00  0.00    +0.379 N 
ATOM     24  C   UNL     1      20.768  32.517  31.171  0.00  0.00    -0.096 C 
ATOM     25  H   UNL     1      18.856  33.299  31.531  0.00  0.00    -0.082 HD
ATOM     26  C   UNL     1      18.653  31.192  31.202  0.00  0.00    -0.064 C 
ATOM     27  C   UNL     1      17.248  31.093  31.859  0.00  0.00    +0.066 C 
ENDBRANCH  19  20
ENDBRANCH  18  19
ENDBRANCH  14  15
ENDBRANCH  12  13
TORSDOF 6
ENDMDL
