MODEL 1
REMARK VINA RESULT:      -8.1      0.000      0.000
REMARK  Name = C:\Users\Docking\Desktop\test protocol\1iep_ligandH.pdb
REMARK  8 active torsions:
REMARK  status: ('A' for Active; 'I' for Inactive)
REMARK    1  A    between atoms: _5  and  _11
REMARK    2  A    between atoms: _19  and  _21
REMARK    3  A    between atoms: _22  and  _66
REMARK    4  A    between atoms: _27  and  _30
REMARK    5  A    between atoms: _32  and  _33
REMARK    6  A    between atoms: _38  and  _43
REMARK    7  A    between atoms: _43  and  _46
REMARK    8  A    between atoms: _53  and  _55
REMARK                            x       y       z     vdW  Elec       q    Type
REMARK                         _______ _______ _______ _____ _____    ______ ____
ROOT
ATOM     10  C   UNL     1       7.003 -33.226  -7.688  0.00  0.00    +0.038 A 
ATOM     11  C   UNL     1       8.311 -32.915  -7.237  0.00  0.00    +0.047 A 
ATOM     12  C   UNL     1       8.535 -32.338  -5.920  0.00  0.00    +0.035 A 
ATOM     32  C   UNL     1       7.404 -32.094  -5.088  0.00  0.00    +0.024 A 
ATOM     33  C   UNL     1       6.067 -32.402  -5.532  0.00  0.00    +0.007 A 
ATOM     34  C   UNL     1       5.840 -32.969  -6.831  0.00  0.00    -0.029 A 
ATOM     35  C   UNL     1       4.385 -33.274  -7.257  0.00  0.00    +0.045 C 
ENDROOT
BRANCH  10   9
ATOM      4  C   UNL     1       6.887 -36.965 -10.695  0.00  0.00    +0.077 A 
ATOM      5  C   UNL     1       7.192 -37.894  -9.646  0.00  0.00    +0.048 A 
ATOM      6  C   UNL     1       7.378 -37.368  -8.348  0.00  0.00    +0.116 A 
ATOM      7  N   UNL     1       7.265 -36.013  -8.127  0.00  0.00    -0.223 NA
ATOM      8  C   UNL     1       6.971 -35.144  -9.162  0.00  0.00    +0.220 A 
ATOM      9  N   UNL     1       6.845 -33.778  -8.962  0.00  0.00    -0.283 N 
ATOM     36  H   UNL     1       6.635 -33.170  -9.753  0.00  0.00    +0.155 HD
ATOM     37  N   UNL     1       6.790 -35.621 -10.411  0.00  0.00    -0.214 NA
BRANCH   4   3
ATOM      1  C   UNL     1       6.324 -39.092 -13.929  0.00  0.00    +0.020 A 
ATOM      2  C   UNL     1       6.544 -38.758 -12.541  0.00  0.00    +0.013 A 
ATOM      3  C   UNL     1       6.659 -37.367 -12.119  0.00  0.00    +0.019 A 
ATOM     38  C   UNL     1       6.544 -36.331 -13.135  0.00  0.00    +0.120 A 
ATOM     39  N   UNL     1       6.333 -36.684 -14.464  0.00  0.00    -0.263 NA
ATOM     40  C   UNL     1       6.223 -38.019 -14.882  0.00  0.00    +0.111 A 
ENDBRANCH   4   3
ENDBRANCH  10   9
BRANCH  12  13
ATOM     13  N   UNL     1       9.839 -31.995  -5.411  0.00  0.00    -0.281 N 
ATOM     14  C   UNL     1      10.585 -32.667  -4.456  0.00  0.00    +0.248 C 
ATOM     30  O   UNL     1      10.149 -33.554  -3.737  0.00  0.00    -0.270 OA
ATOM     31  H   UNL     1      10.264 -31.154  -5.801  0.00  0.00    +0.155 HD
BRANCH  14  15
ATOM     15  C   UNL     1      12.019 -32.291  -4.263  0.00  0.00    +0.037 A 
ATOM     16  C   UNL     1      12.437 -30.887  -4.227  0.00  0.00    +0.013 A 
ATOM     17  C   UNL     1      13.829 -30.552  -4.056  0.00  0.00    +0.005 A 
ATOM     18  C   UNL     1      14.812 -31.624  -3.919  0.00  0.00    -0.033 A 
ATOM     28  C   UNL     1      14.368 -33.008  -3.954  0.00  0.00    +0.005 A 
ATOM     29  C   UNL     1      13.006 -33.340  -4.122  0.00  0.00    +0.013 A 
BRANCH  18  19
ATOM     19  C   UNL     1      16.321 -31.359  -3.755  0.00  0.00    +0.119 C 
BRANCH  19  20
ATOM     20  N   UNL     1      16.973 -30.470  -4.762  0.00  0.00    -0.302 NA
ATOM     21  C   UNL     1      16.436 -30.714  -6.176  0.00  0.00    +0.066 C 
ATOM     22  C   UNL     1      17.113 -29.760  -7.213  0.00  0.00    -0.064 C 
ATOM     23  N   UNL     1      18.630 -29.955  -7.168  0.00  0.00    +0.379 N 
ATOM     24  C   UNL     1      19.265 -29.102  -8.183  0.00  0.00    -0.096 C 
ATOM     25  H   UNL     1      18.842 -31.016  -7.437  0.00  0.00    -0.082 HD
ATOM     26  C   UNL     1      19.171 -29.718  -5.765  0.00  0.00    -0.064 C 
ATOM     27  C   UNL     1      18.471 -30.650  -4.737  0.00  0.00    +0.066 C 
ENDBRANCH  19  20
ENDBRANCH  18  19
ENDBRANCH  14  15
ENDBRANCH  12  13
TORSDOF 6
ENDMDL
MODEL 2
REMARK VINA RESULT:      -8.0     23.798     27.947
REMARK  Name = C:\Users\Docking\Desktop\test protocol\1iep_ligandH.pdb
REMARK  8 active torsions:
REMARK  status: ('A' for Active; 'I' for Inactive)
REMARK    1  A    between atoms: _5  and  _11
REMARK    2  A    between atoms: _19  and  _21
REMARK    3  A    between atoms: _22  and  _66
REMARK    4  A    between atoms: _27  and  _30
REMARK    5  A    between atoms: _32  and  _33
REMARK    6  A    between atoms: _38  and  _43
REMARK    7  A    between atoms: _43  and  _46
REMARK    8  A    between atoms: _53  and  _55
REMARK                            x       y       z     vdW  Elec       q    Type
REMARK                         _______ _______ _______ _____ _____    ______ ____
ROOT
ATOM     10  C   UNL     1      15.020 -13.123 -25.551  0.00  0.00    +0.038 A 
ATOM     11  C   UNL     1      14.826 -14.468 -25.954  0.00  0.00    +0.047 A 
ATOM     12  C   UNL     1      15.645 -15.067 -26.997  0.00  0.00    +0.035 A 
ATOM     32  C   UNL     1      16.655 -14.266 -27.607  0.00  0.00    +0.024 A 
ATOM     33  C   UNL     1      16.864 -12.895 -27.209  0.00  0.00    +0.007 A 
ATOM     34  C   UNL     1      16.058 -12.299 -26.183  0.00  0.00    -0.029 A 
ATOM     35  C   UNL     1      16.323 -10.824 -25.802  0.00  0.00    +0.045 C 
ENDROOT
BRANCH  10   9
ATOM      4  C   UNL     1      11.198 -10.625 -24.070  0.00  0.00    +0.077 A 
ATOM      5  C   UNL     1      10.806 -10.314 -25.414  0.00  0.00    +0.048 A 
ATOM      6  C   UNL     1      11.619 -10.810 -26.458  0.00  0.00    +0.116 A 
ATOM      7  N   UNL     1      12.738 -11.560 -26.168  0.00  0.00    -0.223 NA
ATOM      8  C   UNL     1      13.089 -11.840 -24.860  0.00  0.00    +0.220 A 
ATOM      9  N   UNL     1      14.205 -12.599 -24.544  0.00  0.00    -0.283 N 
ATOM     36  H   UNL     1      14.434 -12.778 -23.567  0.00  0.00    +0.155 HD
ATOM     37  N   UNL     1      12.330 -11.377 -23.845  0.00  0.00    -0.214 NA
BRANCH   4   3
ATOM      1  C   UNL     1       8.955  -8.551 -21.627  0.00  0.00    +0.020 A 
ATOM      2  C   UNL     1       9.670  -8.939 -22.821  0.00  0.00    +0.013 A 
ATOM      3  C   UNL     1      10.440 -10.176 -22.860  0.00  0.00    +0.019 A 
ATOM     38  C   UNL     1      10.465 -11.005 -21.664  0.00  0.00    +0.120 A 
ATOM     39  N   UNL     1       9.768 -10.605 -20.528  0.00  0.00    -0.263 NA
ATOM     40  C   UNL     1       9.025  -9.416 -20.479  0.00  0.00    +0.111 A 
ENDBRANCH   4   3
ENDBRANCH  10   9
BRANCH  12  13
ATOM     13  N   UNL     1      15.489 -16.425 -27.454  0.00  0.00    -0.281 N 
ATOM     14  C   UNL     1      16.319 -17.507 -27.208  0.00  0.00    +0.248 C 
ATOM     30  O   UNL     1      17.442 -17.423 -26.732  0.00  0.00    -0.270 OA
ATOM     31  H   UNL     1      14.667 -16.612 -28.029  0.00  0.00    +0.155 HD
BRANCH  14  15
ATOM     15  C   UNL     1      15.838 -18.879 -27.555  0.00  0.00    +0.037 A 
ATOM     16  C   UNL     1      15.305 -19.185 -28.885  0.00  0.00    +0.013 A 
ATOM     17  C   UNL     1      14.832 -20.512 -29.187  0.00  0.00    +0.005 A 
ATOM     18  C   UNL     1      14.892 -21.546 -28.156  0.00  0.00    -0.033 A 
ATOM     28  C   UNL     1      15.431 -21.217 -26.847  0.00  0.00    +0.005 A 
ATOM     29  C   UNL     1      15.894 -19.916 -26.546  0.00  0.00    +0.013 A 
BRANCH  18  19
ATOM     19  C   UNL     1      14.391 -22.984 -28.384  0.00  0.00    +0.119 C 
BRANCH  19  20
ATOM     20  N   UNL     1      12.982 -23.287 -27.991  0.00  0.00    -0.302 NA
ATOM     21  C   UNL     1      12.725 -24.793 -27.890  0.00  0.00    +0.066 C 
ATOM     22  C   UNL     1      11.253 -25.092 -27.457  0.00  0.00    -0.064 C 
ATOM     23  N   UNL     1      10.289 -24.443 -28.453  0.00  0.00    +0.379 N 
ATOM     24  C   UNL     1       8.905 -24.771 -28.081  0.00  0.00    -0.096 C 
ATOM     25  H   UNL     1      10.486 -24.892 -29.454  0.00  0.00    -0.082 HD
ATOM     26  C   UNL     1      10.540 -22.946 -28.561  0.00  0.00    -0.064 C 
ATOM     27  C   UNL     1      12.014 -22.660 -28.964  0.00  0.00    +0.066 C 
ENDBRANCH  19  20
ENDBRANCH  18  19
ENDBRANCH  14  15
ENDBRANCH  12  13
TORSDOF 6
ENDMDL
MODEL 3
REMARK VINA RESULT:      -7.8     24.249     27.993
REMARK  Name = C:\Users\Docking\Desktop\test protocol\1iep_ligandH.pdb
REMARK  8 active torsions:
REMARK  status: ('A' for Active; 'I' for Inactive)
REMARK    1  A    between atoms: _5  and  _11
REMARK    2  A    between atoms: _19  and  _21
REMARK    3  A    between atoms: _22  and  _66
REMARK    4  A    between atoms: _27  and  _30
REMARK    5  A    between atoms: _32  and  _33
REMARK    6  A    between atoms: _38  and  _43
REMARK    7  A    between atoms: _43  and  _46
REMARK    8  A    between atoms: _53  and  _55
REMARK                            x       y       z     vdW  Elec       q    Type
REMARK                         _______ _______ _______ _____ _____    ______ ____
ROOT
ATOM     10  C   UNL     1      14.790 -12.913 -25.610  0.00  0.00    +0.038 A 
ATOM     11  C   UNL     1      14.763 -14.306 -25.877  0.00  0.00    +0.047 A 
ATOM     12  C   UNL     1      15.535 -14.878 -26.970  0.00  0.00    +0.035 A 
ATOM     32  C   UNL     1      16.326 -14.002 -27.769  0.00  0.00    +0.024 A 
ATOM     33  C   UNL     1      16.364 -12.584 -27.513  0.00  0.00    +0.007 A 
ATOM     34  C   UNL     1      15.603 -12.014 -26.438  0.00  0.00    -0.029 A 
ATOM     35  C   UNL     1      15.677 -10.485 -26.213  0.00  0.00    +0.045 C 
ENDROOT
BRANCH  10   9
ATOM      4  C   UNL     1      10.971 -10.592 -23.860  0.00  0.00    +0.077 A 
ATOM      5  C   UNL     1      10.461 -10.320 -25.173  0.00  0.00    +0.048 A 
ATOM      6  C   UNL     1      11.215 -10.788 -26.272  0.00  0.00    +0.116 A 
ATOM      7  N   UNL     1      12.390 -11.477 -26.062  0.00  0.00    -0.223 NA
ATOM      8  C   UNL     1      12.855 -11.721 -24.783  0.00  0.00    +0.220 A 
ATOM      9  N   UNL     1      14.030 -12.418 -24.548  0.00  0.00    -0.283 N 
ATOM     36  H   UNL     1      14.343 -12.571 -23.590  0.00  0.00    +0.155 HD
ATOM     37  N   UNL     1      12.154 -11.283 -23.717  0.00  0.00    -0.214 NA
BRANCH   4   3
ATOM      1  C   UNL     1       9.552 -10.544 -20.215  0.00  0.00    +0.020 A 
ATOM      2  C   UNL     1      10.225 -11.004 -21.408  0.00  0.00    +0.013 A 
ATOM      3  C   UNL     1      10.286 -10.166 -22.599  0.00  0.00    +0.019 A 
ATOM     38  C   UNL     1       9.652  -8.857 -22.549  0.00  0.00    +0.120 A 
ATOM     39  N   UNL     1       9.009  -8.441 -21.387  0.00  0.00    -0.263 NA
ATOM     40  C   UNL     1       8.943  -9.240 -20.235  0.00  0.00    +0.111 A 
ENDBRANCH   4   3
ENDBRANCH  10   9
BRANCH  12  13
ATOM     13  N   UNL     1      15.540 -16.283 -27.293  0.00  0.00    -0.281 N 
ATOM     14  C   UNL     1      16.570 -17.193 -27.119  0.00  0.00    +0.248 C 
ATOM     30  O   UNL     1      17.724 -16.889 -26.854  0.00  0.00    -0.270 OA
ATOM     31  H   UNL     1      14.681 -16.652 -27.700  0.00  0.00    +0.155 HD
BRANCH  14  15
ATOM     15  C   UNL     1      16.280 -18.651 -27.277  0.00  0.00    +0.037 A 
ATOM     16  C   UNL     1      17.019 -19.659 -26.513  0.00  0.00    +0.013 A 
ATOM     17  C   UNL     1      16.731 -21.060 -26.696  0.00  0.00    +0.005 A 
ATOM     18  C   UNL     1      15.697 -21.460 -27.648  0.00  0.00    -0.033 A 
ATOM     28  C   UNL     1      14.976 -20.438 -28.388  0.00  0.00    +0.005 A 
ATOM     29  C   UNL     1      15.256 -19.064 -28.212  0.00  0.00    +0.013 A 
BRANCH  18  19
ATOM     19  C   UNL     1      15.338 -22.932 -27.923  0.00  0.00    +0.119 C 
BRANCH  19  20
ATOM     20  N   UNL     1      16.377 -23.778 -28.581  0.00  0.00    -0.302 NA
ATOM     21  C   UNL     1      16.855 -23.174 -29.905  0.00  0.00    +0.066 C 
ATOM     22  C   UNL     1      17.959 -24.060 -30.569  0.00  0.00    -0.064 C 
ATOM     23  N   UNL     1      17.414 -25.472 -30.784  0.00  0.00    +0.379 N 
ATOM     24  C   UNL     1      18.429 -26.292 -31.462  0.00  0.00    -0.096 C 
ATOM     25  H   UNL     1      16.533 -25.395 -31.464  0.00  0.00    -0.082 HD
ATOM     26  C   UNL     1      16.934 -26.080 -29.474  0.00  0.00    -0.064 C 
ATOM     27  C   UNL     1      15.859 -25.176 -28.807  0.00  0.00    +0.066 C 
ENDBRANCH  19  20
ENDBRANCH  18  19
ENDBRANCH  14  15
ENDBRANCH  12  13
TORSDOF 6
ENDMDL
MODEL 4
REMARK VINA RESULT:      -7.7      2.606     12.373
REMARK  Name = C:\Users\Docking\Desktop\test protocol\1iep_ligandH.pdb
REMARK  8 active torsions:
REMARK  status: ('A' for Active; 'I' for Inactive)
REMARK    1  A    between atoms: _5  and  _11
REMARK    2  A    between atoms: _19  and  _21
REMARK    3  A    between atoms: _22  and  _66
REMARK    4  A    between atoms: _27  and  _30
REMARK    5  A    between atoms: _32  and  _33
REMARK    6  A    between atoms: _38  and  _43
REMARK    7  A    between atoms: _43  and  _46
REMARK    8  A    between atoms: _53  and  _55
REMARK                            x       y       z     vdW  Elec       q    Type
REMARK                         _______ _______ _______ _____ _____    ______ ____
ROOT
ATOM     10  C   UNL     1       7.836 -32.888  -6.088  0.00  0.00    +0.038 A 
ATOM     11  C   UNL     1       7.903 -33.626  -7.297  0.00  0.00    +0.047 A 
ATOM     12  C   UNL     1       6.704 -33.916  -8.069  0.00  0.00    +0.035 A 
ATOM     32  C   UNL     1       5.454 -33.436  -7.580  0.00  0.00    +0.024 A 
ATOM     33  C   UNL     1       5.368 -32.686  -6.352  0.00  0.00    +0.007 A 
ATOM     34  C   UNL     1       6.547 -32.399  -5.586  0.00  0.00    -0.029 A 
ATOM     35  C   UNL     1       6.394 -31.595  -4.274  0.00  0.00    +0.045 C 
ENDROOT
BRANCH  10   9
ATOM      4  C   UNL     1      11.775 -30.285  -5.225  0.00  0.00    +0.077 A 
ATOM      5  C   UNL     1      11.465 -29.359  -6.275  0.00  0.00    +0.048 A 
ATOM      6  C   UNL     1      10.286 -29.592  -7.019  0.00  0.00    +0.116 A 
ATOM      7  N   UNL     1       9.485 -30.673  -6.725  0.00  0.00    -0.223 NA
ATOM      8  C   UNL     1       9.814 -31.549  -5.706  0.00  0.00    +0.220 A 
ATOM      9  N   UNL     1       9.019 -32.639  -5.388  0.00  0.00    -0.283 N 
ATOM     36  H   UNL     1       9.300 -33.265  -4.634  0.00  0.00    +0.155 HD
ATOM     37  N   UNL     1      10.935 -31.349  -4.982  0.00  0.00    -0.214 NA
BRANCH   4   3
ATOM      1  C   UNL     1      15.354 -30.763  -3.721  0.00  0.00    +0.020 A 
ATOM      2  C   UNL     1      14.215 -30.909  -4.598  0.00  0.00    +0.013 A 
ATOM      3  C   UNL     1      12.984 -30.171  -4.348  0.00  0.00    +0.019 A 
ATOM     38  C   UNL     1      12.937 -29.286  -3.194  0.00  0.00    +0.120 A 
ATOM     39  N   UNL     1      14.049 -29.167  -2.366  0.00  0.00    -0.263 NA
ATOM     40  C   UNL     1      15.239 -29.873  -2.595  0.00  0.00    +0.111 A 
ENDBRANCH   4   3
ENDBRANCH  10   9
BRANCH  12  13
ATOM     13  N   UNL     1       6.709 -34.668  -9.299  0.00  0.00    -0.281 N 
ATOM     14  C   UNL     1       7.046 -35.998  -9.483  0.00  0.00    +0.248 C 
ATOM     30  O   UNL     1       7.604 -36.692  -8.646  0.00  0.00    -0.270 OA
ATOM     31  H   UNL     1       6.429 -34.156 -10.136  0.00  0.00    +0.155 HD
BRANCH  14  15
ATOM     15  C   UNL     1       6.732 -36.649 -10.792  0.00  0.00    +0.037 A 
ATOM     16  C   UNL     1       7.102 -38.042 -11.056  0.00  0.00    +0.013 A 
ATOM     17  C   UNL     1       6.802 -38.640 -12.333  0.00  0.00    +0.005 A 
ATOM     18  C   UNL     1       6.127 -37.845 -13.355  0.00  0.00    -0.033 A 
ATOM     28  C   UNL     1       5.767 -36.467 -13.065  0.00  0.00    +0.005 A 
ATOM     29  C   UNL     1       6.060 -35.877 -11.815  0.00  0.00    +0.013 A 
BRANCH  18  19
ATOM     19  C   UNL     1       5.787 -38.394 -14.753  0.00  0.00    +0.119 C 
BRANCH  19  20
ATOM     20  N   UNL     1       6.184 -39.803 -15.049  0.00  0.00    -0.302 NA
ATOM     21  C   UNL     1       7.194 -39.885 -16.198  0.00  0.00    +0.066 C 
ATOM     22  C   UNL     1       7.616 -41.364 -16.479  0.00  0.00    -0.064 C 
ATOM     23  N   UNL     1       6.371 -42.197 -16.791  0.00  0.00    +0.379 N 
ATOM     24  C   UNL     1       6.770 -43.574 -17.113  0.00  0.00    -0.096 C 
ATOM     25  H   UNL     1       5.893 -41.762 -17.700  0.00  0.00    -0.082 HD
ATOM     26  C   UNL     1       5.361 -42.118 -15.655  0.00  0.00    -0.064 C 
ATOM     27  C   UNL     1       4.971 -40.642 -15.364  0.00  0.00    +0.066 C 
ENDBRANCH  19  20
ENDBRANCH  18  19
ENDBRANCH  14  15
ENDBRANCH  12  13
TORSDOF 6
ENDMDL
MODEL 5
REMARK VINA RESULT:      -7.7      5.458      9.454
REMARK  Name = C:\Users\Docking\Desktop\test protocol\1iep_ligandH.pdb
REMARK  8 active torsions:
REMARK  status: ('A' for Active; 'I' for Inactive)
REMARK    1  A    between atoms: _5  and  _11
REMARK    2  A    between atoms: _19  and  _21
REMARK    3  A    between atoms: _22  and  _66
REMARK    4  A    between atoms: _27  and  _30
REMARK    5  A    between atoms: _32  and  _33
REMARK    6  A    between atoms: _38  and  _43
REMARK    7  A    between atoms: _43  and  _46
REMARK    8  A    between atoms: _53  and  _55
REMARK                            x       y       z     vdW  Elec       q    Type
REMARK                         _______ _______ _______ _____ _____    ______ ____
ROOT
ATOM     10  C   UNL     1       5.776 -38.374 -15.259  0.00  0.00    +0.038 A 
ATOM     11  C   UNL     1       6.424 -38.003 -14.053  0.00  0.00    +0.047 A 
ATOM     12  C   UNL     1       5.699 -37.333 -12.984  0.00  0.00    +0.035 A 
ATOM     32  C   UNL     1       4.313 -37.059 -13.177  0.00  0.00    +0.024 A 
ATOM     33  C   UNL     1       3.639 -37.428 -14.397  0.00  0.00    +0.007 A 
ATOM     34  C   UNL     1       4.350 -38.087 -15.455  0.00  0.00    -0.029 A 
ATOM     35  C   UNL     1       3.577 -38.454 -16.744  0.00  0.00    +0.045 C 
ENDROOT
BRANCH  10   9
ATOM      4  C   UNL     1       7.342 -42.326 -17.488  0.00  0.00    +0.077 A 
ATOM      5  C   UNL     1       6.639 -43.187 -16.581  0.00  0.00    +0.048 A 
ATOM      6  C   UNL     1       5.892 -42.574 -15.551  0.00  0.00    +0.116 A 
ATOM      7  N   UNL     1       5.857 -41.200 -15.445  0.00  0.00    -0.223 NA
ATOM      8  C   UNL     1       6.548 -40.399 -16.335  0.00  0.00    +0.220 A 
ATOM      9  N   UNL     1       6.520 -39.015 -16.252  0.00  0.00    -0.283 N 
ATOM     36  H   UNL     1       7.049 -38.459 -16.923  0.00  0.00    +0.155 HD
ATOM     37  N   UNL     1       7.270 -40.960 -17.327  0.00  0.00    -0.214 NA
BRANCH   4   3
ATOM      1  C   UNL     1       8.533 -43.342 -21.072  0.00  0.00    +0.020 A 
ATOM      2  C   UNL     1       7.691 -42.852 -20.006  0.00  0.00    +0.013 A 
ATOM      3  C   UNL     1       8.172 -42.824 -18.630  0.00  0.00    +0.019 A 
ATOM     38  C   UNL     1       9.521 -43.301 -18.366  0.00  0.00    +0.120 A 
ATOM     39  N   UNL     1      10.308 -43.769 -19.413  0.00  0.00    -0.263 NA
ATOM     40  C   UNL     1       9.856 -43.803 -20.741  0.00  0.00    +0.111 A 
ENDBRANCH   4   3
ENDBRANCH  10   9
BRANCH  12  13
ATOM     13  N   UNL     1       6.306 -36.926 -11.742  0.00  0.00    -0.281 N 
ATOM     14  C   UNL     1       7.395 -36.090 -11.559  0.00  0.00    +0.248 C 
ATOM     30  O   UNL     1       8.149 -35.733 -12.452  0.00  0.00    -0.270 OA
ATOM     31  H   UNL     1       5.880 -37.299 -10.893  0.00  0.00    +0.155 HD
BRANCH  14  15
ATOM     15  C   UNL     1       7.699 -35.589 -10.184  0.00  0.00    +0.037 A 
ATOM     16  C   UNL     1       7.361 -36.377  -8.996  0.00  0.00    +0.013 A 
ATOM     17  C   UNL     1       7.650 -35.863  -7.681  0.00  0.00    +0.005 A 
ATOM     18  C   UNL     1       8.281 -34.552  -7.547  0.00  0.00    -0.033 A 
ATOM     28  C   UNL     1       8.609 -33.793  -8.743  0.00  0.00    +0.005 A 
ATOM     29  C   UNL     1       8.327 -34.294 -10.034  0.00  0.00    +0.013 A 
BRANCH  18  19
ATOM     19  C   UNL     1       8.606 -33.915  -6.183  0.00  0.00    +0.119 C 
BRANCH  19  20
ATOM     20  N   UNL     1       7.881 -32.660  -5.824  0.00  0.00    -0.302 NA
ATOM     21  C   UNL     1       6.425 -32.682  -6.298  0.00  0.00    +0.066 C 
ATOM     22  C   UNL     1       5.675 -31.371  -5.894  0.00  0.00    -0.064 C 
ATOM     23  N   UNL     1       6.415 -30.164  -6.474  0.00  0.00    +0.379 N 
ATOM     24  C   UNL     1       5.681 -28.934  -6.146  0.00  0.00    -0.096 C 
ATOM     25  H   UNL     1       6.418 -30.271  -7.584  0.00  0.00    -0.082 HD
ATOM     26  C   UNL     1       7.865 -30.136  -6.010  0.00  0.00    -0.064 C 
ATOM     27  C   UNL     1       8.592 -31.456  -6.390  0.00  0.00    +0.066 C 
ENDBRANCH  19  20
ENDBRANCH  18  19
ENDBRANCH  14  15
ENDBRANCH  12  13
TORSDOF 6
ENDMDL
