MODEL 1
REMARK VINA RESULT:      -8.7      0.000      0.000
REMARK  Name = C:\Users\Docking\Desktop\test protocol\1iep_ligandH.pdb
REMARK  8 active torsions:
REMARK  status: ('A' for Active; 'I' for Inactive)
REMARK    1  A    between atoms: _5  and  _11
REMARK    2  A    between atoms: _19  and  _21
REMARK    3  A    between atoms: _22  and  _66
REMARK    4  A    between atoms: _27  and  _30
REMARK    5  A    between atoms: _32  and  _33
REMARK    6  A    between atoms: _38  and  _43
REMARK    7  A    between atoms: _43  and  _46
REMARK    8  A    between atoms: _53  and  _55
REMARK                            x       y       z     vdW  Elec       q    Type
REMARK                         _______ _______ _______ _____ _____    ______ ____
ROOT
ATOM     10  C   UNL     1      -6.169  17.120  27.080  0.00  0.00    +0.038 A 
ATOM     11  C   UNL     1      -5.279  18.220  26.997  0.00  0.00    +0.047 A 
ATOM     12  C   UNL     1      -4.449  18.429  25.821  0.00  0.00    +0.035 A 
ATOM     32  C   UNL     1      -4.553  17.499  24.746  0.00  0.00    +0.024 A 
ATOM     33  C   UNL     1      -5.452  16.374  24.815  0.00  0.00    +0.007 A 
ATOM     34  C   UNL     1      -6.271  16.161  25.974  0.00  0.00    -0.029 A 
ATOM     35  C   UNL     1      -7.213  14.934  25.995  0.00  0.00    +0.045 C 
ENDROOT
BRANCH  10   9
ATOM      4  C   UNL     1      -6.797  15.579  31.583  0.00  0.00    +0.077 A 
ATOM      5  C   UNL     1      -5.483  15.005  31.632  0.00  0.00    +0.048 A 
ATOM      6  C   UNL     1      -4.680  15.122  30.476  0.00  0.00    +0.116 A 
ATOM      7  N   UNL     1      -5.165  15.767  29.359  0.00  0.00    -0.223 NA
ATOM      8  C   UNL     1      -6.437  16.308  29.343  0.00  0.00    +0.220 A 
ATOM      9  N   UNL     1      -6.942  16.967  28.234  0.00  0.00    -0.283 N 
ATOM     36  H   UNL     1      -7.889  17.346  28.259  0.00  0.00    +0.155 HD
ATOM     37  N   UNL     1      -7.225  16.208  30.435  0.00  0.00    -0.214 NA
BRANCH   4   3
ATOM      1  C   UNL     1      -9.237  16.649  34.446  0.00  0.00    +0.020 A 
ATOM      2  C   UNL     1      -8.307  16.742  33.345  0.00  0.00    +0.013 A 
ATOM      3  C   UNL     1      -7.764  15.540  32.725  0.00  0.00    +0.019 A 
ATOM     38  C   UNL     1      -8.187  14.249  33.247  0.00  0.00    +0.120 A 
ATOM     39  N   UNL     1      -9.083  14.191  34.310  0.00  0.00    -0.263 NA
ATOM     40  C   UNL     1      -9.611  15.341  34.915  0.00  0.00    +0.111 A 
ENDBRANCH   4   3
ENDBRANCH  10   9
BRANCH  12  13
ATOM     13  N   UNL     1      -3.521  19.524  25.682  0.00  0.00    -0.281 N 
ATOM     14  C   UNL     1      -3.729  20.744  25.060  0.00  0.00    +0.248 C 
ATOM     30  O   UNL     1      -4.681  20.997  24.337  0.00  0.00    -0.270 OA
ATOM     31  H   UNL     1      -2.598  19.383  26.094  0.00  0.00    +0.155 HD
BRANCH  14  15
ATOM     15  C   UNL     1      -2.728  21.836  25.257  0.00  0.00    +0.037 A 
ATOM     16  C   UNL     1      -1.407  21.779  24.626  0.00  0.00    +0.013 A 
ATOM     17  C   UNL     1      -0.453  22.837  24.846  0.00  0.00    +0.005 A 
ATOM     18  C   UNL     1      -0.819  23.963  25.702  0.00  0.00    -0.033 A 
ATOM     28  C   UNL     1      -2.138  23.997  26.312  0.00  0.00    +0.005 A 
ATOM     29  C   UNL     1      -3.074  22.961  26.099  0.00  0.00    +0.013 A 
BRANCH  18  19
ATOM     19  C   UNL     1       0.143  25.126  26.010  0.00  0.00    +0.119 C 
BRANCH  19  20
ATOM     20  N   UNL     1       1.104  24.939  27.138  0.00  0.00    -0.302 NA
ATOM     21  C   UNL     1       0.387  24.688  28.468  0.00  0.00    +0.066 C 
ATOM     22  C   UNL     1       1.407  24.472  29.633  0.00  0.00    -0.064 C 
ATOM     23  N   UNL     1       2.327  25.690  29.734  0.00  0.00    +0.379 N 
ATOM     24  C   UNL     1       3.250  25.515  30.865  0.00  0.00    -0.096 C 
ATOM     25  H   UNL     1       1.690  26.578  29.952  0.00  0.00    -0.082 HD
ATOM     26  C   UNL     1       3.042  25.947  28.415  0.00  0.00    -0.064 C 
ATOM     27  C   UNL     1       2.020  26.132  27.259  0.00  0.00    +0.066 C 
ENDBRANCH  19  20
ENDBRANCH  18  19
ENDBRANCH  14  15
ENDBRANCH  12  13
TORSDOF 6
ENDMDL
MODEL 2
REMARK VINA RESULT:      -8.7      7.745     12.176
REMARK  Name = C:\Users\Docking\Desktop\test protocol\1iep_ligandH.pdb
REMARK  8 active torsions:
REMARK  status: ('A' for Active; 'I' for Inactive)
REMARK    1  A    between atoms: _5  and  _11
REMARK    2  A    between atoms: _19  and  _21
REMARK    3  A    between atoms: _22  and  _66
REMARK    4  A    between atoms: _27  and  _30
REMARK    5  A    between atoms: _32  and  _33
REMARK    6  A    between atoms: _38  and  _43
REMARK    7  A    between atoms: _43  and  _46
REMARK    8  A    between atoms: _53  and  _55
REMARK                            x       y       z     vdW  Elec       q    Type
REMARK                         _______ _______ _______ _____ _____    ______ ____
ROOT
ATOM     10  C   UNL     1     -10.103  23.440  24.974  0.00  0.00    +0.038 A 
ATOM     11  C   UNL     1      -9.861  22.322  25.812  0.00  0.00    +0.047 A 
ATOM     12  C   UNL     1      -9.420  21.050  25.261  0.00  0.00    +0.035 A 
ATOM     32  C   UNL     1      -9.232  20.953  23.851  0.00  0.00    +0.024 A 
ATOM     33  C   UNL     1      -9.474  22.079  22.984  0.00  0.00    +0.007 A 
ATOM     34  C   UNL     1      -9.912  23.336  23.522  0.00  0.00    -0.029 A 
ATOM     35  C   UNL     1     -10.163  24.508  22.545  0.00  0.00    +0.045 C 
ENDROOT
BRANCH  10   9
ATOM      4  C   UNL     1     -13.524  26.575  26.200  0.00  0.00    +0.077 A 
ATOM      5  C   UNL     1     -14.555  25.773  25.606  0.00  0.00    +0.048 A 
ATOM      6  C   UNL     1     -14.162  24.564  24.989  0.00  0.00    +0.116 A 
ATOM      7  N   UNL     1     -12.834  24.195  24.973  0.00  0.00    -0.223 NA
ATOM      8  C   UNL     1     -11.865  24.992  25.554  0.00  0.00    +0.220 A 
ATOM      9  N   UNL     1     -10.525  24.637  25.556  0.00  0.00    -0.283 N 
ATOM     36  H   UNL     1      -9.840  25.256  25.989  0.00  0.00    +0.155 HD
ATOM     37  N   UNL     1     -12.215  26.152  26.148  0.00  0.00    -0.214 NA
BRANCH   4   3
ATOM      1  C   UNL     1     -13.459  29.498  28.798  0.00  0.00    +0.020 A 
ATOM      2  C   UNL     1     -13.177  28.227  28.171  0.00  0.00    +0.013 A 
ATOM      3  C   UNL     1     -13.782  27.877  26.893  0.00  0.00    +0.019 A 
ATOM     38  C   UNL     1     -14.674  28.843  26.269  0.00  0.00    +0.120 A 
ATOM     39  N   UNL     1     -14.928  30.058  26.896  0.00  0.00    -0.263 NA
ATOM     40  C   UNL     1     -14.353  30.406  28.128  0.00  0.00    +0.111 A 
ENDBRANCH   4   3
ENDBRANCH  10   9
BRANCH  12  13
ATOM     13  N   UNL     1      -9.166  19.878  26.061  0.00  0.00    -0.281 N 
ATOM     14  C   UNL     1      -7.942  19.319  26.390  0.00  0.00    +0.248 C 
ATOM     30  O   UNL     1      -6.881  19.622  25.865  0.00  0.00    -0.270 OA
ATOM     31  H   UNL     1      -9.990  19.402  26.431  0.00  0.00    +0.155 HD
BRANCH  14  15
ATOM     15  C   UNL     1      -7.891  18.260  27.444  0.00  0.00    +0.037 A 
ATOM     16  C   UNL     1      -7.008  18.387  28.606  0.00  0.00    +0.013 A 
ATOM     17  C   UNL     1      -6.965  17.344  29.599  0.00  0.00    +0.005 A 
ATOM     18  C   UNL     1      -7.810  16.163  29.435  0.00  0.00    -0.033 A 
ATOM     28  C   UNL     1      -8.681  16.066  28.275  0.00  0.00    +0.005 A 
ATOM     29  C   UNL     1      -8.724  17.086  27.298  0.00  0.00    +0.013 A 
BRANCH  18  19
ATOM     19  C   UNL     1      -7.814  14.991  30.434  0.00  0.00    +0.119 C 
BRANCH  19  20
ATOM     20  N   UNL     1      -6.648  14.059  30.398  0.00  0.00    -0.302 NA
ATOM     21  C   UNL     1      -6.592  13.259  29.093  0.00  0.00    +0.066 C 
ATOM     22  C   UNL     1      -5.354  12.305  29.064  0.00  0.00    -0.064 C 
ATOM     23  N   UNL     1      -5.406  11.368  30.271  0.00  0.00    +0.379 N 
ATOM     24  C   UNL     1      -4.274  10.431  30.215  0.00  0.00    -0.096 C 
ATOM     25  H   UNL     1      -6.344  10.770  30.195  0.00  0.00    -0.082 HD
ATOM     26  C   UNL     1      -5.465  12.155  31.573  0.00  0.00    -0.064 C 
ATOM     27  C   UNL     1      -6.682  13.121  31.580  0.00  0.00    +0.066 C 
ENDBRANCH  19  20
ENDBRANCH  18  19
ENDBRANCH  14  15
ENDBRANCH  12  13
TORSDOF 6
ENDMDL
MODEL 3
REMARK VINA RESULT:      -8.7      7.601     12.475
REMARK  Name = C:\Users\Docking\Desktop\test protocol\1iep_ligandH.pdb
REMARK  8 active torsions:
REMARK  status: ('A' for Active; 'I' for Inactive)
REMARK    1  A    between atoms: _5  and  _11
REMARK    2  A    between atoms: _19  and  _21
REMARK    3  A    between atoms: _22  and  _66
REMARK    4  A    between atoms: _27  and  _30
REMARK    5  A    between atoms: _32  and  _33
REMARK    6  A    between atoms: _38  and  _43
REMARK    7  A    between atoms: _43  and  _46
REMARK    8  A    between atoms: _53  and  _55
REMARK                            x       y       z     vdW  Elec       q    Type
REMARK                         _______ _______ _______ _____ _____    ______ ____
ROOT
ATOM     10  C   UNL     1     -10.008  23.441  24.937  0.00  0.00    +0.038 A 
ATOM     11  C   UNL     1      -9.809  22.291  25.744  0.00  0.00    +0.047 A 
ATOM     12  C   UNL     1      -9.368  21.032  25.164  0.00  0.00    +0.035 A 
ATOM     32  C   UNL     1      -9.136  20.980  23.759  0.00  0.00    +0.024 A 
ATOM     33  C   UNL     1      -9.334  22.138  22.924  0.00  0.00    +0.007 A 
ATOM     34  C   UNL     1      -9.772  23.382  23.490  0.00  0.00    -0.029 A 
ATOM     35  C   UNL     1      -9.974  24.590  22.545  0.00  0.00    +0.045 C 
ENDROOT
BRANCH  10   9
ATOM      4  C   UNL     1     -13.435  26.544  26.227  0.00  0.00    +0.077 A 
ATOM      5  C   UNL     1     -14.463  25.755  25.612  0.00  0.00    +0.048 A 
ATOM      6  C   UNL     1     -14.068  24.562  24.968  0.00  0.00    +0.116 A 
ATOM      7  N   UNL     1     -12.740  24.194  24.947  0.00  0.00    -0.223 NA
ATOM      8  C   UNL     1     -11.773  24.978  25.548  0.00  0.00    +0.220 A 
ATOM      9  N   UNL     1     -10.433  24.624  25.546  0.00  0.00    -0.283 N 
ATOM     36  H   UNL     1      -9.749  25.233  25.995  0.00  0.00    +0.155 HD
ATOM     37  N   UNL     1     -12.125  26.124  26.169  0.00  0.00    -0.214 NA
BRANCH   4   3
ATOM      1  C   UNL     1     -13.328  29.435  28.860  0.00  0.00    +0.020 A 
ATOM      2  C   UNL     1     -13.042  28.180  28.204  0.00  0.00    +0.013 A 
ATOM      3  C   UNL     1     -13.695  27.830  26.949  0.00  0.00    +0.019 A 
ATOM     38  C   UNL     1     -14.640  28.779  26.380  0.00  0.00    +0.120 A 
ATOM     39  N   UNL     1     -14.896  29.979  27.035  0.00  0.00    -0.263 NA
ATOM     40  C   UNL     1     -14.275  30.327  28.244  0.00  0.00    +0.111 A 
ENDBRANCH   4   3
ENDBRANCH  10   9
BRANCH  12  13
ATOM     13  N   UNL     1      -9.157  19.830  25.932  0.00  0.00    -0.281 N 
ATOM     14  C   UNL     1      -7.953  19.286  26.349  0.00  0.00    +0.248 C 
ATOM     30  O   UNL     1      -6.857  19.639  25.940  0.00  0.00    -0.270 OA
ATOM     31  H   UNL     1      -9.998  19.318  26.201  0.00  0.00    +0.155 HD
BRANCH  14  15
ATOM     15  C   UNL     1      -7.970  18.181  27.355  0.00  0.00    +0.037 A 
ATOM     16  C   UNL     1      -8.902  17.057  27.233  0.00  0.00    +0.013 A 
ATOM     17  C   UNL     1      -8.909  16.012  28.227  0.00  0.00    +0.005 A 
ATOM     18  C   UNL     1      -7.979  16.087  29.351  0.00  0.00    -0.033 A 
ATOM     28  C   UNL     1      -7.062  17.211  29.445  0.00  0.00    +0.005 A 
ATOM     29  C   UNL     1      -7.053  18.237  28.473  0.00  0.00    +0.013 A 
BRANCH  18  19
ATOM     19  C   UNL     1      -7.931  15.029  30.469  0.00  0.00    +0.119 C 
BRANCH  19  20
ATOM     20  N   UNL     1      -8.822  15.240  31.649  0.00  0.00    -0.302 NA
ATOM     21  C   UNL     1      -8.313  14.503  32.892  0.00  0.00    +0.066 C 
ATOM     22  C   UNL     1      -9.244  14.754  34.122  0.00  0.00    -0.064 C 
ATOM     23  N   UNL     1     -10.669  14.316  33.778  0.00  0.00    +0.379 N 
ATOM     24  C   UNL     1     -11.535  14.496  34.953  0.00  0.00    -0.096 C 
ATOM     25  H   UNL     1     -10.640  13.227  33.543  0.00  0.00    -0.082 HD
ATOM     26  C   UNL     1     -11.181  15.042  32.542  0.00  0.00    -0.064 C 
ATOM     27  C   UNL     1     -10.233  14.810  31.333  0.00  0.00    +0.066 C 
ENDBRANCH  19  20
ENDBRANCH  18  19
ENDBRANCH  14  15
ENDBRANCH  12  13
TORSDOF 6
ENDMDL
MODEL 4
REMARK VINA RESULT:      -8.5      6.717      9.603
REMARK  Name = C:\Users\Docking\Desktop\test protocol\1iep_ligandH.pdb
REMARK  8 active torsions:
REMARK  status: ('A' for Active; 'I' for Inactive)
REMARK    1  A    between atoms: _5  and  _11
REMARK    2  A    between atoms: _19  and  _21
REMARK    3  A    between atoms: _22  and  _66
REMARK    4  A    between atoms: _27  and  _30
REMARK    5  A    between atoms: _32  and  _33
REMARK    6  A    between atoms: _38  and  _43
REMARK    7  A    between atoms: _43  and  _46
REMARK    8  A    between atoms: _53  and  _55
REMARK                            x       y       z     vdW  Elec       q    Type
REMARK                         _______ _______ _______ _____ _____    ______ ____
ROOT
ATOM     10  C   UNL     1      -5.502  15.839  30.440  0.00  0.00    +0.038 A 
ATOM     11  C   UNL     1      -5.971  16.636  29.364  0.00  0.00    +0.047 A 
ATOM     12  C   UNL     1      -7.179  17.436  29.490  0.00  0.00    +0.035 A 
ATOM     32  C   UNL     1      -7.884  17.404  30.728  0.00  0.00    +0.024 A 
ATOM     33  C   UNL     1      -7.422  16.599  31.832  0.00  0.00    +0.007 A 
ATOM     34  C   UNL     1      -6.232  15.806  31.712  0.00  0.00    -0.029 A 
ATOM     35  C   UNL     1      -5.788  14.957  32.926  0.00  0.00    +0.045 C 
ENDROOT
BRANCH  10   9
ATOM      4  C   UNL     1      -3.213  11.767  29.335  0.00  0.00    +0.077 A 
ATOM      5  C   UNL     1      -4.445  11.065  29.117  0.00  0.00    +0.048 A 
ATOM      6  C   UNL     1      -5.646  11.786  29.307  0.00  0.00    +0.116 A 
ATOM      7  N   UNL     1      -5.605  13.110  29.686  0.00  0.00    -0.223 NA
ATOM      8  C   UNL     1      -4.400  13.757  29.889  0.00  0.00    +0.220 A 
ATOM      9  N   UNL     1      -4.336  15.091  30.263  0.00  0.00    -0.283 N 
ATOM     36  H   UNL     1      -3.428  15.530  30.411  0.00  0.00    +0.155 HD
ATOM     37  N   UNL     1      -3.240  13.090  29.716  0.00  0.00    -0.214 NA
BRANCH   4   3
ATOM      1  C   UNL     1       0.596  10.962  29.707  0.00  0.00    +0.020 A 
ATOM      2  C   UNL     1      -0.686  11.600  29.901  0.00  0.00    +0.013 A 
ATOM      3  C   UNL     1      -1.862  11.144  29.172  0.00  0.00    +0.019 A 
ATOM     38  C   UNL     1      -1.707  10.031  28.247  0.00  0.00    +0.120 A 
ATOM     39  N   UNL     1      -0.459   9.437  28.080  0.00  0.00    -0.263 NA
ATOM     40  C   UNL     1       0.680   9.869  28.775  0.00  0.00    +0.111 A 
ENDBRANCH   4   3
ENDBRANCH  10   9
BRANCH  12  13
ATOM     13  N   UNL     1      -7.707  18.257  28.429  0.00  0.00    -0.281 N 
ATOM     14  C   UNL     1      -8.403  17.850  27.303  0.00  0.00    +0.248 C 
ATOM     30  O   UNL     1      -8.492  16.690  26.927  0.00  0.00    -0.270 OA
ATOM     31  H   UNL     1      -7.549  19.261  28.520  0.00  0.00    +0.155 HD
BRANCH  14  15
ATOM     15  C   UNL     1      -9.087  18.881  26.465  0.00  0.00    +0.037 A 
ATOM     16  C   UNL     1     -10.504  18.756  26.113  0.00  0.00    +0.013 A 
ATOM     17  C   UNL     1     -11.135  19.756  25.289  0.00  0.00    +0.005 A 
ATOM     18  C   UNL     1     -10.350  20.892  24.812  0.00  0.00    -0.033 A 
ATOM     28  C   UNL     1      -8.947  20.994  25.181  0.00  0.00    +0.005 A 
ATOM     29  C   UNL     1      -8.325  20.015  25.987  0.00  0.00    +0.013 A 
BRANCH  18  19
ATOM     19  C   UNL     1     -10.935  21.995  23.911  0.00  0.00    +0.119 C 
BRANCH  19  20
ATOM     20  N   UNL     1     -11.986  22.876  24.503  0.00  0.00    -0.302 NA
ATOM     21  C   UNL     1     -12.448  23.957  23.523  0.00  0.00    +0.066 C 
ATOM     22  C   UNL     1     -13.564  24.855  24.151  0.00  0.00    -0.064 C 
ATOM     23  N   UNL     1     -13.041  25.484  25.444  0.00  0.00    +0.379 N 
ATOM     24  C   UNL     1     -14.066  26.374  26.007  0.00  0.00    -0.096 C 
ATOM     25  H   UNL     1     -12.156  26.109  25.182  0.00  0.00    -0.082 HD
ATOM     26  C   UNL     1     -12.576  24.415  26.424  0.00  0.00    -0.064 C 
ATOM     27  C   UNL     1     -11.489  23.510  25.779  0.00  0.00    +0.066 C 
ENDBRANCH  19  20
ENDBRANCH  18  19
ENDBRANCH  14  15
ENDBRANCH  12  13
TORSDOF 6
ENDMDL
MODEL 5
REMARK VINA RESULT:      -8.4      8.312     16.036
REMARK  Name = C:\Users\Docking\Desktop\test protocol\1iep_ligandH.pdb
REMARK  8 active torsions:
REMARK  status: ('A' for Active; 'I' for Inactive)
REMARK    1  A    between atoms: _5  and  _11
REMARK    2  A    between atoms: _19  and  _21
REMARK    3  A    between atoms: _22  and  _66
REMARK    4  A    between atoms: _27  and  _30
REMARK    5  A    between atoms: _32  and  _33
REMARK    6  A    between atoms: _38  and  _43
REMARK    7  A    between atoms: _43  and  _46
REMARK    8  A    between atoms: _53  and  _55
REMARK                            x       y       z     vdW  Elec       q    Type
REMARK                         _______ _______ _______ _____ _____    ______ ____
ROOT
ATOM     10  C   UNL     1      -8.417  14.753  32.635  0.00  0.00    +0.038 A 
ATOM     11  C   UNL     1      -8.942  13.888  33.628  0.00  0.00    +0.047 A 
ATOM     12  C   UNL     1      -9.604  14.415  34.812  0.00  0.00    +0.035 A 
ATOM     32  C   UNL     1      -9.717  15.829  34.949  0.00  0.00    +0.024 A 
ATOM     33  C   UNL     1      -9.188  16.723  33.950  0.00  0.00    +0.007 A 
ATOM     34  C   UNL     1      -8.532  16.209  32.782  0.00  0.00    -0.029 A 
ATOM     35  C   UNL     1      -7.978  17.215  31.746  0.00  0.00    +0.045 C 
ENDROOT
BRANCH  10   9
ATOM      4  C   UNL     1      -4.504  13.326  30.249  0.00  0.00    +0.077 A 
ATOM      5  C   UNL     1      -3.632  13.756  31.303  0.00  0.00    +0.048 A 
ATOM      6  C   UNL     1      -4.230  14.347  32.439  0.00  0.00    +0.116 A 
ATOM      7  N   UNL     1      -5.599  14.491  32.506  0.00  0.00    -0.223 NA
ATOM      8  C   UNL     1      -6.411  14.066  31.470  0.00  0.00    +0.220 A 
ATOM      9  N   UNL     1      -7.791  14.193  31.519  0.00  0.00    -0.283 N 
ATOM     36  H   UNL     1      -8.355  13.875  30.732  0.00  0.00    +0.155 HD
ATOM     37  N   UNL     1      -5.865  13.500  30.374  0.00  0.00    -0.214 NA
BRANCH   4   3
ATOM      1  C   UNL     1      -3.393  12.742  26.544  0.00  0.00    +0.020 A 
ATOM      2  C   UNL     1      -3.860  13.412  27.736  0.00  0.00    +0.013 A 
ATOM      3  C   UNL     1      -4.024  12.681  28.986  0.00  0.00    +0.019 A 
ATOM     38  C   UNL     1      -3.703  11.262  28.997  0.00  0.00    +0.120 A 
ATOM     39  N   UNL     1      -3.256  10.643  27.834  0.00  0.00    -0.263 NA
ATOM     40  C   UNL     1      -3.096  11.336  26.625  0.00  0.00    +0.111 A 
ENDBRANCH   4   3
ENDBRANCH  10   9
BRANCH  12  13
ATOM     13  N   UNL     1     -10.149  13.585  35.857  0.00  0.00    -0.281 N 
ATOM     14  C   UNL     1     -11.246  12.741  35.791  0.00  0.00    +0.248 C 
ATOM     30  O   UNL     1     -12.057  12.733  34.877  0.00  0.00    -0.270 OA
ATOM     31  H   UNL     1      -9.668  13.625  36.756  0.00  0.00    +0.155 HD
BRANCH  14  15
ATOM     15  C   UNL     1     -11.483  11.776  36.907  0.00  0.00    +0.037 A 
ATOM     16  C   UNL     1     -11.539  12.225  38.301  0.00  0.00    +0.013 A 
ATOM     17  C   UNL     1     -11.752  11.271  39.360  0.00  0.00    +0.005 A 
ATOM     18  C   UNL     1     -11.913   9.857  39.028  0.00  0.00    -0.033 A 
ATOM     28  C   UNL     1     -11.859   9.440  37.637  0.00  0.00    +0.005 A 
ATOM     29  C   UNL     1     -11.649  10.372  36.596  0.00  0.00    +0.013 A 
BRANCH  18  19
ATOM     19  C   UNL     1     -12.124   8.767  40.096  0.00  0.00    +0.119 C 
BRANCH  19  20
ATOM     20  N   UNL     1     -11.121   7.661  40.151  0.00  0.00    -0.302 NA
ATOM     21  C   UNL     1     -11.739   6.307  39.793  0.00  0.00    +0.066 C 
ATOM     22  C   UNL     1     -10.671   5.166  39.834  0.00  0.00    -0.064 C 
ATOM     23  N   UNL     1     -10.031   5.119  41.223  0.00  0.00    +0.379 N 
ATOM     24  C   UNL     1      -9.068   4.010  41.283  0.00  0.00    -0.096 C 
ATOM     25  H   UNL     1     -10.840   4.905  41.960  0.00  0.00    -0.082 HD
ATOM     26  C   UNL     1      -9.417   6.463  41.588  0.00  0.00    -0.064 C 
ATOM     27  C   UNL     1     -10.480   7.595  41.515  0.00  0.00    +0.066 C 
ENDBRANCH  19  20
ENDBRANCH  18  19
ENDBRANCH  14  15
ENDBRANCH  12  13
TORSDOF 6
ENDMDL
