MODEL 1
REMARK VINA RESULT:      -8.4      0.000      0.000
REMARK  Name = C:\Users\Docking\Desktop\test protocol\1iep_ligandH.pdb
REMARK  8 active torsions:
REMARK  status: ('A' for Active; 'I' for Inactive)
REMARK    1  A    between atoms: _5  and  _11
REMARK    2  A    between atoms: _19  and  _21
REMARK    3  A    between atoms: _22  and  _66
REMARK    4  A    between atoms: _27  and  _30
REMARK    5  A    between atoms: _32  and  _33
REMARK    6  A    between atoms: _38  and  _43
REMARK    7  A    between atoms: _43  and  _46
REMARK    8  A    between atoms: _53  and  _55
REMARK                            x       y       z     vdW  Elec       q    Type
REMARK                         _______ _______ _______ _____ _____    ______ ____
ROOT
ATOM     10  C   UNL     1      -8.349  14.684   5.019  0.00  0.00    +0.038 A 
ATOM     11  C   UNL     1      -8.895  13.758   5.945  0.00  0.00    +0.047 A 
ATOM     12  C   UNL     1      -9.647  14.210   7.105  0.00  0.00    +0.035 A 
ATOM     32  C   UNL     1      -9.827  15.612   7.290  0.00  0.00    +0.024 A 
ATOM     33  C   UNL     1      -9.278  16.566   6.359  0.00  0.00    +0.007 A 
ATOM     34  C   UNL     1      -8.533  16.127   5.214  0.00  0.00    -0.029 A 
ATOM     35  C   UNL     1      -7.962  17.195   4.253  0.00  0.00    +0.045 C 
ENDROOT
BRANCH  10   9
ATOM      4  C   UNL     1      -4.260  13.387   2.866  0.00  0.00    +0.077 A 
ATOM      5  C   UNL     1      -3.475  13.740   4.015  0.00  0.00    +0.048 A 
ATOM      6  C   UNL     1      -4.161  14.257   5.136  0.00  0.00    +0.116 A 
ATOM      7  N   UNL     1      -5.531  14.407   5.100  0.00  0.00    -0.223 NA
ATOM      8  C   UNL     1      -6.257  14.060   3.977  0.00  0.00    +0.220 A 
ATOM      9  N   UNL     1      -7.636  14.194   3.922  0.00  0.00    -0.283 N 
ATOM     36  H   UNL     1      -8.135  13.934   3.072  0.00  0.00    +0.155 HD
ATOM     37  N   UNL     1      -5.625  13.564   2.892  0.00  0.00    -0.214 NA
BRANCH   4   3
ATOM      1  C   UNL     1      -3.049  12.985  -0.831  0.00  0.00    +0.020 A 
ATOM      2  C   UNL     1      -3.620  13.575   0.358  0.00  0.00    +0.013 A 
ATOM      3  C   UNL     1      -3.680  12.825   1.606  0.00  0.00    +0.019 A 
ATOM     38  C   UNL     1      -3.150  11.470   1.618  0.00  0.00    +0.120 A 
ATOM     39  N   UNL     1      -2.607  10.927   0.457  0.00  0.00    -0.263 NA
ATOM     40  C   UNL     1      -2.545  11.639  -0.751  0.00  0.00    +0.111 A 
ENDBRANCH   4   3
ENDBRANCH  10   9
BRANCH  12  13
ATOM     13  N   UNL     1     -10.218  13.318   8.084  0.00  0.00    -0.281 N 
ATOM     14  C   UNL     1     -11.275  12.437   7.919  0.00  0.00    +0.248 C 
ATOM     30  O   UNL     1     -12.032  12.437   6.960  0.00  0.00    -0.270 OA
ATOM     31  H   UNL     1      -9.791  13.338   9.010  0.00  0.00    +0.155 HD
BRANCH  14  15
ATOM     15  C   UNL     1     -11.537  11.418   8.981  0.00  0.00    +0.037 A 
ATOM     16  C   UNL     1     -11.647  11.801  10.391  0.00  0.00    +0.013 A 
ATOM     17  C   UNL     1     -11.884  10.796  11.397  0.00  0.00    +0.005 A 
ATOM     18  C   UNL     1     -12.014   9.397  10.995  0.00  0.00    -0.033 A 
ATOM     28  C   UNL     1     -11.906   9.046   9.588  0.00  0.00    +0.005 A 
ATOM     29  C   UNL     1     -11.673  10.029   8.600  0.00  0.00    +0.013 A 
BRANCH  18  19
ATOM     19  C   UNL     1     -12.246   8.256  12.002  0.00  0.00    +0.119 C 
BRANCH  19  20
ATOM     20  N   UNL     1     -11.089   7.359  12.298  0.00  0.00    -0.302 NA
ATOM     21  C   UNL     1     -11.442   5.882  12.100  0.00  0.00    +0.066 C 
ATOM     22  C   UNL     1     -10.214   4.959  12.391  0.00  0.00    -0.064 C 
ATOM     23  N   UNL     1      -9.718   5.211  13.816  0.00  0.00    +0.379 N 
ATOM     24  C   UNL     1      -8.600   4.303  14.113  0.00  0.00    -0.096 C 
ATOM     25  H   UNL     1     -10.551   4.961  14.513  0.00  0.00    -0.082 HD
ATOM     26  C   UNL     1      -9.367   6.677  14.022  0.00  0.00    -0.064 C 
ATOM     27  C   UNL     1     -10.585   7.588  13.702  0.00  0.00    +0.066 C 
ENDBRANCH  19  20
ENDBRANCH  18  19
ENDBRANCH  14  15
ENDBRANCH  12  13
TORSDOF 6
ENDMDL
MODEL 2
REMARK VINA RESULT:      -8.3      1.126      1.689
REMARK  Name = C:\Users\Docking\Desktop\test protocol\1iep_ligandH.pdb
REMARK  8 active torsions:
REMARK  status: ('A' for Active; 'I' for Inactive)
REMARK    1  A    between atoms: _5  and  _11
REMARK    2  A    between atoms: _19  and  _21
REMARK    3  A    between atoms: _22  and  _66
REMARK    4  A    between atoms: _27  and  _30
REMARK    5  A    between atoms: _32  and  _33
REMARK    6  A    between atoms: _38  and  _43
REMARK    7  A    between atoms: _43  and  _46
REMARK    8  A    between atoms: _53  and  _55
REMARK                            x       y       z     vdW  Elec       q    Type
REMARK                         _______ _______ _______ _____ _____    ______ ____
ROOT
ATOM     10  C   UNL     1      -8.388  14.593   5.012  0.00  0.00    +0.038 A 
ATOM     11  C   UNL     1      -8.921  13.704   5.980  0.00  0.00    +0.047 A 
ATOM     12  C   UNL     1      -9.676  14.197   7.121  0.00  0.00    +0.035 A 
ATOM     32  C   UNL     1      -9.872  15.603   7.245  0.00  0.00    +0.024 A 
ATOM     33  C   UNL     1      -9.337  16.522   6.271  0.00  0.00    +0.007 A 
ATOM     34  C   UNL     1      -8.589  16.042   5.145  0.00  0.00    -0.029 A 
ATOM     35  C   UNL     1      -8.032  17.073   4.136  0.00  0.00    +0.045 C 
ENDROOT
BRANCH  10   9
ATOM      4  C   UNL     1      -4.282  13.303   2.888  0.00  0.00    +0.077 A 
ATOM      5  C   UNL     1      -3.497  13.743   4.005  0.00  0.00    +0.048 A 
ATOM      6  C   UNL     1      -4.188  14.303   5.103  0.00  0.00    +0.116 A 
ATOM      7  N   UNL     1      -5.562  14.408   5.076  0.00  0.00    -0.223 NA
ATOM      8  C   UNL     1      -6.289  13.976   3.982  0.00  0.00    +0.220 A 
ATOM      9  N   UNL     1      -7.671  14.065   3.937  0.00  0.00    -0.283 N 
ATOM     36  H   UNL     1      -8.170  13.742   3.108  0.00  0.00    +0.155 HD
ATOM     37  N   UNL     1      -5.652  13.439   2.920  0.00  0.00    -0.214 NA
BRANCH   4   3
ATOM      1  C   UNL     1      -3.013  12.763  -0.773  0.00  0.00    +0.020 A 
ATOM      2  C   UNL     1      -3.585  13.404   0.389  0.00  0.00    +0.013 A 
ATOM      3  C   UNL     1      -3.698  12.688   1.654  0.00  0.00    +0.019 A 
ATOM     38  C   UNL     1      -3.219  11.315   1.710  0.00  0.00    +0.120 A 
ATOM     39  N   UNL     1      -2.674  10.724   0.574  0.00  0.00    -0.263 NA
ATOM     40  C   UNL     1      -2.561  11.403  -0.648  0.00  0.00    +0.111 A 
ENDBRANCH   4   3
ENDBRANCH  10   9
BRANCH  12  13
ATOM     13  N   UNL     1     -10.234  13.342   8.139  0.00  0.00    -0.281 N 
ATOM     14  C   UNL     1     -11.220  12.379   7.996  0.00  0.00    +0.248 C 
ATOM     30  O   UNL     1     -11.926  12.254   7.007  0.00  0.00    -0.270 OA
ATOM     31  H   UNL     1      -9.857  13.461   9.079  0.00  0.00    +0.155 HD
BRANCH  14  15
ATOM     15  C   UNL     1     -11.466  11.426   9.121  0.00  0.00    +0.037 A 
ATOM     16  C   UNL     1     -11.615   9.988   8.880  0.00  0.00    +0.013 A 
ATOM     17  C   UNL     1     -11.869   9.093   9.981  0.00  0.00    +0.005 A 
ATOM     18  C   UNL     1     -11.975   9.634  11.334  0.00  0.00    -0.033 A 
ATOM     28  C   UNL     1     -11.818  11.063  11.545  0.00  0.00    +0.005 A 
ATOM     29  C   UNL     1     -11.570  11.944  10.469  0.00  0.00    +0.013 A 
BRANCH  18  19
ATOM     19  C   UNL     1     -12.265   8.755  12.565  0.00  0.00    +0.119 C 
BRANCH  19  20
ATOM     20  N   UNL     1     -11.265   8.780  13.674  0.00  0.00    -0.302 NA
ATOM     21  C   UNL     1     -10.497   7.460  13.784  0.00  0.00    +0.066 C 
ATOM     22  C   UNL     1      -9.439   7.511  14.935  0.00  0.00    -0.064 C 
ATOM     23  N   UNL     1     -10.140   7.841  16.254  0.00  0.00    +0.379 N 
ATOM     24  C   UNL     1      -9.157   7.833  17.347  0.00  0.00    -0.096 C 
ATOM     25  H   UNL     1     -10.879   7.031  16.456  0.00  0.00    -0.082 HD
ATOM     26  C   UNL     1     -10.909   9.151  16.152  0.00  0.00    -0.064 C 
ATOM     27  C   UNL     1     -11.936   9.100  14.987  0.00  0.00    +0.066 C 
ENDBRANCH  19  20
ENDBRANCH  18  19
ENDBRANCH  14  15
ENDBRANCH  12  13
TORSDOF 6
ENDMDL
MODEL 3
REMARK VINA RESULT:      -8.3      7.595     13.292
REMARK  Name = C:\Users\Docking\Desktop\test protocol\1iep_ligandH.pdb
REMARK  8 active torsions:
REMARK  status: ('A' for Active; 'I' for Inactive)
REMARK    1  A    between atoms: _5  and  _11
REMARK    2  A    between atoms: _19  and  _21
REMARK    3  A    between atoms: _22  and  _66
REMARK    4  A    between atoms: _27  and  _30
REMARK    5  A    between atoms: _32  and  _33
REMARK    6  A    between atoms: _38  and  _43
REMARK    7  A    between atoms: _43  and  _46
REMARK    8  A    between atoms: _53  and  _55
REMARK                            x       y       z     vdW  Elec       q    Type
REMARK                         _______ _______ _______ _____ _____    ______ ____
ROOT
ATOM     10  C   UNL     1      -5.007  15.345   2.950  0.00  0.00    +0.038 A 
ATOM     11  C   UNL     1      -5.435  16.097   1.826  0.00  0.00    +0.047 A 
ATOM     12  C   UNL     1      -6.598  16.967   1.901  0.00  0.00    +0.035 A 
ATOM     32  C   UNL     1      -7.301  17.050   3.139  0.00  0.00    +0.024 A 
ATOM     33  C   UNL     1      -6.880  16.292   4.291  0.00  0.00    +0.007 A 
ATOM     34  C   UNL     1      -5.735  15.430   4.222  0.00  0.00    -0.029 A 
ATOM     35  C   UNL     1      -5.334  14.636   5.486  0.00  0.00    +0.045 C 
ENDROOT
BRANCH  10   9
ATOM      4  C   UNL     1      -2.923  11.163   1.851  0.00  0.00    +0.077 A 
ATOM      5  C   UNL     1      -4.181  10.553   1.531  0.00  0.00    +0.048 A 
ATOM      6  C   UNL     1      -5.341  11.347   1.670  0.00  0.00    +0.116 A 
ATOM      7  N   UNL     1      -5.239  12.653   2.096  0.00  0.00    -0.223 NA
ATOM      8  C   UNL     1      -4.011  13.211   2.398  0.00  0.00    +0.220 A 
ATOM      9  N   UNL     1      -3.884  14.525   2.821  0.00  0.00    -0.283 N 
ATOM     36  H   UNL     1      -2.960  14.897   3.041  0.00  0.00    +0.155 HD
ATOM     37  N   UNL     1      -2.888  12.473   2.276  0.00  0.00    -0.214 NA
BRANCH   4   3
ATOM      1  C   UNL     1       0.910  10.426   1.588  0.00  0.00    +0.020 A 
ATOM      2  C   UNL     1      -0.332  11.158   1.683  0.00  0.00    +0.013 A 
ATOM      3  C   UNL     1      -1.608  10.455   1.752  0.00  0.00    +0.019 A 
ATOM     38  C   UNL     1      -1.591   9.000   1.724  0.00  0.00    +0.120 A 
ATOM     39  N   UNL     1      -0.379   8.322   1.631  0.00  0.00    -0.263 NA
ATOM     40  C   UNL     1       0.854   8.988   1.562  0.00  0.00    +0.111 A 
ENDBRANCH   4   3
ENDBRANCH  10   9
BRANCH  12  13
ATOM     13  N   UNL     1      -7.084  17.748   0.791  0.00  0.00    -0.281 N 
ATOM     14  C   UNL     1      -7.861  17.323  -0.274  0.00  0.00    +0.248 C 
ATOM     30  O   UNL     1      -8.078  16.151  -0.547  0.00  0.00    -0.270 OA
ATOM     31  H   UNL     1      -6.824  18.735   0.790  0.00  0.00    +0.155 HD
BRANCH  14  15
ATOM     15  C   UNL     1      -8.472  18.346  -1.176  0.00  0.00    +0.037 A 
ATOM     16  C   UNL     1      -9.883  18.269  -1.566  0.00  0.00    +0.013 A 
ATOM     17  C   UNL     1     -10.443  19.259  -2.451  0.00  0.00    +0.005 A 
ATOM     18  C   UNL     1      -9.592  20.337  -2.951  0.00  0.00    -0.033 A 
ATOM     28  C   UNL     1      -8.198  20.392  -2.544  0.00  0.00    +0.005 A 
ATOM     29  C   UNL     1      -7.645  19.422  -1.677  0.00  0.00    +0.013 A 
BRANCH  18  19
ATOM     19  C   UNL     1     -10.101  21.425  -3.915  0.00  0.00    +0.119 C 
BRANCH  19  20
ATOM     20  N   UNL     1     -11.072  22.421  -3.372  0.00  0.00    -0.302 NA
ATOM     21  C   UNL     1     -10.876  23.809  -3.988  0.00  0.00    +0.066 C 
ATOM     22  C   UNL     1     -11.914  24.833  -3.425  0.00  0.00    -0.064 C 
ATOM     23  N   UNL     1     -11.791  24.895  -1.902  0.00  0.00    +0.379 N 
ATOM     24  C   UNL     1     -12.726  25.899  -1.375  0.00  0.00    -0.096 C 
ATOM     25  H   UNL     1     -10.757  25.234  -1.660  0.00  0.00    -0.082 HD
ATOM     26  C   UNL     1     -11.982  23.518  -1.281  0.00  0.00    -0.064 C 
ATOM     27  C   UNL     1     -10.965  22.501  -1.869  0.00  0.00    +0.066 C 
ENDBRANCH  19  20
ENDBRANCH  18  19
ENDBRANCH  14  15
ENDBRANCH  12  13
TORSDOF 6
ENDMDL
MODEL 4
REMARK VINA RESULT:      -8.1      6.406     11.032
REMARK  Name = C:\Users\Docking\Desktop\test protocol\1iep_ligandH.pdb
REMARK  8 active torsions:
REMARK  status: ('A' for Active; 'I' for Inactive)
REMARK    1  A    between atoms: _5  and  _11
REMARK    2  A    between atoms: _19  and  _21
REMARK    3  A    between atoms: _22  and  _66
REMARK    4  A    between atoms: _27  and  _30
REMARK    5  A    between atoms: _32  and  _33
REMARK    6  A    between atoms: _38  and  _43
REMARK    7  A    between atoms: _43  and  _46
REMARK    8  A    between atoms: _53  and  _55
REMARK                            x       y       z     vdW  Elec       q    Type
REMARK                         _______ _______ _______ _____ _____    ______ ____
ROOT
ATOM     10  C   UNL     1      -2.902   7.707   1.546  0.00  0.00    +0.038 A 
ATOM     11  C   UNL     1      -3.484   8.764   2.292  0.00  0.00    +0.047 A 
ATOM     12  C   UNL     1      -3.652  10.089   1.714  0.00  0.00    +0.035 A 
ATOM     32  C   UNL     1      -3.218  10.301   0.373  0.00  0.00    +0.024 A 
ATOM     33  C   UNL     1      -2.623   9.238  -0.398  0.00  0.00    +0.007 A 
ATOM     34  C   UNL     1      -2.453   7.930   0.167  0.00  0.00    -0.029 A 
ATOM     35  C   UNL     1      -1.803   6.830  -0.705  0.00  0.00    +0.045 C 
ENDROOT
BRANCH  10   9
ATOM      4  C   UNL     1      -0.470   4.530   4.197  0.00  0.00    +0.077 A 
ATOM      5  C   UNL     1       0.634   5.430   4.370  0.00  0.00    +0.048 A 
ATOM      6  C   UNL     1       0.539   6.698   3.755  0.00  0.00    +0.116 A 
ATOM      7  N   UNL     1      -0.581   7.031   3.024  0.00  0.00    -0.223 NA
ATOM      8  C   UNL     1      -1.626   6.139   2.875  0.00  0.00    +0.220 A 
ATOM      9  N   UNL     1      -2.765   6.455   2.150  0.00  0.00    -0.283 N 
ATOM     36  H   UNL     1      -3.511   5.767   2.058  0.00  0.00    +0.155 HD
ATOM     37  N   UNL     1      -1.559   4.921   3.451  0.00  0.00    -0.214 NA
BRANCH   4   3
ATOM      1  C   UNL     1      -1.127   0.708   4.708  0.00  0.00    +0.020 A 
ATOM      2  C   UNL     1      -1.105   2.015   4.093  0.00  0.00    +0.013 A 
ATOM      3  C   UNL     1      -0.520   3.155   4.787  0.00  0.00    +0.019 A 
ATOM     38  C   UNL     1       0.040   2.936   6.113  0.00  0.00    +0.120 A 
ATOM     39  N   UNL     1       0.002   1.667   6.681  0.00  0.00    -0.263 NA
ATOM     40  C   UNL     1      -0.560   0.563   6.022  0.00  0.00    +0.111 A 
ENDBRANCH   4   3
ENDBRANCH  10   9
BRANCH  12  13
ATOM     13  N   UNL     1      -4.229  11.203   2.426  0.00  0.00    -0.281 N 
ATOM     14  C   UNL     1      -3.577  12.306   2.953  0.00  0.00    +0.248 C 
ATOM     30  O   UNL     1      -2.365  12.397   3.080  0.00  0.00    -0.270 OA
ATOM     31  H   UNL     1      -5.240  11.174   2.556  0.00  0.00    +0.155 HD
BRANCH  14  15
ATOM     15  C   UNL     1      -4.391  13.469   3.420  0.00  0.00    +0.037 A 
ATOM     16  C   UNL     1      -4.868  13.557   4.802  0.00  0.00    +0.013 A 
ATOM     17  C   UNL     1      -5.666  14.682   5.222  0.00  0.00    +0.005 A 
ATOM     18  C   UNL     1      -5.989  15.730   4.258  0.00  0.00    -0.033 A 
ATOM     28  C   UNL     1      -5.498  15.621   2.894  0.00  0.00    +0.005 A 
ATOM     29  C   UNL     1      -4.717  14.519   2.478  0.00  0.00    +0.013 A 
BRANCH  18  19
ATOM     19  C   UNL     1      -6.851  16.956   4.613  0.00  0.00    +0.119 C 
BRANCH  19  20
ATOM     20  N   UNL     1      -8.320  16.736   4.772  0.00  0.00    -0.302 NA
ATOM     21  C   UNL     1      -8.658  16.057   6.102  0.00  0.00    +0.066 C 
ATOM     22  C   UNL     1     -10.200  15.854   6.262  0.00  0.00    -0.064 C 
ATOM     23  N   UNL     1     -10.729  15.033   5.085  0.00  0.00    +0.379 N 
ATOM     24  C   UNL     1     -12.168  14.792   5.263  0.00  0.00    -0.096 C 
ATOM     25  H   UNL     1     -10.215  14.044   5.105  0.00  0.00    -0.082 HD
ATOM     26  C   UNL     1     -10.395  15.700   3.758  0.00  0.00    -0.064 C 
ATOM     27  C   UNL     1      -8.862  15.923   3.622  0.00  0.00    +0.066 C 
ENDBRANCH  19  20
ENDBRANCH  18  19
ENDBRANCH  14  15
ENDBRANCH  12  13
TORSDOF 6
ENDMDL
MODEL 5
REMARK VINA RESULT:      -7.9      7.631     13.831
REMARK  Name = C:\Users\Docking\Desktop\test protocol\1iep_ligandH.pdb
REMARK  8 active torsions:
REMARK  status: ('A' for Active; 'I' for Inactive)
REMARK    1  A    between atoms: _5  and  _11
REMARK    2  A    between atoms: _19  and  _21
REMARK    3  A    between atoms: _22  and  _66
REMARK    4  A    between atoms: _27  and  _30
REMARK    5  A    between atoms: _32  and  _33
REMARK    6  A    between atoms: _38  and  _43
REMARK    7  A    between atoms: _43  and  _46
REMARK    8  A    between atoms: _53  and  _55
REMARK                            x       y       z     vdW  Elec       q    Type
REMARK                         _______ _______ _______ _____ _____    ______ ____
ROOT
ATOM     10  C   UNL     1      -4.985  15.375   2.933  0.00  0.00    +0.038 A 
ATOM     11  C   UNL     1      -5.484  16.120   1.834  0.00  0.00    +0.047 A 
ATOM     12  C   UNL     1      -6.658  16.969   1.972  0.00  0.00    +0.035 A 
ATOM     32  C   UNL     1      -7.297  17.037   3.244  0.00  0.00    +0.024 A 
ATOM     33  C   UNL     1      -6.803  16.286   4.372  0.00  0.00    +0.007 A 
ATOM     34  C   UNL     1      -5.647  15.446   4.241  0.00  0.00    -0.029 A 
ATOM     35  C   UNL     1      -5.165  14.658   5.482  0.00  0.00    +0.045 C 
ENDROOT
BRANCH  10   9
ATOM      4  C   UNL     1      -2.889  11.184   1.896  0.00  0.00    +0.077 A 
ATOM      5  C   UNL     1      -4.152  10.522   1.743  0.00  0.00    +0.048 A 
ATOM      6  C   UNL     1      -5.318  11.295   1.947  0.00  0.00    +0.116 A 
ATOM      7  N   UNL     1      -5.215  12.628   2.278  0.00  0.00    -0.223 NA
ATOM      8  C   UNL     1      -3.981  13.235   2.420  0.00  0.00    +0.220 A 
ATOM      9  N   UNL     1      -3.854  14.577   2.745  0.00  0.00    -0.283 N 
ATOM     36  H   UNL     1      -2.926  14.985   2.847  0.00  0.00    +0.155 HD
ATOM     37  N   UNL     1      -2.853  12.519   2.232  0.00  0.00    -0.214 NA
BRANCH   4   3
ATOM      1  C   UNL     1       0.944  10.522   1.480  0.00  0.00    +0.020 A 
ATOM      2  C   UNL     1      -0.304  11.227   1.661  0.00  0.00    +0.013 A 
ATOM      3  C   UNL     1      -1.568  10.503   1.711  0.00  0.00    +0.019 A 
ATOM     38  C   UNL     1      -1.534   9.055   1.574  0.00  0.00    +0.120 A 
ATOM     39  N   UNL     1      -0.318   8.403   1.400  0.00  0.00    -0.263 NA
ATOM     40  C   UNL     1       0.905   9.089   1.349  0.00  0.00    +0.111 A 
ENDBRANCH   4   3
ENDBRANCH  10   9
BRANCH  12  13
ATOM     13  N   UNL     1      -7.216  17.741   0.890  0.00  0.00    -0.281 N 
ATOM     14  C   UNL     1      -7.894  17.278  -0.226  0.00  0.00    +0.248 C 
ATOM     30  O   UNL     1      -7.937  16.107  -0.572  0.00  0.00    -0.270 OA
ATOM     31  H   UNL     1      -7.096  18.752   0.954  0.00  0.00    +0.155 HD
BRANCH  14  15
ATOM     15  C   UNL     1      -8.616  18.261  -1.091  0.00  0.00    +0.037 A 
ATOM     16  C   UNL     1      -7.963  19.487  -1.556  0.00  0.00    +0.013 A 
ATOM     17  C   UNL     1      -8.688  20.426  -2.376  0.00  0.00    +0.005 A 
ATOM     18  C   UNL     1     -10.075  20.140  -2.736  0.00  0.00    -0.033 A 
ATOM     28  C   UNL     1     -10.696  18.913  -2.265  0.00  0.00    +0.005 A 
ATOM     29  C   UNL     1      -9.989  17.992  -1.461  0.00  0.00    +0.013 A 
BRANCH  18  19
ATOM     19  C   UNL     1     -10.931  21.095  -3.588  0.00  0.00    +0.119 C 
BRANCH  19  20
ATOM     20  N   UNL     1     -10.250  22.292  -4.167  0.00  0.00    -0.302 NA
ATOM     21  C   UNL     1     -11.188  23.499  -4.256  0.00  0.00    +0.066 C 
ATOM     22  C   UNL     1     -10.453  24.748  -4.843  0.00  0.00    -0.064 C 
ATOM     23  N   UNL     1      -9.884  24.402  -6.220  0.00  0.00    +0.379 N 
ATOM     24  C   UNL     1      -9.243  25.591  -6.799  0.00  0.00    -0.096 C 
ATOM     25  H   UNL     1     -10.740  24.124  -6.878  0.00  0.00    -0.082 HD
ATOM     26  C   UNL     1      -8.953  23.200  -6.141  0.00  0.00    -0.064 C 
ATOM     27  C   UNL     1      -9.685  21.973  -5.529  0.00  0.00    +0.066 C 
ENDBRANCH  19  20
ENDBRANCH  18  19
ENDBRANCH  14  15
ENDBRANCH  12  13
TORSDOF 6
ENDMDL
