MODEL 1
REMARK VINA RESULT:      -7.6      0.000      0.000
REMARK  Name = C:\Users\Docking\Desktop\test protocol\1iep_ligandH.pdb
REMARK  8 active torsions:
REMARK  status: ('A' for Active; 'I' for Inactive)
REMARK    1  A    between atoms: _5  and  _11
REMARK    2  A    between atoms: _19  and  _21
REMARK    3  A    between atoms: _22  and  _66
REMARK    4  A    between atoms: _27  and  _30
REMARK    5  A    between atoms: _32  and  _33
REMARK    6  A    between atoms: _38  and  _43
REMARK    7  A    between atoms: _43  and  _46
REMARK    8  A    between atoms: _53  and  _55
REMARK                            x       y       z     vdW  Elec       q    Type
REMARK                         _______ _______ _______ _____ _____    ______ ____
ROOT
ATOM     10  C   UNL     1     -16.259  34.092  30.676  0.00  0.00    +0.038 A 
ATOM     11  C   UNL     1     -17.170  34.886  29.934  0.00  0.00    +0.047 A 
ATOM     12  C   UNL     1     -18.024  35.864  30.590  0.00  0.00    +0.035 A 
ATOM     32  C   UNL     1     -17.922  36.009  32.004  0.00  0.00    +0.024 A 
ATOM     33  C   UNL     1     -17.003  35.209  32.775  0.00  0.00    +0.007 A 
ATOM     34  C   UNL     1     -16.160  34.241  32.133  0.00  0.00    -0.029 A 
ATOM     35  C   UNL     1     -15.197  33.406  33.010  0.00  0.00    +0.045 C 
ENDROOT
BRANCH  10   9
ATOM      4  C   UNL     1     -15.326  29.652  29.109  0.00  0.00    +0.077 A 
ATOM      5  C   UNL     1     -16.510  29.123  29.721  0.00  0.00    +0.048 A 
ATOM      6  C   UNL     1     -17.329  30.025  30.437  0.00  0.00    +0.116 A 
ATOM      7  N   UNL     1     -16.980  31.355  30.526  0.00  0.00    -0.223 NA
ATOM      8  C   UNL     1     -15.830  31.833  29.925  0.00  0.00    +0.220 A 
ATOM      9  N   UNL     1     -15.463  33.168  29.995  0.00  0.00    -0.283 N 
ATOM     36  H   UNL     1     -14.603  33.479  29.544  0.00  0.00    +0.155 HD
ATOM     37  N   UNL     1     -15.030  30.991  29.237  0.00  0.00    -0.214 NA
BRANCH   4   3
ATOM      1  C   UNL     1     -12.938  26.772  27.966  0.00  0.00    +0.020 A 
ATOM      2  C   UNL     1     -13.868  27.531  28.770  0.00  0.00    +0.013 A 
ATOM      3  C   UNL     1     -14.361  28.825  28.316  0.00  0.00    +0.019 A 
ATOM     38  C   UNL     1     -13.891  29.327  27.034  0.00  0.00    +0.120 A 
ATOM     39  N   UNL     1     -12.993  28.575  26.282  0.00  0.00    -0.263 NA
ATOM     40  C   UNL     1     -12.510  27.329  26.710  0.00  0.00    +0.111 A 
ENDBRANCH   4   3
ENDBRANCH  10   9
BRANCH  12  13
ATOM     13  N   UNL     1     -18.973  36.693  29.889  0.00  0.00    -0.281 N 
ATOM     14  C   UNL     1     -18.803  37.995  29.448  0.00  0.00    +0.248 C 
ATOM     30  O   UNL     1     -17.879  38.722  29.779  0.00  0.00    -0.270 OA
ATOM     31  H   UNL     1     -19.880  36.268  29.695  0.00  0.00    +0.155 HD
BRANCH  14  15
ATOM     15  C   UNL     1     -19.815  38.579  28.515  0.00  0.00    +0.037 A 
ATOM     16  C   UNL     1     -21.089  37.903  28.256  0.00  0.00    +0.013 A 
ATOM     17  C   UNL     1     -22.040  38.479  27.338  0.00  0.00    +0.005 A 
ATOM     18  C   UNL     1     -21.720  39.741  26.674  0.00  0.00    -0.033 A 
ATOM     28  C   UNL     1     -20.451  40.392  26.953  0.00  0.00    +0.005 A 
ATOM     29  C   UNL     1     -19.516  39.830  27.851  0.00  0.00    +0.013 A 
BRANCH  18  19
ATOM     19  C   UNL     1     -22.666  40.417  25.664  0.00  0.00    +0.119 C 
BRANCH  19  20
ATOM     20  N   UNL     1     -22.533  40.019  24.231  0.00  0.00    -0.302 NA
ATOM     21  C   UNL     1     -22.958  41.143  23.281  0.00  0.00    +0.066 C 
ATOM     22  C   UNL     1     -22.792  40.718  21.786  0.00  0.00    -0.064 C 
ATOM     23  N   UNL     1     -23.608  39.451  21.525  0.00  0.00    +0.379 N 
ATOM     24  C   UNL     1     -23.500  39.082  20.106  0.00  0.00    -0.096 C 
ATOM     25  H   UNL     1     -24.677  39.689  21.733  0.00  0.00    -0.082 HD
ATOM     26  C   UNL     1     -23.194  38.329  22.467  0.00  0.00    -0.064 C 
ATOM     27  C   UNL     1     -23.335  38.772  23.950  0.00  0.00    +0.066 C 
ENDBRANCH  19  20
ENDBRANCH  18  19
ENDBRANCH  14  15
ENDBRANCH  12  13
TORSDOF 6
ENDMDL
MODEL 2
REMARK VINA RESULT:      -7.6      6.436     16.223
REMARK  Name = C:\Users\Docking\Desktop\test protocol\1iep_ligandH.pdb
REMARK  8 active torsions:
REMARK  status: ('A' for Active; 'I' for Inactive)
REMARK    1  A    between atoms: _5  and  _11
REMARK    2  A    between atoms: _19  and  _21
REMARK    3  A    between atoms: _22  and  _66
REMARK    4  A    between atoms: _27  and  _30
REMARK    5  A    between atoms: _32  and  _33
REMARK    6  A    between atoms: _38  and  _43
REMARK    7  A    between atoms: _43  and  _46
REMARK    8  A    between atoms: _53  and  _55
REMARK                            x       y       z     vdW  Elec       q    Type
REMARK                         _______ _______ _______ _____ _____    ______ ____
ROOT
ATOM     10  C   UNL     1     -13.746  28.814  27.710  0.00  0.00    +0.038 A 
ATOM     11  C   UNL     1     -13.404  28.032  28.843  0.00  0.00    +0.047 A 
ATOM     12  C   UNL     1     -12.783  26.725  28.695  0.00  0.00    +0.035 A 
ATOM     32  C   UNL     1     -12.521  26.246  27.378  0.00  0.00    +0.024 A 
ATOM     33  C   UNL     1     -12.863  27.028  26.215  0.00  0.00    +0.007 A 
ATOM     34  C   UNL     1     -13.479  28.317  26.355  0.00  0.00    -0.029 A 
ATOM     35  C   UNL     1     -13.830  29.108  25.074  0.00  0.00    +0.045 C 
ENDROOT
BRANCH  10   9
ATOM      4  C   UNL     1     -17.088  31.643  29.676  0.00  0.00    +0.077 A 
ATOM      5  C   UNL     1     -17.719  30.538  30.338  0.00  0.00    +0.048 A 
ATOM      6  C   UNL     1     -17.156  29.257  30.142  0.00  0.00    +0.116 A 
ATOM      7  N   UNL     1     -16.045  29.104  29.340  0.00  0.00    -0.223 NA
ATOM      8  C   UNL     1     -15.463  30.191  28.714  0.00  0.00    +0.220 A 
ATOM      9  N   UNL     1     -14.341  30.062  27.910  0.00  0.00    -0.283 N 
ATOM     36  H   UNL     1     -13.945  30.887  27.460  0.00  0.00    +0.155 HD
ATOM     37  N   UNL     1     -15.982  31.425  28.885  0.00  0.00    -0.214 NA
BRANCH   4   3
ATOM      1  C   UNL     1     -17.439  35.511  29.211  0.00  0.00    +0.020 A 
ATOM      2  C   UNL     1     -16.941  34.163  29.068  0.00  0.00    +0.013 A 
ATOM      3  C   UNL     1     -17.563  33.059  29.788  0.00  0.00    +0.019 A 
ATOM     38  C   UNL     1     -18.697  33.355  30.651  0.00  0.00    +0.120 A 
ATOM     39  N   UNL     1     -19.153  34.664  30.770  0.00  0.00    -0.263 NA
ATOM     40  C   UNL     1     -18.562  35.735  30.084  0.00  0.00    +0.111 A 
ENDBRANCH   4   3
ENDBRANCH  10   9
BRANCH  12  13
ATOM     13  N   UNL     1     -12.420  25.882  29.807  0.00  0.00    -0.281 N 
ATOM     14  C   UNL     1     -13.136  24.824  30.342  0.00  0.00    +0.248 C 
ATOM     30  O   UNL     1     -14.303  24.574  30.078  0.00  0.00    -0.270 OA
ATOM     31  H   UNL     1     -11.528  26.092  30.255  0.00  0.00    +0.155 HD
BRANCH  14  15
ATOM     15  C   UNL     1     -12.463  23.919  31.323  0.00  0.00    +0.037 A 
ATOM     16  C   UNL     1     -12.635  24.102  32.767  0.00  0.00    +0.013 A 
ATOM     17  C   UNL     1     -11.960  23.226  33.692  0.00  0.00    +0.005 A 
ATOM     18  C   UNL     1     -11.108  22.158  33.175  0.00  0.00    -0.033 A 
ATOM     28  C   UNL     1     -10.959  21.996  31.738  0.00  0.00    +0.005 A 
ATOM     29  C   UNL     1     -11.617  22.853  30.829  0.00  0.00    +0.013 A 
BRANCH  18  19
ATOM     19  C   UNL     1     -10.333  21.190  34.089  0.00  0.00    +0.119 C 
BRANCH  19  20
ATOM     20  N   UNL     1      -9.325  21.784  35.017  0.00  0.00    -0.302 NA
ATOM     21  C   UNL     1      -8.088  20.894  35.169  0.00  0.00    +0.066 C 
ATOM     22  C   UNL     1      -7.035  21.542  36.125  0.00  0.00    -0.064 C 
ATOM     23  N   UNL     1      -7.681  21.808  37.486  0.00  0.00    +0.379 N 
ATOM     24  C   UNL     1      -6.677  22.364  38.405  0.00  0.00    -0.096 C 
ATOM     25  H   UNL     1      -8.013  20.828  37.900  0.00  0.00    -0.082 HD
ATOM     26  C   UNL     1      -8.912  22.691  37.343  0.00  0.00    -0.064 C 
ATOM     27  C   UNL     1      -9.940  22.052  36.368  0.00  0.00    +0.066 C 
ENDBRANCH  19  20
ENDBRANCH  18  19
ENDBRANCH  14  15
ENDBRANCH  12  13
TORSDOF 6
ENDMDL
MODEL 3
REMARK VINA RESULT:      -7.6      9.617     14.530
REMARK  Name = C:\Users\Docking\Desktop\test protocol\1iep_ligandH.pdb
REMARK  8 active torsions:
REMARK  status: ('A' for Active; 'I' for Inactive)
REMARK    1  A    between atoms: _5  and  _11
REMARK    2  A    between atoms: _19  and  _21
REMARK    3  A    between atoms: _22  and  _66
REMARK    4  A    between atoms: _27  and  _30
REMARK    5  A    between atoms: _32  and  _33
REMARK    6  A    between atoms: _38  and  _43
REMARK    7  A    between atoms: _43  and  _46
REMARK    8  A    between atoms: _53  and  _55
REMARK                            x       y       z     vdW  Elec       q    Type
REMARK                         _______ _______ _______ _____ _____    ______ ____
ROOT
ATOM     10  C   UNL     1     -23.084  39.785  22.391  0.00  0.00    +0.038 A 
ATOM     11  C   UNL     1     -24.081  39.827  21.384  0.00  0.00    +0.047 A 
ATOM     12  C   UNL     1     -24.103  38.851  20.305  0.00  0.00    +0.035 A 
ATOM     32  C   UNL     1     -23.095  37.843  20.286  0.00  0.00    +0.024 A 
ATOM     33  C   UNL     1     -22.074  37.785  21.302  0.00  0.00    +0.007 A 
ATOM     34  C   UNL     1     -22.046  38.747  22.367  0.00  0.00    -0.029 A 
ATOM     35  C   UNL     1     -20.923  38.642  23.425  0.00  0.00    +0.045 C 
ENDROOT
BRANCH  10   9
ATOM      4  C   UNL     1     -21.782  44.017  24.243  0.00  0.00    +0.077 A 
ATOM      5  C   UNL     1     -20.957  44.326  23.110  0.00  0.00    +0.048 A 
ATOM      6  C   UNL     1     -20.890  43.365  22.076  0.00  0.00    +0.116 A 
ATOM      7  N   UNL     1     -21.599  42.188  22.177  0.00  0.00    -0.223 NA
ATOM      8  C   UNL     1     -22.383  41.921  23.284  0.00  0.00    +0.220 A 
ATOM      9  N   UNL     1     -23.111  40.747  23.403  0.00  0.00    -0.283 N 
ATOM     36  H   UNL     1     -23.672  40.584  24.239  0.00  0.00    +0.155 HD
ATOM     37  N   UNL     1     -22.463  42.821  24.286  0.00  0.00    -0.214 NA
BRANCH   4   3
ATOM      1  C   UNL     1     -21.816  45.465  27.876  0.00  0.00    +0.020 A 
ATOM      2  C   UNL     1     -21.627  44.544  26.780  0.00  0.00    +0.013 A 
ATOM      3  C   UNL     1     -21.958  44.932  25.415  0.00  0.00    +0.019 A 
ATOM     38  C   UNL     1     -22.481  46.271  25.191  0.00  0.00    +0.120 A 
ATOM     39  N   UNL     1     -22.653  47.137  26.267  0.00  0.00    -0.263 NA
ATOM     40  C   UNL     1     -22.340  46.774  27.585  0.00  0.00    +0.111 A 
ENDBRANCH   4   3
ENDBRANCH  10   9
BRANCH  12  13
ATOM     13  N   UNL     1     -25.085  38.849  19.250  0.00  0.00    -0.281 N 
ATOM     14  C   UNL     1     -26.413  38.459  19.323  0.00  0.00    +0.248 C 
ATOM     30  O   UNL     1     -26.903  37.847  20.260  0.00  0.00    -0.270 OA
ATOM     31  H   UNL     1     -24.763  39.174  18.338  0.00  0.00    +0.155 HD
BRANCH  14  15
ATOM     15  C   UNL     1     -27.324  38.782  18.183  0.00  0.00    +0.037 A 
ATOM     16  C   UNL     1     -28.644  39.374  18.409  0.00  0.00    +0.013 A 
ATOM     17  C   UNL     1     -29.510  39.660  17.293  0.00  0.00    +0.005 A 
ATOM     18  C   UNL     1     -29.057  39.355  15.938  0.00  0.00    -0.033 A 
ATOM     28  C   UNL     1     -27.740  38.772  15.742  0.00  0.00    +0.005 A 
ATOM     29  C   UNL     1     -26.889  38.490  16.833  0.00  0.00    +0.013 A 
BRANCH  18  19
ATOM     19  C   UNL     1     -29.922  39.607  14.690  0.00  0.00    +0.119 C 
BRANCH  19  20
ATOM     20  N   UNL     1     -29.312  40.405  13.584  0.00  0.00    -0.302 NA
ATOM     21  C   UNL     1     -30.072  41.710  13.331  0.00  0.00    +0.066 C 
ATOM     22  C   UNL     1     -29.407  42.542  12.187  0.00  0.00    -0.064 C 
ATOM     23  N   UNL     1     -29.345  41.696  10.914  0.00  0.00    +0.379 N 
ATOM     24  C   UNL     1     -28.773  42.495   9.821  0.00  0.00    -0.096 C 
ATOM     25  H   UNL     1     -30.391  41.434  10.631  0.00  0.00    -0.082 HD
ATOM     26  C   UNL     1     -28.594  40.395  11.158  0.00  0.00    -0.064 C 
ATOM     27  C   UNL     1     -29.245  39.589  12.317  0.00  0.00    +0.066 C 
ENDBRANCH  19  20
ENDBRANCH  18  19
ENDBRANCH  14  15
ENDBRANCH  12  13
TORSDOF 6
ENDMDL
MODEL 4
REMARK VINA RESULT:      -7.5      6.276     16.104
REMARK  Name = C:\Users\Docking\Desktop\test protocol\1iep_ligandH.pdb
REMARK  8 active torsions:
REMARK  status: ('A' for Active; 'I' for Inactive)
REMARK    1  A    between atoms: _5  and  _11
REMARK    2  A    between atoms: _19  and  _21
REMARK    3  A    between atoms: _22  and  _66
REMARK    4  A    between atoms: _27  and  _30
REMARK    5  A    between atoms: _32  and  _33
REMARK    6  A    between atoms: _38  and  _43
REMARK    7  A    between atoms: _43  and  _46
REMARK    8  A    between atoms: _53  and  _55
REMARK                            x       y       z     vdW  Elec       q    Type
REMARK                         _______ _______ _______ _____ _____    ______ ____
ROOT
ATOM     10  C   UNL     1     -13.723  28.780  27.732  0.00  0.00    +0.038 A 
ATOM     11  C   UNL     1     -13.340  27.976  28.836  0.00  0.00    +0.047 A 
ATOM     12  C   UNL     1     -12.746  26.663  28.640  0.00  0.00    +0.035 A 
ATOM     32  C   UNL     1     -12.553  26.201  27.305  0.00  0.00    +0.024 A 
ATOM     33  C   UNL     1     -12.937  27.005  26.171  0.00  0.00    +0.007 A 
ATOM     34  C   UNL     1     -13.526  28.300  26.359  0.00  0.00    -0.029 A 
ATOM     35  C   UNL     1     -13.925  29.115  25.107  0.00  0.00    +0.045 C 
ENDROOT
BRANCH  10   9
ATOM      4  C   UNL     1     -16.999  31.611  29.803  0.00  0.00    +0.077 A 
ATOM      5  C   UNL     1     -17.654  30.497  30.426  0.00  0.00    +0.048 A 
ATOM      6  C   UNL     1     -17.121  29.211  30.183  0.00  0.00    +0.116 A 
ATOM      7  N   UNL     1     -16.014  29.063  29.375  0.00  0.00    -0.223 NA
ATOM      8  C   UNL     1     -15.408  30.158  28.788  0.00  0.00    +0.220 A 
ATOM      9  N   UNL     1     -14.289  30.033  27.978  0.00  0.00    -0.283 N 
ATOM     36  H   UNL     1     -13.876  30.864  27.557  0.00  0.00    +0.155 HD
ATOM     37  N   UNL     1     -15.899  31.396  29.004  0.00  0.00    -0.214 NA
BRANCH   4   3
ATOM      1  C   UNL     1     -17.382  35.477  29.353  0.00  0.00    +0.020 A 
ATOM      2  C   UNL     1     -16.920  34.123  29.154  0.00  0.00    +0.013 A 
ATOM      3  C   UNL     1     -17.442  33.031  29.967  0.00  0.00    +0.019 A 
ATOM     38  C   UNL     1     -18.438  33.347  30.980  0.00  0.00    +0.120 A 
ATOM     39  N   UNL     1     -18.863  34.661  31.149  0.00  0.00    -0.263 NA
ATOM     40  C   UNL     1     -18.367  35.720  30.374  0.00  0.00    +0.111 A 
ENDBRANCH   4   3
ENDBRANCH  10   9
BRANCH  12  13
ATOM     13  N   UNL     1     -12.345  25.798  29.722  0.00  0.00    -0.281 N 
ATOM     14  C   UNL     1     -13.044  24.732  30.264  0.00  0.00    +0.248 C 
ATOM     30  O   UNL     1     -14.221  24.491  30.039  0.00  0.00    -0.270 OA
ATOM     31  H   UNL     1     -11.435  25.996  30.139  0.00  0.00    +0.155 HD
BRANCH  14  15
ATOM     15  C   UNL     1     -12.337  23.807  31.201  0.00  0.00    +0.037 A 
ATOM     16  C   UNL     1     -12.367  24.025  32.650  0.00  0.00    +0.013 A 
ATOM     17  C   UNL     1     -11.663  23.127  33.531  0.00  0.00    +0.005 A 
ATOM     18  C   UNL     1     -10.923  22.002  32.965  0.00  0.00    -0.033 A 
ATOM     28  C   UNL     1     -10.914  21.806  31.524  0.00  0.00    +0.005 A 
ATOM     29  C   UNL     1     -11.602  22.685  30.658  0.00  0.00    +0.013 A 
BRANCH  18  19
ATOM     19  C   UNL     1     -10.125  21.006  33.828  0.00  0.00    +0.119 C 
BRANCH  19  20
ATOM     20  N   UNL     1     -10.746  19.672  34.083  0.00  0.00    -0.302 NA
ATOM     21  C   UNL     1     -10.485  18.689  32.938  0.00  0.00    +0.066 C 
ATOM     22  C   UNL     1     -11.123  17.292  33.232  0.00  0.00    -0.064 C 
ATOM     23  N   UNL     1     -12.624  17.459  33.471  0.00  0.00    +0.379 N 
ATOM     24  C   UNL     1     -13.236  16.141  33.690  0.00  0.00    -0.096 C 
ATOM     25  H   UNL     1     -13.068  17.889  32.543  0.00  0.00    -0.082 HD
ATOM     26  C   UNL     1     -12.892  18.438  34.606  0.00  0.00    -0.064 C 
ATOM     27  C   UNL     1     -12.230  19.814  34.317  0.00  0.00    +0.066 C 
ENDBRANCH  19  20
ENDBRANCH  18  19
ENDBRANCH  14  15
ENDBRANCH  12  13
TORSDOF 6
ENDMDL
MODEL 5
REMARK VINA RESULT:      -7.5      2.142      2.948
REMARK  Name = C:\Users\Docking\Desktop\test protocol\1iep_ligandH.pdb
REMARK  8 active torsions:
REMARK  status: ('A' for Active; 'I' for Inactive)
REMARK    1  A    between atoms: _5  and  _11
REMARK    2  A    between atoms: _19  and  _21
REMARK    3  A    between atoms: _22  and  _66
REMARK    4  A    between atoms: _27  and  _30
REMARK    5  A    between atoms: _32  and  _33
REMARK    6  A    between atoms: _38  and  _43
REMARK    7  A    between atoms: _43  and  _46
REMARK    8  A    between atoms: _53  and  _55
REMARK                            x       y       z     vdW  Elec       q    Type
REMARK                         _______ _______ _______ _____ _____    ______ ____
ROOT
ATOM     10  C   UNL     1     -16.222  34.343  29.978  0.00  0.00    +0.038 A 
ATOM     11  C   UNL     1     -17.074  35.078  29.115  0.00  0.00    +0.047 A 
ATOM     12  C   UNL     1     -17.910  36.155  29.622  0.00  0.00    +0.035 A 
ATOM     32  C   UNL     1     -17.851  36.458  31.014  0.00  0.00    +0.024 A 
ATOM     33  C   UNL     1     -16.991  35.720  31.905  0.00  0.00    +0.007 A 
ATOM     34  C   UNL     1     -16.166  34.655  31.411  0.00  0.00    -0.029 A 
ATOM     35  C   UNL     1     -15.268  33.893  32.413  0.00  0.00    +0.045 C 
ENDROOT
BRANCH  10   9
ATOM      4  C   UNL     1     -15.368  29.713  29.043  0.00  0.00    +0.077 A 
ATOM      5  C   UNL     1     -16.567  29.296  29.711  0.00  0.00    +0.048 A 
ATOM      6  C   UNL     1     -17.372  30.303  30.289  0.00  0.00    +0.116 A 
ATOM      7  N   UNL     1     -16.997  31.626  30.198  0.00  0.00    -0.223 NA
ATOM      8  C   UNL     1     -15.833  31.994  29.547  0.00  0.00    +0.220 A 
ATOM      9  N   UNL     1     -15.440  33.319  29.437  0.00  0.00    -0.283 N 
ATOM     36  H   UNL     1     -14.571  33.549  28.956  0.00  0.00    +0.155 HD
ATOM     37  N   UNL     1     -15.046  31.051  28.989  0.00  0.00    -0.214 NA
BRANCH   4   3
ATOM      1  C   UNL     1     -13.068  26.635  28.309  0.00  0.00    +0.020 A 
ATOM      2  C   UNL     1     -13.990  27.514  28.991  0.00  0.00    +0.013 A 
ATOM      3  C   UNL     1     -14.416  28.767  28.380  0.00  0.00    +0.019 A 
ATOM     38  C   UNL     1     -13.886  29.103  27.067  0.00  0.00    +0.120 A 
ATOM     39  N   UNL     1     -12.999  28.238  26.435  0.00  0.00    -0.263 NA
ATOM     40  C   UNL     1     -12.581  27.031  27.014  0.00  0.00    +0.111 A 
ENDBRANCH   4   3
ENDBRANCH  10   9
BRANCH  12  13
ATOM     13  N   UNL     1     -18.801  36.931  28.796  0.00  0.00    -0.281 N 
ATOM     14  C   UNL     1     -20.179  37.035  28.893  0.00  0.00    +0.248 C 
ATOM     30  O   UNL     1     -20.881  36.304  29.576  0.00  0.00    -0.270 OA
ATOM     31  H   UNL     1     -18.362  37.470  28.049  0.00  0.00    +0.155 HD
BRANCH  14  15
ATOM     15  C   UNL     1     -20.880  38.095  28.106  0.00  0.00    +0.037 A 
ATOM     16  C   UNL     1     -22.341  38.210  28.119  0.00  0.00    +0.013 A 
ATOM     17  C   UNL     1     -22.993  39.231  27.338  0.00  0.00    +0.005 A 
ATOM     18  C   UNL     1     -22.184  40.146  26.538  0.00  0.00    -0.033 A 
ATOM     28  C   UNL     1     -20.736  40.013  26.547  0.00  0.00    +0.005 A 
ATOM     29  C   UNL     1     -20.094  39.013  27.310  0.00  0.00    +0.013 A 
BRANCH  18  19
ATOM     19  C   UNL     1     -22.796  41.252  25.657  0.00  0.00    +0.119 C 
BRANCH  19  20
ATOM     20  N   UNL     1     -22.298  42.645  25.864  0.00  0.00    -0.302 NA
ATOM     21  C   UNL     1     -23.383  43.564  26.431  0.00  0.00    +0.066 C 
ATOM     22  C   UNL     1     -22.839  45.011  26.662  0.00  0.00    -0.064 C 
ATOM     23  N   UNL     1     -22.294  45.565  25.345  0.00  0.00    +0.379 N 
ATOM     24  C   UNL     1     -21.835  46.947  25.546  0.00  0.00    -0.096 C 
ATOM     25  H   UNL     1     -23.137  45.591  24.615  0.00  0.00    -0.082 HD
ATOM     26  C   UNL     1     -21.217  44.655  24.772  0.00  0.00    -0.064 C 
ATOM     27  C   UNL     1     -21.759  43.212  24.574  0.00  0.00    +0.066 C 
ENDBRANCH  19  20
ENDBRANCH  18  19
ENDBRANCH  14  15
ENDBRANCH  12  13
TORSDOF 6
ENDMDL
