MODEL 1
REMARK VINA RESULT:      -8.1      0.000      0.000
REMARK  Name = C:\Users\Docking\Desktop\test protocol\1iep_ligandH.pdb
REMARK  8 active torsions:
REMARK  status: ('A' for Active; 'I' for Inactive)
REMARK    1  A    between atoms: _5  and  _11
REMARK    2  A    between atoms: _19  and  _21
REMARK    3  A    between atoms: _22  and  _66
REMARK    4  A    between atoms: _27  and  _30
REMARK    5  A    between atoms: _32  and  _33
REMARK    6  A    between atoms: _38  and  _43
REMARK    7  A    between atoms: _43  and  _46
REMARK    8  A    between atoms: _53  and  _55
REMARK                            x       y       z     vdW  Elec       q    Type
REMARK                         _______ _______ _______ _____ _____    ______ ____
ROOT
ATOM     10  C   UNL     1      39.291  -1.757   6.492  0.00  0.00    +0.038 A 
ATOM     11  C   UNL     1      39.310  -3.010   5.827  0.00  0.00    +0.047 A 
ATOM     12  C   UNL     1      38.284  -3.364   4.859  0.00  0.00    +0.035 A 
ATOM     32  C   UNL     1      37.253  -2.417   4.590  0.00  0.00    +0.024 A 
ATOM     33  C   UNL     1      37.217  -1.139   5.257  0.00  0.00    +0.007 A 
ATOM     34  C   UNL     1      38.226  -0.786   6.215  0.00  0.00    -0.029 A 
ATOM     35  C   UNL     1      38.134   0.595   6.905  0.00  0.00    +0.045 C 
ENDROOT
BRANCH  10   9
ATOM      4  C   UNL     1      43.727  -0.285   7.583  0.00  0.00    +0.077 A 
ATOM      5  C   UNL     1      44.069  -0.100   6.203  0.00  0.00    +0.048 A 
ATOM      6  C   UNL     1      43.077  -0.401   5.242  0.00  0.00    +0.116 A 
ATOM      7  N   UNL     1      41.839  -0.854   5.644  0.00  0.00    -0.223 NA
ATOM      8  C   UNL     1      41.543  -1.023   6.984  0.00  0.00    +0.220 A 
ATOM      9  N   UNL     1      40.301  -1.469   7.412  0.00  0.00    -0.283 N 
ATOM     36  H   UNL     1      40.124  -1.588   8.409  0.00  0.00    +0.155 HD
ATOM     37  N   UNL     1      42.473  -0.744   7.921  0.00  0.00    -0.214 NA
BRANCH   4   3
ATOM      1  C   UNL     1      45.547  -0.419  11.043  0.00  0.00    +0.020 A 
ATOM      2  C   UNL     1      44.616  -0.726   9.982  0.00  0.00    +0.013 A 
ATOM      3  C   UNL     1      44.666  -0.007   8.715  0.00  0.00    +0.019 A 
ATOM     38  C   UNL     1      45.679   1.026   8.554  0.00  0.00    +0.120 A 
ATOM     39  N   UNL     1      46.561   1.301   9.594  0.00  0.00    -0.263 NA
ATOM     40  C   UNL     1      46.521   0.616  10.818  0.00  0.00    +0.111 A 
ENDBRANCH   4   3
ENDBRANCH  10   9
BRANCH  12  13
ATOM     13  N   UNL     1      38.247  -4.624   4.159  0.00  0.00    -0.281 N 
ATOM     14  C   UNL     1      39.122  -5.085   3.188  0.00  0.00    +0.248 C 
ATOM     30  O   UNL     1      39.950  -4.390   2.618  0.00  0.00    -0.270 OA
ATOM     31  H   UNL     1      37.484  -5.253   4.409  0.00  0.00    +0.155 HD
BRANCH  14  15
ATOM     15  C   UNL     1      39.057  -6.522   2.781  0.00  0.00    +0.037 A 
ATOM     16  C   UNL     1      39.899  -7.045   1.703  0.00  0.00    +0.013 A 
ATOM     17  C   UNL     1      39.805  -8.431   1.319  0.00  0.00    +0.005 A 
ATOM     18  C   UNL     1      38.864  -9.305   2.016  0.00  0.00    -0.033 A 
ATOM     28  C   UNL     1      38.044  -8.761   3.086  0.00  0.00    +0.005 A 
ATOM     29  C   UNL     1      38.133  -7.402   3.464  0.00  0.00    +0.013 A 
BRANCH  18  19
ATOM     19  C   UNL     1      38.682 -10.792   1.658  0.00  0.00    +0.119 C 
BRANCH  19  20
ATOM     20  N   UNL     1      39.657 -11.760   2.242  0.00  0.00    -0.302 NA
ATOM     21  C   UNL     1      40.848 -12.007   1.311  0.00  0.00    +0.066 C 
ATOM     22  C   UNL     1      41.870 -13.005   1.946  0.00  0.00    -0.064 C 
ATOM     23  N   UNL     1      41.158 -14.318   2.276  0.00  0.00    +0.379 N 
ATOM     24  C   UNL     1      42.129 -15.279   2.821  0.00  0.00    -0.096 C 
ATOM     25  H   UNL     1      40.765 -14.739   1.322  0.00  0.00    -0.082 HD
ATOM     26  C   UNL     1      39.972 -14.081   3.200  0.00  0.00    -0.064 C 
ATOM     27  C   UNL     1      38.977 -13.065   2.572  0.00  0.00    +0.066 C 
ENDBRANCH  19  20
ENDBRANCH  18  19
ENDBRANCH  14  15
ENDBRANCH  12  13
TORSDOF 6
ENDMDL
MODEL 2
REMARK VINA RESULT:      -7.9      1.125      1.689
REMARK  Name = C:\Users\Docking\Desktop\test protocol\1iep_ligandH.pdb
REMARK  8 active torsions:
REMARK  status: ('A' for Active; 'I' for Inactive)
REMARK    1  A    between atoms: _5  and  _11
REMARK    2  A    between atoms: _19  and  _21
REMARK    3  A    between atoms: _22  and  _66
REMARK    4  A    between atoms: _27  and  _30
REMARK    5  A    between atoms: _32  and  _33
REMARK    6  A    between atoms: _38  and  _43
REMARK    7  A    between atoms: _43  and  _46
REMARK    8  A    between atoms: _53  and  _55
REMARK                            x       y       z     vdW  Elec       q    Type
REMARK                         _______ _______ _______ _____ _____    ______ ____
ROOT
ATOM     10  C   UNL     1      39.324  -1.865   6.454  0.00  0.00    +0.038 A 
ATOM     11  C   UNL     1      39.368  -3.143   5.840  0.00  0.00    +0.047 A 
ATOM     12  C   UNL     1      38.352  -3.552   4.882  0.00  0.00    +0.035 A 
ATOM     32  C   UNL     1      37.308  -2.633   4.571  0.00  0.00    +0.024 A 
ATOM     33  C   UNL     1      37.248  -1.331   5.188  0.00  0.00    +0.007 A 
ATOM     34  C   UNL     1      38.245  -0.923   6.135  0.00  0.00    -0.029 A 
ATOM     35  C   UNL     1      38.127   0.482   6.770  0.00  0.00    +0.045 C 
ENDROOT
BRANCH  10   9
ATOM      4  C   UNL     1      43.724  -0.260   7.507  0.00  0.00    +0.077 A 
ATOM      5  C   UNL     1      44.066  -0.113   6.122  0.00  0.00    +0.048 A 
ATOM      6  C   UNL     1      43.084  -0.469   5.170  0.00  0.00    +0.116 A 
ATOM      7  N   UNL     1      41.855  -0.934   5.584  0.00  0.00    -0.223 NA
ATOM      8  C   UNL     1      41.558  -1.066   6.928  0.00  0.00    +0.220 A 
ATOM      9  N   UNL     1      40.326  -1.525   7.367  0.00  0.00    -0.283 N 
ATOM     36  H   UNL     1      40.148  -1.614   8.367  0.00  0.00    +0.155 HD
ATOM     37  N   UNL     1      42.479  -0.735   7.857  0.00  0.00    -0.214 NA
BRANCH   4   3
ATOM      1  C   UNL     1      45.521  -0.224  10.981  0.00  0.00    +0.020 A 
ATOM      2  C   UNL     1      44.600  -0.586   9.929  0.00  0.00    +0.013 A 
ATOM      3  C   UNL     1      44.653   0.076   8.632  0.00  0.00    +0.019 A 
ATOM     38  C   UNL     1      45.658   1.109   8.430  0.00  0.00    +0.120 A 
ATOM     39  N   UNL     1      46.531   1.438   9.463  0.00  0.00    -0.263 NA
ATOM     40  C   UNL     1      46.488   0.808  10.716  0.00  0.00    +0.111 A 
ENDBRANCH   4   3
ENDBRANCH  10   9
BRANCH  12  13
ATOM     13  N   UNL     1      38.340  -4.839   4.232  0.00  0.00    -0.281 N 
ATOM     14  C   UNL     1      38.937  -5.193   3.033  0.00  0.00    +0.248 C 
ATOM     30  O   UNL     1      39.396  -4.397   2.228  0.00  0.00    -0.270 OA
ATOM     31  H   UNL     1      37.829  -5.578   4.714  0.00  0.00    +0.155 HD
BRANCH  14  15
ATOM     15  C   UNL     1      39.024  -6.641   2.670  0.00  0.00    +0.037 A 
ATOM     16  C   UNL     1      38.138  -7.633   3.285  0.00  0.00    +0.013 A 
ATOM     17  C   UNL     1      38.255  -9.025   2.929  0.00  0.00    +0.005 A 
ATOM     18  C   UNL     1      39.262  -9.433   1.952  0.00  0.00    -0.033 A 
ATOM     28  C   UNL     1      40.124  -8.427   1.354  0.00  0.00    +0.005 A 
ATOM     29  C   UNL     1      40.013  -7.062   1.701  0.00  0.00    +0.013 A 
BRANCH  18  19
ATOM     19  C   UNL     1      39.471 -10.899   1.529  0.00  0.00    +0.119 C 
BRANCH  19  20
ATOM     20  N   UNL     1      38.563 -11.920   2.131  0.00  0.00    -0.302 NA
ATOM     21  C   UNL     1      39.207 -12.628   3.327  0.00  0.00    +0.066 C 
ATOM     22  C   UNL     1      38.235 -13.677   3.958  0.00  0.00    -0.064 C 
ATOM     23  N   UNL     1      37.818 -14.690   2.890  0.00  0.00    +0.379 N 
ATOM     24  C   UNL     1      36.950 -15.711   3.494  0.00  0.00    -0.096 C 
ATOM     25  H   UNL     1      38.741 -15.200   2.530  0.00  0.00    -0.082 HD
ATOM     26  C   UNL     1      37.180 -13.994   1.696  0.00  0.00    -0.064 C 
ATOM     27  C   UNL     1      38.143 -12.933   1.094  0.00  0.00    +0.066 C 
ENDBRANCH  19  20
ENDBRANCH  18  19
ENDBRANCH  14  15
ENDBRANCH  12  13
TORSDOF 6
ENDMDL
MODEL 3
REMARK VINA RESULT:      -7.6      1.240      1.886
REMARK  Name = C:\Users\Docking\Desktop\test protocol\1iep_ligandH.pdb
REMARK  8 active torsions:
REMARK  status: ('A' for Active; 'I' for Inactive)
REMARK    1  A    between atoms: _5  and  _11
REMARK    2  A    between atoms: _19  and  _21
REMARK    3  A    between atoms: _22  and  _66
REMARK    4  A    between atoms: _27  and  _30
REMARK    5  A    between atoms: _32  and  _33
REMARK    6  A    between atoms: _38  and  _43
REMARK    7  A    between atoms: _43  and  _46
REMARK    8  A    between atoms: _53  and  _55
REMARK                            x       y       z     vdW  Elec       q    Type
REMARK                         _______ _______ _______ _____ _____    ______ ____
ROOT
ATOM     10  C   UNL     1      39.292  -1.734   6.462  0.00  0.00    +0.038 A 
ATOM     11  C   UNL     1      39.282  -3.008   5.840  0.00  0.00    +0.047 A 
ATOM     12  C   UNL     1      38.235  -3.380   4.902  0.00  0.00    +0.035 A 
ATOM     32  C   UNL     1      37.213  -2.427   4.617  0.00  0.00    +0.024 A 
ATOM     33  C   UNL     1      37.207  -1.127   5.241  0.00  0.00    +0.007 A 
ATOM     34  C   UNL     1      38.236  -0.756   6.170  0.00  0.00    -0.029 A 
ATOM     35  C   UNL     1      38.176   0.649   6.814  0.00  0.00    +0.045 C 
ENDROOT
BRANCH  10   9
ATOM      4  C   UNL     1      43.749  -0.243   7.434  0.00  0.00    +0.077 A 
ATOM      5  C   UNL     1      44.062  -0.081   6.043  0.00  0.00    +0.048 A 
ATOM      6  C   UNL     1      43.050  -0.399   5.109  0.00  0.00    +0.116 A 
ATOM      7  N   UNL     1      41.821  -0.845   5.545  0.00  0.00    -0.223 NA
ATOM      8  C   UNL     1      41.553  -0.991   6.894  0.00  0.00    +0.220 A 
ATOM      9  N   UNL     1      40.321  -1.430   7.355  0.00  0.00    -0.283 N 
ATOM     36  H   UNL     1      40.166  -1.532   8.358  0.00  0.00    +0.155 HD
ATOM     37  N   UNL     1      42.503  -0.695   7.805  0.00  0.00    -0.214 NA
BRANCH   4   3
ATOM      1  C   UNL     1      46.786   1.156   9.464  0.00  0.00    +0.020 A 
ATOM      2  C   UNL     1      45.888   0.899   8.362  0.00  0.00    +0.013 A 
ATOM      3  C   UNL     1      44.712   0.055   8.540  0.00  0.00    +0.019 A 
ATOM     38  C   UNL     1      44.472  -0.517   9.857  0.00  0.00    +0.120 A 
ATOM     39  N   UNL     1      45.356  -0.253  10.899  0.00  0.00    -0.263 NA
ATOM     40  C   UNL     1      46.491   0.556  10.739  0.00  0.00    +0.111 A 
ENDBRANCH   4   3
ENDBRANCH  10   9
BRANCH  12  13
ATOM     13  N   UNL     1      38.168  -4.662   4.246  0.00  0.00    -0.281 N 
ATOM     14  C   UNL     1      38.984  -5.145   3.235  0.00  0.00    +0.248 C 
ATOM     30  O   UNL     1      39.765  -4.461   2.591  0.00  0.00    -0.270 OA
ATOM     31  H   UNL     1      37.431  -5.290   4.565  0.00  0.00    +0.155 HD
BRANCH  14  15
ATOM     15  C   UNL     1      38.911  -6.595   2.879  0.00  0.00    +0.037 A 
ATOM     16  C   UNL     1      37.978  -7.498   3.558  0.00  0.00    +0.013 A 
ATOM     17  C   UNL     1      37.939  -8.895   3.207  0.00  0.00    +0.005 A 
ATOM     18  C   UNL     1      38.837  -9.398   2.169  0.00  0.00    -0.033 A 
ATOM     28  C   UNL     1      39.749  -8.479   1.508  0.00  0.00    +0.005 A 
ATOM     29  C   UNL     1      39.790  -7.109   1.851  0.00  0.00    +0.013 A 
BRANCH  18  19
ATOM     19  C   UNL     1      38.879 -10.878   1.745  0.00  0.00    +0.119 C 
BRANCH  19  20
ATOM     20  N   UNL     1      39.944 -11.283   0.780  0.00  0.00    -0.302 NA
ATOM     21  C   UNL     1      39.377 -11.569  -0.614  0.00  0.00    +0.066 C 
ATOM     22  C   UNL     1      40.508 -11.968  -1.617  0.00  0.00    -0.064 C 
ATOM     23  N   UNL     1      41.258 -13.187  -1.077  0.00  0.00    +0.379 N 
ATOM     24  C   UNL     1      42.284 -13.601  -2.045  0.00  0.00    -0.096 C 
ATOM     25  H   UNL     1      40.524 -14.021  -0.984  0.00  0.00    -0.082 HD
ATOM     26  C   UNL     1      41.822 -12.912   0.310  0.00  0.00    -0.064 C 
ATOM     27  C   UNL     1      40.695 -12.487   1.291  0.00  0.00    +0.066 C 
ENDBRANCH  19  20
ENDBRANCH  18  19
ENDBRANCH  14  15
ENDBRANCH  12  13
TORSDOF 6
ENDMDL
MODEL 4
REMARK VINA RESULT:      -7.4      1.665      2.458
REMARK  Name = C:\Users\Docking\Desktop\test protocol\1iep_ligandH.pdb
REMARK  8 active torsions:
REMARK  status: ('A' for Active; 'I' for Inactive)
REMARK    1  A    between atoms: _5  and  _11
REMARK    2  A    between atoms: _19  and  _21
REMARK    3  A    between atoms: _22  and  _66
REMARK    4  A    between atoms: _27  and  _30
REMARK    5  A    between atoms: _32  and  _33
REMARK    6  A    between atoms: _38  and  _43
REMARK    7  A    between atoms: _43  and  _46
REMARK    8  A    between atoms: _53  and  _55
REMARK                            x       y       z     vdW  Elec       q    Type
REMARK                         _______ _______ _______ _____ _____    ______ ____
ROOT
ATOM     10  C   UNL     1      39.098  -2.078   6.206  0.00  0.00    +0.038 A 
ATOM     11  C   UNL     1      39.221  -3.331   5.553  0.00  0.00    +0.047 A 
ATOM     12  C   UNL     1      38.209  -3.794   4.617  0.00  0.00    +0.035 A 
ATOM     32  C   UNL     1      37.085  -2.954   4.367  0.00  0.00    +0.024 A 
ATOM     33  C   UNL     1      36.944  -1.678   5.023  0.00  0.00    +0.007 A 
ATOM     34  C   UNL     1      37.938  -1.217   5.949  0.00  0.00    -0.029 A 
ATOM     35  C   UNL     1      37.731   0.157   6.628  0.00  0.00    +0.045 C 
ENDROOT
BRANCH  10   9
ATOM      4  C   UNL     1      43.495  -0.403   7.156  0.00  0.00    +0.077 A 
ATOM      5  C   UNL     1      43.834  -0.335   5.764  0.00  0.00    +0.048 A 
ATOM      6  C   UNL     1      42.852  -0.747   4.836  0.00  0.00    +0.116 A 
ATOM      7  N   UNL     1      41.625  -1.192   5.278  0.00  0.00    -0.223 NA
ATOM      8  C   UNL     1      41.331  -1.246   6.628  0.00  0.00    +0.220 A 
ATOM      9  N   UNL     1      40.100  -1.683   7.095  0.00  0.00    -0.283 N 
ATOM     36  H   UNL     1      39.925  -1.715   8.099  0.00  0.00    +0.155 HD
ATOM     37  N   UNL     1      42.252  -0.860   7.535  0.00  0.00    -0.214 NA
BRANCH   4   3
ATOM      1  C   UNL     1      46.420   1.261   9.151  0.00  0.00    +0.020 A 
ATOM      2  C   UNL     1      45.552   0.902   8.053  0.00  0.00    +0.013 A 
ATOM      3  C   UNL     1      44.425   0.000   8.258  0.00  0.00    +0.019 A 
ATOM     38  C   UNL     1      44.203  -0.526   9.596  0.00  0.00    +0.120 A 
ATOM     39  N   UNL     1      45.057  -0.165  10.634  0.00  0.00    -0.263 NA
ATOM     40  C   UNL     1      46.145   0.702  10.448  0.00  0.00    +0.111 A 
ENDBRANCH   4   3
ENDBRANCH  10   9
BRANCH  12  13
ATOM     13  N   UNL     1      38.276  -5.061   3.930  0.00  0.00    -0.281 N 
ATOM     14  C   UNL     1      39.090  -5.410   2.866  0.00  0.00    +0.248 C 
ATOM     30  O   UNL     1      39.737  -4.615   2.201  0.00  0.00    -0.270 OA
ATOM     31  H   UNL     1      37.646  -5.787   4.271  0.00  0.00    +0.155 HD
BRANCH  14  15
ATOM     15  C   UNL     1      39.189  -6.849   2.474  0.00  0.00    +0.037 A 
ATOM     16  C   UNL     1      40.211  -7.312   1.532  0.00  0.00    +0.013 A 
ATOM     17  C   UNL     1      40.274  -8.703   1.158  0.00  0.00    +0.005 A 
ATOM     18  C   UNL     1      39.311  -9.641   1.729  0.00  0.00    -0.033 A 
ATOM     28  C   UNL     1      38.310  -9.156   2.665  0.00  0.00    +0.005 A 
ATOM     29  C   UNL     1      38.246  -7.794   3.033  0.00  0.00    +0.013 A 
BRANCH  18  19
ATOM     19  C   UNL     1      39.290 -11.139   1.371  0.00  0.00    +0.119 C 
BRANCH  19  20
ATOM     20  N   UNL     1      37.968 -11.740   1.020  0.00  0.00    -0.302 NA
ATOM     21  C   UNL     1      37.907 -13.232   1.362  0.00  0.00    +0.066 C 
ATOM     22  C   UNL     1      36.510 -13.839   1.009  0.00  0.00    -0.064 C 
ATOM     23  N   UNL     1      36.217 -13.611  -0.475  0.00  0.00    +0.379 N 
ATOM     24  C   UNL     1      34.930 -14.231  -0.822  0.00  0.00    -0.096 C 
ATOM     25  H   UNL     1      37.012 -14.129  -1.060  0.00  0.00    -0.082 HD
ATOM     26  C   UNL     1      36.279 -12.130  -0.823  0.00  0.00    -0.064 C 
ATOM     27  C   UNL     1      37.661 -11.530  -0.442  0.00  0.00    +0.066 C 
ENDBRANCH  19  20
ENDBRANCH  18  19
ENDBRANCH  14  15
ENDBRANCH  12  13
TORSDOF 6
ENDMDL
MODEL 5
REMARK VINA RESULT:      -7.2      2.638      4.146
REMARK  Name = C:\Users\Docking\Desktop\test protocol\1iep_ligandH.pdb
REMARK  8 active torsions:
REMARK  status: ('A' for Active; 'I' for Inactive)
REMARK    1  A    between atoms: _5  and  _11
REMARK    2  A    between atoms: _19  and  _21
REMARK    3  A    between atoms: _22  and  _66
REMARK    4  A    between atoms: _27  and  _30
REMARK    5  A    between atoms: _32  and  _33
REMARK    6  A    between atoms: _38  and  _43
REMARK    7  A    between atoms: _43  and  _46
REMARK    8  A    between atoms: _53  and  _55
REMARK                            x       y       z     vdW  Elec       q    Type
REMARK                         _______ _______ _______ _____ _____    ______ ____
ROOT
ATOM     10  C   UNL     1      38.118  -3.901   3.674  0.00  0.00    +0.038 A 
ATOM     11  C   UNL     1      38.745  -5.145   3.411  0.00  0.00    +0.047 A 
ATOM     12  C   UNL     1      37.966  -6.367   3.277  0.00  0.00    +0.035 A 
ATOM     32  C   UNL     1      36.550  -6.283   3.414  0.00  0.00    +0.024 A 
ATOM     33  C   UNL     1      35.896  -5.026   3.682  0.00  0.00    +0.007 A 
ATOM     34  C   UNL     1      36.660  -3.819   3.818  0.00  0.00    -0.029 A 
ATOM     35  C   UNL     1      35.906  -2.500   4.111  0.00  0.00    +0.045 C 
ENDROOT
BRANCH  10   9
ATOM      4  C   UNL     1      40.904  -0.930   6.213  0.00  0.00    +0.077 A 
ATOM      5  C   UNL     1      40.738  -1.702   7.411  0.00  0.00    +0.048 A 
ATOM      6  C   UNL     1      39.921  -2.852   7.333  0.00  0.00    +0.116 A 
ATOM      7  N   UNL     1      39.322  -3.196   6.140  0.00  0.00    -0.223 NA
ATOM      8  C   UNL     1      39.502  -2.428   5.004  0.00  0.00    +0.220 A 
ATOM      9  N   UNL     1      38.914  -2.759   3.793  0.00  0.00    -0.283 N 
ATOM     36  H   UNL     1      39.066  -2.163   2.980  0.00  0.00    +0.155 HD
ATOM     37  N   UNL     1      40.275  -1.324   5.053  0.00  0.00    -0.214 NA
BRANCH   4   3
ATOM      1  C   UNL     1      43.950   1.509   5.937  0.00  0.00    +0.020 A 
ATOM      2  C   UNL     1      43.191   0.282   6.009  0.00  0.00    +0.013 A 
ATOM      3  C   UNL     1      41.739   0.311   6.135  0.00  0.00    +0.019 A 
ATOM     38  C   UNL     1      41.081   1.608   6.185  0.00  0.00    +0.120 A 
ATOM     39  N   UNL     1      41.839   2.773   6.115  0.00  0.00    -0.263 NA
ATOM     40  C   UNL     1      43.236   2.757   5.995  0.00  0.00    +0.111 A 
ENDBRANCH   4   3
ENDBRANCH  10   9
BRANCH  12  13
ATOM     13  N   UNL     1      38.548  -7.661   3.019  0.00  0.00    -0.281 N 
ATOM     14  C   UNL     1      38.680  -8.307   1.801  0.00  0.00    +0.248 C 
ATOM     30  O   UNL     1      38.122  -7.961   0.771  0.00  0.00    -0.270 OA
ATOM     31  H   UNL     1      38.906  -8.160   3.833  0.00  0.00    +0.155 HD
BRANCH  14  15
ATOM     15  C   UNL     1      39.546  -9.522   1.719  0.00  0.00    +0.037 A 
ATOM     16  C   UNL     1      40.950  -9.429   1.311  0.00  0.00    +0.013 A 
ATOM     17  C   UNL     1      41.759 -10.619   1.223  0.00  0.00    +0.005 A 
ATOM     18  C   UNL     1      41.165 -11.914   1.546  0.00  0.00    -0.033 A 
ATOM     28  C   UNL     1      39.771 -11.977   1.954  0.00  0.00    +0.005 A 
ATOM     29  C   UNL     1      38.975 -10.813   2.039  0.00  0.00    +0.013 A 
BRANCH  18  19
ATOM     19  C   UNL     1      41.947 -13.238   1.460  0.00  0.00    +0.119 C 
BRANCH  19  20
ATOM     20  N   UNL     1      43.144 -13.383   2.340  0.00  0.00    -0.302 NA
ATOM     21  C   UNL     1      44.452 -13.183   1.569  0.00  0.00    +0.066 C 
ATOM     22  C   UNL     1      45.694 -13.317   2.510  0.00  0.00    -0.064 C 
ATOM     23  N   UNL     1      45.670 -14.686   3.190  0.00  0.00    +0.379 N 
ATOM     24  C   UNL     1      46.867 -14.837   4.030  0.00  0.00    -0.096 C 
ATOM     25  H   UNL     1      45.718 -15.462   2.390  0.00  0.00    -0.082 HD
ATOM     26  C   UNL     1      44.372 -14.894   3.957  0.00  0.00    -0.064 C 
ATOM     27  C   UNL     1      43.143 -14.731   3.019  0.00  0.00    +0.066 C 
ENDBRANCH  19  20
ENDBRANCH  18  19
ENDBRANCH  14  15
ENDBRANCH  12  13
TORSDOF 6
ENDMDL
