MODEL 1
REMARK VINA RESULT:      -7.7      0.000      0.000
REMARK  Name = C:\Users\Docking\Desktop\test protocol\1iep_ligandH.pdb
REMARK  8 active torsions:
REMARK  status: ('A' for Active; 'I' for Inactive)
REMARK    1  A    between atoms: _5  and  _11
REMARK    2  A    between atoms: _19  and  _21
REMARK    3  A    between atoms: _22  and  _66
REMARK    4  A    between atoms: _27  and  _30
REMARK    5  A    between atoms: _32  and  _33
REMARK    6  A    between atoms: _38  and  _43
REMARK    7  A    between atoms: _43  and  _46
REMARK    8  A    between atoms: _53  and  _55
REMARK                            x       y       z     vdW  Elec       q    Type
REMARK                         _______ _______ _______ _____ _____    ______ ____
ROOT
ATOM     10  C   UNL     1     -13.109 -48.856 -19.262  0.00  0.00    +0.038 A 
ATOM     11  C   UNL     1     -12.371 -47.714 -19.665  0.00  0.00    +0.047 A 
ATOM     12  C   UNL     1     -10.916 -47.730 -19.693  0.00  0.00    +0.035 A 
ATOM     32  C   UNL     1     -10.246 -48.928 -19.308  0.00  0.00    +0.024 A 
ATOM     33  C   UNL     1     -10.981 -50.097 -18.895  0.00  0.00    +0.007 A 
ATOM     34  C   UNL     1     -12.416 -50.086 -18.862  0.00  0.00    -0.029 A 
ATOM     35  C   UNL     1     -13.152 -51.367 -18.405  0.00  0.00    +0.045 C 
ENDROOT
BRANCH  10   9
ATOM      4  C   UNL     1     -17.302 -48.242 -17.008  0.00  0.00    +0.077 A 
ATOM      5  C   UNL     1     -16.661 -48.075 -15.736  0.00  0.00    +0.048 A 
ATOM      6  C   UNL     1     -15.251 -48.162 -15.703  0.00  0.00    +0.116 A 
ATOM      7  N   UNL     1     -14.545 -48.397 -16.863  0.00  0.00    -0.223 NA
ATOM      8  C   UNL     1     -15.194 -48.555 -18.073  0.00  0.00    +0.220 A 
ATOM      9  N   UNL     1     -14.504 -48.785 -19.253  0.00  0.00    -0.283 N 
ATOM     36  H   UNL     1     -15.020 -48.903 -20.125  0.00  0.00    +0.155 HD
ATOM     37  N   UNL     1     -16.540 -48.478 -18.131  0.00  0.00    -0.214 NA
BRANCH   4   3
ATOM      1  C   UNL     1     -20.869 -47.106 -18.143  0.00  0.00    +0.020 A 
ATOM      2  C   UNL     1     -19.433 -47.126 -17.982  0.00  0.00    +0.013 A 
ATOM      3  C   UNL     1     -18.785 -48.174 -17.205  0.00  0.00    +0.019 A 
ATOM     38  C   UNL     1     -19.624 -49.197 -16.600  0.00  0.00    +0.120 A 
ATOM     39  N   UNL     1     -21.004 -49.152 -16.770  0.00  0.00    -0.263 NA
ATOM     40  C   UNL     1     -21.640 -48.147 -17.514  0.00  0.00    +0.111 A 
ENDBRANCH   4   3
ENDBRANCH  10   9
BRANCH  12  13
ATOM     13  N   UNL     1     -10.113 -46.599 -20.085  0.00  0.00    -0.281 N 
ATOM     14  C   UNL     1      -9.079 -46.003 -19.381  0.00  0.00    +0.248 C 
ATOM     30  O   UNL     1      -8.828 -46.222 -18.205  0.00  0.00    -0.270 OA
ATOM     31  H   UNL     1     -10.333 -46.187 -20.992  0.00  0.00    +0.155 HD
BRANCH  14  15
ATOM     15  C   UNL     1      -8.207 -45.011 -20.080  0.00  0.00    +0.037 A 
ATOM     16  C   UNL     1      -7.349 -45.408 -21.199  0.00  0.00    +0.013 A 
ATOM     17  C   UNL     1      -6.505 -44.434 -21.844  0.00  0.00    +0.005 A 
ATOM     18  C   UNL     1      -6.516 -43.052 -21.372  0.00  0.00    -0.033 A 
ATOM     28  C   UNL     1      -7.381 -42.684 -20.263  0.00  0.00    +0.005 A 
ATOM     29  C   UNL     1      -8.209 -43.636 -19.628  0.00  0.00    +0.013 A 
BRANCH  18  19
ATOM     19  C   UNL     1      -5.632 -41.950 -21.987  0.00  0.00    +0.119 C 
BRANCH  19  20
ATOM     20  N   UNL     1      -4.559 -42.383 -22.931  0.00  0.00    -0.302 NA
ATOM     21  C   UNL     1      -3.203 -42.526 -22.233  0.00  0.00    +0.066 C 
ATOM     22  C   UNL     1      -2.097 -43.000 -23.230  0.00  0.00    -0.064 C 
ATOM     23  N   UNL     1      -2.005 -42.012 -24.394  0.00  0.00    +0.379 N 
ATOM     24  C   UNL     1      -0.926 -42.424 -25.303  0.00  0.00    -0.096 C 
ATOM     25  H   UNL     1      -1.730 -41.018 -23.972  0.00  0.00    -0.082 HD
ATOM     26  C   UNL     1      -3.349 -41.862 -25.092  0.00  0.00    -0.064 C 
ATOM     27  C   UNL     1      -4.448 -41.418 -24.086  0.00  0.00    +0.066 C 
ENDBRANCH  19  20
ENDBRANCH  18  19
ENDBRANCH  14  15
ENDBRANCH  12  13
TORSDOF 6
ENDMDL
MODEL 2
REMARK VINA RESULT:      -7.4     30.516     33.986
REMARK  Name = C:\Users\Docking\Desktop\test protocol\1iep_ligandH.pdb
REMARK  8 active torsions:
REMARK  status: ('A' for Active; 'I' for Inactive)
REMARK    1  A    between atoms: _5  and  _11
REMARK    2  A    between atoms: _19  and  _21
REMARK    3  A    between atoms: _22  and  _66
REMARK    4  A    between atoms: _27  and  _30
REMARK    5  A    between atoms: _32  and  _33
REMARK    6  A    between atoms: _38  and  _43
REMARK    7  A    between atoms: _43  and  _46
REMARK    8  A    between atoms: _53  and  _55
REMARK                            x       y       z     vdW  Elec       q    Type
REMARK                         _______ _______ _______ _____ _____    ______ ____
ROOT
ATOM     10  C   UNL     1     -37.635 -28.631 -30.303  0.00  0.00    +0.038 A 
ATOM     11  C   UNL     1     -37.423 -29.331 -29.087  0.00  0.00    +0.047 A 
ATOM     12  C   UNL     1     -38.293 -29.127 -27.940  0.00  0.00    +0.035 A 
ATOM     32  C   UNL     1     -39.373 -28.205 -28.066  0.00  0.00    +0.024 A 
ATOM     33  C   UNL     1     -39.602 -27.485 -29.294  0.00  0.00    +0.007 A 
ATOM     34  C   UNL     1     -38.745 -27.680 -30.428  0.00  0.00    -0.029 A 
ATOM     35  C   UNL     1     -39.034 -26.875 -31.717  0.00  0.00    +0.045 C 
ENDROOT
BRANCH  10   9
ATOM      4  C   UNL     1     -36.199 -31.182 -34.107  0.00  0.00    +0.077 A 
ATOM      5  C   UNL     1     -37.249 -32.144 -33.933  0.00  0.00    +0.048 A 
ATOM      6  C   UNL     1     -38.133 -31.950 -32.847  0.00  0.00    +0.116 A 
ATOM      7  N   UNL     1     -37.970 -30.871 -32.006  0.00  0.00    -0.223 NA
ATOM      8  C   UNL     1     -36.946 -29.963 -32.202  0.00  0.00    +0.220 A 
ATOM      9  N   UNL     1     -36.768 -28.866 -31.373  0.00  0.00    -0.283 N 
ATOM     36  H   UNL     1     -35.996 -28.223 -31.546  0.00  0.00    +0.155 HD
ATOM     37  N   UNL     1     -36.088 -30.126 -33.230  0.00  0.00    -0.214 NA
BRANCH   4   3
ATOM      1  C   UNL     1     -32.853 -30.965 -36.121  0.00  0.00    +0.020 A 
ATOM      2  C   UNL     1     -33.789 -30.882 -35.024  0.00  0.00    +0.013 A 
ATOM      3  C   UNL     1     -35.188 -31.248 -35.209  0.00  0.00    +0.019 A 
ATOM     38  C   UNL     1     -35.610 -31.697 -36.527  0.00  0.00    +0.120 A 
ATOM     39  N   UNL     1     -34.686 -31.765 -37.566  0.00  0.00    -0.263 NA
ATOM     40  C   UNL     1     -33.338 -31.414 -37.400  0.00  0.00    +0.111 A 
ENDBRANCH   4   3
ENDBRANCH  10   9
BRANCH  12  13
ATOM     13  N   UNL     1     -38.122 -29.803 -26.678  0.00  0.00    -0.281 N 
ATOM     14  C   UNL     1     -37.859 -29.241 -25.440  0.00  0.00    +0.248 C 
ATOM     30  O   UNL     1     -37.518 -28.081 -25.266  0.00  0.00    -0.270 OA
ATOM     31  H   UNL     1     -38.205 -30.820 -26.700  0.00  0.00    +0.155 HD
BRANCH  14  15
ATOM     15  C   UNL     1     -37.979 -30.095 -24.219  0.00  0.00    +0.037 A 
ATOM     16  C   UNL     1     -36.904 -31.008 -23.821  0.00  0.00    +0.013 A 
ATOM     17  C   UNL     1     -37.052 -31.833 -22.649  0.00  0.00    +0.005 A 
ATOM     18  C   UNL     1     -38.281 -31.747 -21.864  0.00  0.00    -0.033 A 
ATOM     28  C   UNL     1     -39.330 -30.829 -22.277  0.00  0.00    +0.005 A 
ATOM     29  C   UNL     1     -39.188 -30.020 -23.427  0.00  0.00    +0.013 A 
BRANCH  18  19
ATOM     19  C   UNL     1     -38.534 -32.605 -20.610  0.00  0.00    +0.119 C 
BRANCH  19  20
ATOM     20  N   UNL     1     -39.618 -33.630 -20.690  0.00  0.00    -0.302 NA
ATOM     21  C   UNL     1     -39.685 -34.495 -19.428  0.00  0.00    +0.066 C 
ATOM     22  C   UNL     1     -40.838 -35.546 -19.519  0.00  0.00    -0.064 C 
ATOM     23  N   UNL     1     -40.636 -36.415 -20.762  0.00  0.00    +0.379 N 
ATOM     24  C   UNL     1     -41.686 -37.442 -20.819  0.00  0.00    -0.096 C 
ATOM     25  H   UNL     1     -39.657 -36.938 -20.653  0.00  0.00    -0.082 HD
ATOM     26  C   UNL     1     -40.565 -35.562 -22.021  0.00  0.00    -0.064 C 
ATOM     27  C   UNL     1     -39.435 -34.501 -21.908  0.00  0.00    +0.066 C 
ENDBRANCH  19  20
ENDBRANCH  18  19
ENDBRANCH  14  15
ENDBRANCH  12  13
TORSDOF 6
ENDMDL
MODEL 3
REMARK VINA RESULT:      -7.2      1.892      2.577
REMARK  Name = C:\Users\Docking\Desktop\test protocol\1iep_ligandH.pdb
REMARK  8 active torsions:
REMARK  status: ('A' for Active; 'I' for Inactive)
REMARK    1  A    between atoms: _5  and  _11
REMARK    2  A    between atoms: _19  and  _21
REMARK    3  A    between atoms: _22  and  _66
REMARK    4  A    between atoms: _27  and  _30
REMARK    5  A    between atoms: _32  and  _33
REMARK    6  A    between atoms: _38  and  _43
REMARK    7  A    between atoms: _43  and  _46
REMARK    8  A    between atoms: _53  and  _55
REMARK                            x       y       z     vdW  Elec       q    Type
REMARK                         _______ _______ _______ _____ _____    ______ ____
ROOT
ATOM     10  C   UNL     1     -13.446 -49.196 -19.150  0.00  0.00    +0.038 A 
ATOM     11  C   UNL     1     -12.665 -48.064 -19.495  0.00  0.00    +0.047 A 
ATOM     12  C   UNL     1     -11.212 -48.125 -19.501  0.00  0.00    +0.035 A 
ATOM     32  C   UNL     1     -10.586 -49.357 -19.152  0.00  0.00    +0.024 A 
ATOM     33  C   UNL     1     -11.364 -50.518 -18.797  0.00  0.00    +0.007 A 
ATOM     34  C   UNL     1     -12.798 -50.463 -18.787  0.00  0.00    -0.029 A 
ATOM     35  C   UNL     1     -13.581 -51.736 -18.392  0.00  0.00    +0.045 C 
ENDROOT
BRANCH  10   9
ATOM      4  C   UNL     1     -17.646 -48.416 -16.962  0.00  0.00    +0.077 A 
ATOM      5  C   UNL     1     -17.016 -48.249 -15.683  0.00  0.00    +0.048 A 
ATOM      6  C   UNL     1     -15.610 -48.379 -15.631  0.00  0.00    +0.116 A 
ATOM      7  N   UNL     1     -14.897 -48.655 -16.777  0.00  0.00    -0.223 NA
ATOM      8  C   UNL     1     -15.536 -48.811 -17.994  0.00  0.00    +0.220 A 
ATOM      9  N   UNL     1     -14.838 -49.081 -19.161  0.00  0.00    -0.283 N 
ATOM     36  H   UNL     1     -15.346 -49.197 -20.037  0.00  0.00    +0.155 HD
ATOM     37  N   UNL     1     -16.877 -48.694 -18.070  0.00  0.00    -0.214 NA
BRANCH   4   3
ATOM      1  C   UNL     1     -21.169 -47.131 -18.074  0.00  0.00    +0.020 A 
ATOM      2  C   UNL     1     -19.737 -47.190 -17.890  0.00  0.00    +0.013 A 
ATOM      3  C   UNL     1     -19.123 -48.305 -17.180  0.00  0.00    +0.019 A 
ATOM     38  C   UNL     1     -19.992 -49.352 -16.665  0.00  0.00    +0.120 A 
ATOM     39  N   UNL     1     -21.368 -49.268 -16.856  0.00  0.00    -0.263 NA
ATOM     40  C   UNL     1     -21.970 -48.199 -17.536  0.00  0.00    +0.111 A 
ENDBRANCH   4   3
ENDBRANCH  10   9
BRANCH  12  13
ATOM     13  N   UNL     1     -10.367 -47.005 -19.835  0.00  0.00    -0.281 N 
ATOM     14  C   UNL     1      -9.464 -46.346 -19.018  0.00  0.00    +0.248 C 
ATOM     30  O   UNL     1      -9.400 -46.484 -17.805  0.00  0.00    -0.270 OA
ATOM     31  H   UNL     1     -10.444 -46.656 -20.791  0.00  0.00    +0.155 HD
BRANCH  14  15
ATOM     15  C   UNL     1      -8.501 -45.383 -19.634  0.00  0.00    +0.037 A 
ATOM     16  C   UNL     1      -7.958 -45.606 -20.977  0.00  0.00    +0.013 A 
ATOM     17  C   UNL     1      -7.018 -44.670 -21.541  0.00  0.00    +0.005 A 
ATOM     18  C   UNL     1      -6.616 -43.501 -20.763  0.00  0.00    -0.033 A 
ATOM     28  C   UNL     1      -7.175 -43.301 -19.435  0.00  0.00    +0.005 A 
ATOM     29  C   UNL     1      -8.095 -44.217 -18.879  0.00  0.00    +0.013 A 
BRANCH  18  19
ATOM     19  C   UNL     1      -5.602 -42.461 -21.277  0.00  0.00    +0.119 C 
BRANCH  19  20
ATOM     20  N   UNL     1      -5.390 -41.242 -20.442  0.00  0.00    -0.302 NA
ATOM     21  C   UNL     1      -6.402 -40.139 -20.768  0.00  0.00    +0.066 C 
ATOM     22  C   UNL     1      -6.179 -38.879 -19.869  0.00  0.00    -0.064 C 
ATOM     23  N   UNL     1      -4.748 -38.372 -20.052  0.00  0.00    +0.379 N 
ATOM     24  C   UNL     1      -4.553 -37.153 -19.253  0.00  0.00    -0.096 C 
ATOM     25  H   UNL     1      -4.621 -38.097 -21.125  0.00  0.00    -0.082 HD
ATOM     26  C   UNL     1      -3.736 -39.463 -19.732  0.00  0.00    -0.064 C 
ATOM     27  C   UNL     1      -3.984 -40.722 -20.610  0.00  0.00    +0.066 C 
ENDBRANCH  19  20
ENDBRANCH  18  19
ENDBRANCH  14  15
ENDBRANCH  12  13
TORSDOF 6
ENDMDL
MODEL 4
REMARK VINA RESULT:      -7.0      5.373      9.715
REMARK  Name = C:\Users\Docking\Desktop\test protocol\1iep_ligandH.pdb
REMARK  8 active torsions:
REMARK  status: ('A' for Active; 'I' for Inactive)
REMARK    1  A    between atoms: _5  and  _11
REMARK    2  A    between atoms: _19  and  _21
REMARK    3  A    between atoms: _22  and  _66
REMARK    4  A    between atoms: _27  and  _30
REMARK    5  A    between atoms: _32  and  _33
REMARK    6  A    between atoms: _38  and  _43
REMARK    7  A    between atoms: _43  and  _46
REMARK    8  A    between atoms: _53  and  _55
REMARK                            x       y       z     vdW  Elec       q    Type
REMARK                         _______ _______ _______ _____ _____    ______ ____
ROOT
ATOM     10  C   UNL     1     -22.231 -49.986 -17.961  0.00  0.00    +0.038 A 
ATOM     11  C   UNL     1     -20.870 -49.718 -18.255  0.00  0.00    +0.047 A 
ATOM     12  C   UNL     1     -20.232 -48.489 -17.808  0.00  0.00    +0.035 A 
ATOM     32  C   UNL     1     -21.010 -47.556 -17.062  0.00  0.00    +0.024 A 
ATOM     33  C   UNL     1     -22.395 -47.812 -16.756  0.00  0.00    +0.007 A 
ATOM     34  C   UNL     1     -23.031 -49.021 -17.196  0.00  0.00    -0.029 A 
ATOM     35  C   UNL     1     -24.521 -49.240 -16.845  0.00  0.00    +0.045 C 
ENDROOT
BRANCH  10   9
ATOM      4  C   UNL     1     -23.090 -54.689 -17.535  0.00  0.00    +0.077 A 
ATOM      5  C   UNL     1     -22.333 -54.777 -16.320  0.00  0.00    +0.048 A 
ATOM      6  C   UNL     1     -21.732 -53.591 -15.842  0.00  0.00    +0.116 A 
ATOM      7  N   UNL     1     -21.885 -52.410 -16.536  0.00  0.00    -0.223 NA
ATOM      8  C   UNL     1     -22.620 -52.359 -17.705  0.00  0.00    +0.220 A 
ATOM      9  N   UNL     1     -22.793 -51.181 -18.415  0.00  0.00    -0.283 N 
ATOM     36  H   UNL     1     -23.337 -51.187 -19.278  0.00  0.00    +0.155 HD
ATOM     37  N   UNL     1     -23.203 -53.479 -18.183  0.00  0.00    -0.214 NA
BRANCH   4   3
ATOM      1  C   UNL     1     -25.296 -56.884 -19.905  0.00  0.00    +0.020 A 
ATOM      2  C   UNL     1     -24.646 -55.726 -19.335  0.00  0.00    +0.013 A 
ATOM      3  C   UNL     1     -23.787 -55.854 -18.165  0.00  0.00    +0.019 A 
ATOM     38  C   UNL     1     -23.604 -57.179 -17.591  0.00  0.00    +0.120 A 
ATOM     39  N   UNL     1     -24.244 -58.276 -18.160  0.00  0.00    -0.263 NA
ATOM     40  C   UNL     1     -25.074 -58.164 -19.286  0.00  0.00    +0.111 A 
ENDBRANCH   4   3
ENDBRANCH  10   9
BRANCH  12  13
ATOM     13  N   UNL     1     -18.855 -48.159 -18.082  0.00  0.00    -0.281 N 
ATOM     14  C   UNL     1     -17.727 -48.567 -17.390  0.00  0.00    +0.248 C 
ATOM     30  O   UNL     1     -17.747 -49.108 -16.294  0.00  0.00    -0.270 OA
ATOM     31  H   UNL     1     -18.693 -47.551 -18.885  0.00  0.00    +0.155 HD
BRANCH  14  15
ATOM     15  C   UNL     1     -16.382 -48.326 -17.994  0.00  0.00    +0.037 A 
ATOM     16  C   UNL     1     -15.587 -49.427 -18.545  0.00  0.00    +0.013 A 
ATOM     17  C   UNL     1     -14.285 -49.169 -19.107  0.00  0.00    +0.005 A 
ATOM     18  C   UNL     1     -13.770 -47.802 -19.123  0.00  0.00    -0.033 A 
ATOM     28  C   UNL     1     -14.582 -46.727 -18.575  0.00  0.00    +0.005 A 
ATOM     29  C   UNL     1     -15.858 -46.977 -18.022  0.00  0.00    +0.013 A 
BRANCH  18  19
ATOM     19  C   UNL     1     -12.383 -47.437 -19.683  0.00  0.00    +0.119 C 
BRANCH  19  20
ATOM     20  N   UNL     1     -11.192 -48.004 -18.983  0.00  0.00    -0.302 NA
ATOM     21  C   UNL     1     -11.032 -47.437 -17.570  0.00  0.00    +0.066 C 
ATOM     22  C   UNL     1      -9.794 -48.057 -16.844  0.00  0.00    -0.064 C 
ATOM     23  N   UNL     1      -8.537 -47.800 -17.676  0.00  0.00    +0.379 N 
ATOM     24  C   UNL     1      -7.363 -48.332 -16.968  0.00  0.00    -0.096 C 
ATOM     25  H   UNL     1      -8.408 -46.696 -17.762  0.00  0.00    -0.082 HD
ATOM     26  C   UNL     1      -8.688 -48.359 -19.083  0.00  0.00    -0.064 C 
ATOM     27  C   UNL     1      -9.938 -47.758 -19.785  0.00  0.00    +0.066 C 
ENDBRANCH  19  20
ENDBRANCH  18  19
ENDBRANCH  14  15
ENDBRANCH  12  13
TORSDOF 6
ENDMDL
MODEL 5
REMARK VINA RESULT:      -6.5     10.689     19.827
REMARK  Name = C:\Users\Docking\Desktop\test protocol\1iep_ligandH.pdb
REMARK  8 active torsions:
REMARK  status: ('A' for Active; 'I' for Inactive)
REMARK    1  A    between atoms: _5  and  _11
REMARK    2  A    between atoms: _19  and  _21
REMARK    3  A    between atoms: _22  and  _66
REMARK    4  A    between atoms: _27  and  _30
REMARK    5  A    between atoms: _32  and  _33
REMARK    6  A    between atoms: _38  and  _43
REMARK    7  A    between atoms: _43  and  _46
REMARK    8  A    between atoms: _53  and  _55
REMARK                            x       y       z     vdW  Elec       q    Type
REMARK                         _______ _______ _______ _____ _____    ______ ____
ROOT
ATOM     10  C   UNL     1     -25.919 -50.770 -14.791  0.00  0.00    +0.038 A 
ATOM     11  C   UNL     1     -26.757 -49.674 -14.463  0.00  0.00    +0.047 A 
ATOM     12  C   UNL     1     -28.192 -49.847 -14.298  0.00  0.00    +0.035 A 
ATOM     32  C   UNL     1     -28.740 -51.151 -14.472  0.00  0.00    +0.024 A 
ATOM     33  C   UNL     1     -27.903 -52.276 -14.807  0.00  0.00    +0.007 A 
ATOM     34  C   UNL     1     -26.487 -52.112 -14.973  0.00  0.00    -0.029 A 
ATOM     35  C   UNL     1     -25.639 -53.352 -15.338  0.00  0.00    +0.045 C 
ENDROOT
BRANCH  10   9
ATOM      4  C   UNL     1     -22.155 -48.934 -17.135  0.00  0.00    +0.077 A 
ATOM      5  C   UNL     1     -22.989 -48.395 -18.172  0.00  0.00    +0.048 A 
ATOM      6  C   UNL     1     -24.380 -48.619 -18.068  0.00  0.00    +0.116 A 
ATOM      7  N   UNL     1     -24.889 -49.330 -17.002  0.00  0.00    -0.223 NA
ATOM      8  C   UNL     1     -24.057 -49.837 -16.021  0.00  0.00    +0.220 A 
ATOM      9  N   UNL     1     -24.548 -50.548 -14.937  0.00  0.00    -0.283 N 
ATOM     36  H   UNL     1     -23.901 -50.912 -14.238  0.00  0.00    +0.155 HD
ATOM     37  N   UNL     1     -22.725 -49.638 -16.098  0.00  0.00    -0.214 NA
BRANCH   4   3
ATOM      1  C   UNL     1     -18.361 -49.476 -16.353  0.00  0.00    +0.020 A 
ATOM      2  C   UNL     1     -19.793 -49.670 -16.350  0.00  0.00    +0.013 A 
ATOM      3  C   UNL     1     -20.667 -48.778 -17.103  0.00  0.00    +0.019 A 
ATOM     38  C   UNL     1     -20.055 -47.693 -17.854  0.00  0.00    +0.120 A 
ATOM     39  N   UNL     1     -18.673 -47.530 -17.837  0.00  0.00    -0.263 NA
ATOM     40  C   UNL     1     -17.823 -48.380 -17.115  0.00  0.00    +0.111 A 
ENDBRANCH   4   3
ENDBRANCH  10   9
BRANCH  12  13
ATOM     13  N   UNL     1     -29.094 -48.769 -13.974  0.00  0.00    -0.281 N 
ATOM     14  C   UNL     1     -29.204 -48.082 -12.776  0.00  0.00    +0.248 C 
ATOM     30  O   UNL     1     -28.686 -48.435 -11.727  0.00  0.00    -0.270 OA
ATOM     31  H   UNL     1     -29.728 -48.478 -14.718  0.00  0.00    +0.155 HD
BRANCH  14  15
ATOM     15  C   UNL     1     -30.019 -46.830 -12.734  0.00  0.00    +0.037 A 
ATOM     16  C   UNL     1     -31.396 -46.803 -13.233  0.00  0.00    +0.013 A 
ATOM     17  C   UNL     1     -32.154 -45.577 -13.197  0.00  0.00    +0.005 A 
ATOM     18  C   UNL     1     -31.536 -44.368 -12.657  0.00  0.00    -0.033 A 
ATOM     28  C   UNL     1     -30.170 -44.425 -12.163  0.00  0.00    +0.005 A 
ATOM     29  C   UNL     1     -29.424 -45.624 -12.199  0.00  0.00    +0.013 A 
BRANCH  18  19
ATOM     19  C   UNL     1     -32.263 -43.012 -12.598  0.00  0.00    +0.119 C 
BRANCH  19  20
ATOM     20  N   UNL     1     -31.433 -41.783 -12.772  0.00  0.00    -0.302 NA
ATOM     21  C   UNL     1     -32.133 -40.535 -12.228  0.00  0.00    +0.066 C 
ATOM     22  C   UNL     1     -31.241 -39.262 -12.398  0.00  0.00    -0.064 C 
ATOM     23  N   UNL     1     -30.887 -39.084 -13.876  0.00  0.00    +0.379 N 
ATOM     24  C   UNL     1     -30.097 -37.856 -14.047  0.00  0.00    -0.096 C 
ATOM     25  H   UNL     1     -31.841 -38.954 -14.438  0.00  0.00    -0.082 HD
ATOM     26  C   UNL     1     -30.193 -40.322 -14.426  0.00  0.00    -0.064 C 
ATOM     27  C   UNL     1     -31.076 -41.586 -14.225  0.00  0.00    +0.066 C 
ENDBRANCH  19  20
ENDBRANCH  18  19
ENDBRANCH  14  15
ENDBRANCH  12  13
TORSDOF 6
ENDMDL
