MODEL 1
REMARK VINA RESULT:      -9.0      0.000      0.000
REMARK  Name = C:\Users\Docking\Desktop\test protocol\1iep_ligandH.pdb
REMARK  8 active torsions:
REMARK  status: ('A' for Active; 'I' for Inactive)
REMARK    1  A    between atoms: _5  and  _11
REMARK    2  A    between atoms: _19  and  _21
REMARK    3  A    between atoms: _22  and  _66
REMARK    4  A    between atoms: _27  and  _30
REMARK    5  A    between atoms: _32  and  _33
REMARK    6  A    between atoms: _38  and  _43
REMARK    7  A    between atoms: _43  and  _46
REMARK    8  A    between atoms: _53  and  _55
REMARK                            x       y       z     vdW  Elec       q    Type
REMARK                         _______ _______ _______ _____ _____    ______ ____
ROOT
ATOM     10  C   UNL     1       9.225  25.592  19.341  0.00  0.00    +0.038 A 
ATOM     11  C   UNL     1      10.455  25.335  18.683  0.00  0.00    +0.047 A 
ATOM     12  C   UNL     1      11.067  24.016  18.719  0.00  0.00    +0.035 A 
ATOM     32  C   UNL     1      10.397  22.980  19.433  0.00  0.00    +0.024 A 
ATOM     33  C   UNL     1       9.147  23.224  20.108  0.00  0.00    +0.007 A 
ATOM     34  C   UNL     1       8.540  24.524  20.078  0.00  0.00    -0.029 A 
ATOM     35  C   UNL     1       7.202  24.730  20.826  0.00  0.00    +0.045 C 
ENDROOT
BRANCH  10   9
ATOM      4  C   UNL     1       8.221  29.869  21.274  0.00  0.00    +0.077 A 
ATOM      5  C   UNL     1       8.802  29.502  22.533  0.00  0.00    +0.048 A 
ATOM      6  C   UNL     1       9.342  28.201  22.644  0.00  0.00    +0.116 A 
ATOM      7  N   UNL     1       9.299  27.340  21.570  0.00  0.00    -0.223 NA
ATOM      8  C   UNL     1       8.730  27.725  20.370  0.00  0.00    +0.220 A 
ATOM      9  N   UNL     1       8.683  26.877  19.273  0.00  0.00    -0.283 N 
ATOM     36  H   UNL     1       8.248  27.196  18.408  0.00  0.00    +0.155 HD
ATOM     37  N   UNL     1       8.206  28.961  20.238  0.00  0.00    -0.214 NA
BRANCH   4   3
ATOM      1  C   UNL     1       6.057  33.115  21.557  0.00  0.00    +0.020 A 
ATOM      2  C   UNL     1       6.613  31.818  21.867  0.00  0.00    +0.013 A 
ATOM      3  C   UNL     1       7.613  31.209  20.999  0.00  0.00    +0.019 A 
ATOM     38  C   UNL     1       8.034  31.946  19.817  0.00  0.00    +0.120 A 
ATOM     39  N   UNL     1       7.480  33.193  19.543  0.00  0.00    -0.263 NA
ATOM     40  C   UNL     1       6.515  33.787  20.370  0.00  0.00    +0.111 A 
ENDBRANCH   4   3
ENDBRANCH  10   9
BRANCH  12  13
ATOM     13  N   UNL     1      12.318  23.698  18.077  0.00  0.00    -0.281 N 
ATOM     14  C   UNL     1      12.526  22.892  16.969  0.00  0.00    +0.248 C 
ATOM     30  O   UNL     1      11.685  22.147  16.489  0.00  0.00    -0.270 OA
ATOM     31  H   UNL     1      13.152  24.118  18.488  0.00  0.00    +0.155 HD
BRANCH  14  15
ATOM     15  C   UNL     1      13.867  22.905  16.308  0.00  0.00    +0.037 A 
ATOM     16  C   UNL     1      15.102  22.837  17.094  0.00  0.00    +0.013 A 
ATOM     17  C   UNL     1      16.382  22.869  16.432  0.00  0.00    +0.005 A 
ATOM     18  C   UNL     1      16.433  22.967  14.975  0.00  0.00    -0.033 A 
ATOM     28  C   UNL     1      15.193  23.028  14.221  0.00  0.00    +0.005 A 
ATOM     29  C   UNL     1      13.936  22.998  14.866  0.00  0.00    +0.013 A 
BRANCH  18  19
ATOM     19  C   UNL     1      17.755  23.028  14.187  0.00  0.00    +0.119 C 
BRANCH  19  20
ATOM     20  N   UNL     1      18.676  24.166  14.484  0.00  0.00    -0.302 NA
ATOM     21  C   UNL     1      18.093  25.509  14.036  0.00  0.00    +0.066 C 
ATOM     22  C   UNL     1      19.059  26.691  14.374  0.00  0.00    -0.064 C 
ATOM     23  N   UNL     1      20.416  26.441  13.712  0.00  0.00    +0.379 N 
ATOM     24  C   UNL     1      21.308  27.579  13.980  0.00  0.00    -0.096 C 
ATOM     25  H   UNL     1      20.251  26.393  12.611  0.00  0.00    -0.082 HD
ATOM     26  C   UNL     1      21.002  25.107  14.150  0.00  0.00    -0.064 C 
ATOM     27  C   UNL     1      20.021  23.943  13.836  0.00  0.00    +0.066 C 
ENDBRANCH  19  20
ENDBRANCH  18  19
ENDBRANCH  14  15
ENDBRANCH  12  13
TORSDOF 6
ENDMDL
MODEL 2
REMARK VINA RESULT:      -9.0      9.433     14.294
REMARK  Name = C:\Users\Docking\Desktop\test protocol\1iep_ligandH.pdb
REMARK  8 active torsions:
REMARK  status: ('A' for Active; 'I' for Inactive)
REMARK    1  A    between atoms: _5  and  _11
REMARK    2  A    between atoms: _19  and  _21
REMARK    3  A    between atoms: _22  and  _66
REMARK    4  A    between atoms: _27  and  _30
REMARK    5  A    between atoms: _32  and  _33
REMARK    6  A    between atoms: _38  and  _43
REMARK    7  A    between atoms: _43  and  _46
REMARK    8  A    between atoms: _53  and  _55
REMARK                            x       y       z     vdW  Elec       q    Type
REMARK                         _______ _______ _______ _____ _____    ______ ____
ROOT
ATOM     10  C   UNL     1      19.749  25.055  14.507  0.00  0.00    +0.038 A 
ATOM     11  C   UNL     1      21.093  25.500  14.593  0.00  0.00    +0.047 A 
ATOM     12  C   UNL     1      21.414  26.918  14.648  0.00  0.00    +0.035 A 
ATOM     32  C   UNL     1      20.340  27.855  14.615  0.00  0.00    +0.024 A 
ATOM     33  C   UNL     1      18.968  27.420  14.527  0.00  0.00    +0.007 A 
ATOM     34  C   UNL     1      18.646  26.023  14.470  0.00  0.00    -0.029 A 
ATOM     35  C   UNL     1      17.158  25.614  14.369  0.00  0.00    +0.045 C 
ENDROOT
BRANCH  10   9
ATOM      4  C   UNL     1      18.803  21.009  12.103  0.00  0.00    +0.077 A 
ATOM      5  C   UNL     1      18.781  21.693  10.843  0.00  0.00    +0.048 A 
ATOM      6  C   UNL     1      19.010  23.088  10.857  0.00  0.00    +0.116 A 
ATOM      7  N   UNL     1      19.244  23.739  12.049  0.00  0.00    -0.223 NA
ATOM      8  C   UNL     1      19.257  23.049  13.247  0.00  0.00    +0.220 A 
ATOM      9  N   UNL     1      19.498  23.682  14.457  0.00  0.00    -0.283 N 
ATOM     36  H   UNL     1      19.492  23.139  15.320  0.00  0.00    +0.155 HD
ATOM     37  N   UNL     1      19.040  21.717  13.261  0.00  0.00    -0.214 NA
BRANCH   4   3
ATOM      1  C   UNL     1      19.200  17.128  11.824  0.00  0.00    +0.020 A 
ATOM      2  C   UNL     1      19.458  18.539  11.650  0.00  0.00    +0.013 A 
ATOM      3  C   UNL     1      18.582  19.536  12.252  0.00  0.00    +0.019 A 
ATOM     38  C   UNL     1      17.445  19.069  13.031  0.00  0.00    +0.120 A 
ATOM     39  N   UNL     1      17.221  17.704  13.180  0.00  0.00    -0.263 NA
ATOM     40  C   UNL     1      18.056  16.735  12.604  0.00  0.00    +0.111 A 
ENDBRANCH   4   3
ENDBRANCH  10   9
BRANCH  12  13
ATOM     13  N   UNL     1      22.759  27.430  14.728  0.00  0.00    -0.281 N 
ATOM     14  C   UNL     1      23.485  27.744  15.865  0.00  0.00    +0.248 C 
ATOM     30  O   UNL     1      23.007  27.834  16.986  0.00  0.00    -0.270 OA
ATOM     31  H   UNL     1      23.235  27.578  13.837  0.00  0.00    +0.155 HD
BRANCH  14  15
ATOM     15  C   UNL     1      24.950  28.010  15.736  0.00  0.00    +0.037 A 
ATOM     16  C   UNL     1      25.513  29.327  16.044  0.00  0.00    +0.013 A 
ATOM     17  C   UNL     1      26.927  29.562  15.895  0.00  0.00    +0.005 A 
ATOM     18  C   UNL     1      27.789  28.475  15.437  0.00  0.00    -0.033 A 
ATOM     28  C   UNL     1      27.205  27.177  15.144  0.00  0.00    +0.005 A 
ATOM     29  C   UNL     1      25.819  26.943  15.288  0.00  0.00    +0.013 A 
BRANCH  18  19
ATOM     19  C   UNL     1      29.306  28.642  15.229  0.00  0.00    +0.119 C 
BRANCH  19  20
ATOM     20  N   UNL     1      29.968  27.722  14.256  0.00  0.00    -0.302 NA
ATOM     21  C   UNL     1      30.998  26.813  14.934  0.00  0.00    +0.066 C 
ATOM     22  C   UNL     1      31.664  25.843  13.905  0.00  0.00    -0.064 C 
ATOM     23  N   UNL     1      32.315  26.658  12.786  0.00  0.00    +0.379 N 
ATOM     24  C   UNL     1      32.992  25.751  11.848  0.00  0.00    -0.096 C 
ATOM     25  H   UNL     1      33.093  27.308  13.250  0.00  0.00    -0.082 HD
ATOM     26  C   UNL     1      31.299  27.567  12.109  0.00  0.00    -0.064 C 
ATOM     27  C   UNL     1      30.621  28.507  13.145  0.00  0.00    +0.066 C 
ENDBRANCH  19  20
ENDBRANCH  18  19
ENDBRANCH  14  15
ENDBRANCH  12  13
TORSDOF 6
ENDMDL
MODEL 3
REMARK VINA RESULT:      -8.8      3.896      8.044
REMARK  Name = C:\Users\Docking\Desktop\test protocol\1iep_ligandH.pdb
REMARK  8 active torsions:
REMARK  status: ('A' for Active; 'I' for Inactive)
REMARK    1  A    between atoms: _5  and  _11
REMARK    2  A    between atoms: _19  and  _21
REMARK    3  A    between atoms: _22  and  _66
REMARK    4  A    between atoms: _27  and  _30
REMARK    5  A    between atoms: _32  and  _33
REMARK    6  A    between atoms: _38  and  _43
REMARK    7  A    between atoms: _43  and  _46
REMARK    8  A    between atoms: _53  and  _55
REMARK                            x       y       z     vdW  Elec       q    Type
REMARK                         _______ _______ _______ _____ _____    ______ ____
ROOT
ATOM     10  C   UNL     1      14.922  23.137  14.710  0.00  0.00    +0.038 A 
ATOM     11  C   UNL     1      16.089  23.917  14.909  0.00  0.00    +0.047 A 
ATOM     12  C   UNL     1      17.365  23.521  14.333  0.00  0.00    +0.035 A 
ATOM     32  C   UNL     1      17.415  22.326  13.558  0.00  0.00    +0.024 A 
ATOM     33  C   UNL     1      16.238  21.520  13.347  0.00  0.00    +0.007 A 
ATOM     34  C   UNL     1      14.977  21.904  13.915  0.00  0.00    -0.029 A 
ATOM     35  C   UNL     1      13.750  20.999  13.662  0.00  0.00    +0.045 C 
ENDROOT
BRANCH  10   9
ATOM      4  C   UNL     1      11.945  23.584  18.449  0.00  0.00    +0.077 A 
ATOM      5  C   UNL     1      12.843  22.886  19.323  0.00  0.00    +0.048 A 
ATOM      6  C   UNL     1      14.057  22.421  18.770  0.00  0.00    +0.116 A 
ATOM      7  N   UNL     1      14.342  22.644  17.440  0.00  0.00    -0.223 NA
ATOM      8  C   UNL     1      13.453  23.320  16.624  0.00  0.00    +0.220 A 
ATOM      9  N   UNL     1      13.723  23.563  15.286  0.00  0.00    -0.283 N 
ATOM     36  H   UNL     1      13.038  24.059  14.716  0.00  0.00    +0.155 HD
ATOM     37  N   UNL     1      12.287  23.773  17.129  0.00  0.00    -0.214 NA
BRANCH   4   3
ATOM      1  C   UNL     1       8.905  25.980  19.014  0.00  0.00    +0.020 A 
ATOM      2  C   UNL     1      10.190  25.493  18.567  0.00  0.00    +0.013 A 
ATOM      3  C   UNL     1      10.625  24.139  18.887  0.00  0.00    +0.019 A 
ATOM     38  C   UNL     1       9.730  23.297  19.665  0.00  0.00    +0.120 A 
ATOM     39  N   UNL     1       8.499  23.793  20.083  0.00  0.00    -0.263 NA
ATOM     40  C   UNL     1       8.070  25.095  19.783  0.00  0.00    +0.111 A 
ENDBRANCH   4   3
ENDBRANCH  10   9
BRANCH  12  13
ATOM     13  N   UNL     1      18.586  24.269  14.507  0.00  0.00    -0.281 N 
ATOM     14  C   UNL     1      18.781  25.630  14.343  0.00  0.00    +0.248 C 
ATOM     30  O   UNL     1      17.980  26.384  13.811  0.00  0.00    -0.270 OA
ATOM     31  H   UNL     1      19.405  23.729  14.785  0.00  0.00    +0.155 HD
BRANCH  14  15
ATOM     15  C   UNL     1      20.057  26.240  14.827  0.00  0.00    +0.037 A 
ATOM     16  C   UNL     1      20.505  26.068  16.211  0.00  0.00    +0.013 A 
ATOM     17  C   UNL     1      21.731  26.681  16.656  0.00  0.00    +0.005 A 
ATOM     18  C   UNL     1      22.520  27.472  15.714  0.00  0.00    -0.033 A 
ATOM     28  C   UNL     1      22.055  27.622  14.345  0.00  0.00    +0.005 A 
ATOM     29  C   UNL     1      20.853  27.023  13.905  0.00  0.00    +0.013 A 
BRANCH  18  19
ATOM     19  C   UNL     1      23.830  28.180  16.108  0.00  0.00    +0.119 C 
BRANCH  19  20
ATOM     20  N   UNL     1      25.102  27.608  15.574  0.00  0.00    -0.302 NA
ATOM     21  C   UNL     1      25.448  26.268  16.228  0.00  0.00    +0.066 C 
ATOM     22  C   UNL     1      26.771  25.673  15.642  0.00  0.00    -0.064 C 
ATOM     23  N   UNL     1      27.907  26.679  15.834  0.00  0.00    +0.379 N 
ATOM     24  C   UNL     1      29.164  26.100  15.337  0.00  0.00    -0.096 C 
ATOM     25  H   UNL     1      28.024  26.852  16.929  0.00  0.00    -0.082 HD
ATOM     26  C   UNL     1      27.570  28.016  15.189  0.00  0.00    -0.064 C 
ATOM     27  C   UNL     1      26.239  28.583  15.757  0.00  0.00    +0.066 C 
ENDBRANCH  19  20
ENDBRANCH  18  19
ENDBRANCH  14  15
ENDBRANCH  12  13
TORSDOF 6
ENDMDL
MODEL 4
REMARK VINA RESULT:      -8.8      2.458     12.561
REMARK  Name = C:\Users\Docking\Desktop\test protocol\1iep_ligandH.pdb
REMARK  8 active torsions:
REMARK  status: ('A' for Active; 'I' for Inactive)
REMARK    1  A    between atoms: _5  and  _11
REMARK    2  A    between atoms: _19  and  _21
REMARK    3  A    between atoms: _22  and  _66
REMARK    4  A    between atoms: _27  and  _30
REMARK    5  A    between atoms: _32  and  _33
REMARK    6  A    between atoms: _38  and  _43
REMARK    7  A    between atoms: _43  and  _46
REMARK    8  A    between atoms: _53  and  _55
REMARK                            x       y       z     vdW  Elec       q    Type
REMARK                         _______ _______ _______ _____ _____    ______ ____
ROOT
ATOM     10  C   UNL     1      18.842  23.787  14.040  0.00  0.00    +0.038 A 
ATOM     11  C   UNL     1      17.782  23.861  14.980  0.00  0.00    +0.047 A 
ATOM     12  C   UNL     1      16.420  23.512  14.609  0.00  0.00    +0.035 A 
ATOM     32  C   UNL     1      16.173  23.087  13.271  0.00  0.00    +0.024 A 
ATOM     33  C   UNL     1      17.237  23.006  12.302  0.00  0.00    +0.007 A 
ATOM     34  C   UNL     1      18.583  23.352  12.662  0.00  0.00    -0.029 A 
ATOM     35  C   UNL     1      19.683  23.253  11.580  0.00  0.00    +0.045 C 
ENDROOT
BRANCH  10   9
ATOM      4  C   UNL     1      22.195  27.032  15.164  0.00  0.00    +0.077 A 
ATOM      5  C   UNL     1      21.312  28.128  14.883  0.00  0.00    +0.048 A 
ATOM      6  C   UNL     1      20.006  27.814  14.445  0.00  0.00    +0.116 A 
ATOM      7  N   UNL     1      19.622  26.498  14.302  0.00  0.00    -0.223 NA
ATOM      8  C   UNL     1      20.498  25.465  14.580  0.00  0.00    +0.220 A 
ATOM      9  N   UNL     1      20.130  24.134  14.451  0.00  0.00    -0.283 N 
ATOM     36  H   UNL     1      20.808  23.401  14.658  0.00  0.00    +0.155 HD
ATOM     37  N   UNL     1      21.751  25.739  14.998  0.00  0.00    -0.214 NA
BRANCH   4   3
ATOM      1  C   UNL     1      25.583  28.617  16.306  0.00  0.00    +0.020 A 
ATOM      2  C   UNL     1      24.218  28.508  15.846  0.00  0.00    +0.013 A 
ATOM      3  C   UNL     1      23.604  27.202  15.639  0.00  0.00    +0.019 A 
ATOM     38  C   UNL     1      24.405  26.018  15.908  0.00  0.00    +0.120 A 
ATOM     39  N   UNL     1      25.718  26.154  16.349  0.00  0.00    -0.263 NA
ATOM     40  C   UNL     1      26.320  27.405  16.551  0.00  0.00    +0.111 A 
ENDBRANCH   4   3
ENDBRANCH  10   9
BRANCH  12  13
ATOM     13  N   UNL     1      15.303  23.576  15.518  0.00  0.00    -0.281 N 
ATOM     14  C   UNL     1      15.019  22.731  16.578  0.00  0.00    +0.248 C 
ATOM     30  O   UNL     1      15.571  21.659  16.775  0.00  0.00    -0.270 OA
ATOM     31  H   UNL     1      14.642  24.336  15.361  0.00  0.00    +0.155 HD
BRANCH  14  15
ATOM     15  C   UNL     1      13.957  23.128  17.553  0.00  0.00    +0.037 A 
ATOM     16  C   UNL     1      12.565  23.303  17.131  0.00  0.00    +0.013 A 
ATOM     17  C   UNL     1      11.564  23.703  18.087  0.00  0.00    +0.005 A 
ATOM     18  C   UNL     1      11.952  23.928  19.478  0.00  0.00    -0.033 A 
ATOM     28  C   UNL     1      13.339  23.742  19.871  0.00  0.00    +0.005 A 
ATOM     29  C   UNL     1      14.323  23.351  18.935  0.00  0.00    +0.013 A 
BRANCH  18  19
ATOM     19  C   UNL     1      10.954  24.377  20.562  0.00  0.00    +0.119 C 
BRANCH  19  20
ATOM     20  N   UNL     1      10.203  25.644  20.318  0.00  0.00    -0.302 NA
ATOM     21  C   UNL     1      10.954  26.869  20.848  0.00  0.00    +0.066 C 
ATOM     22  C   UNL     1      10.164  28.188  20.563  0.00  0.00    -0.064 C 
ATOM     23  N   UNL     1       8.773  28.092  21.192  0.00  0.00    +0.379 N 
ATOM     24  C   UNL     1       8.049  29.353  20.977  0.00  0.00    -0.096 C 
ATOM     25  H   UNL     1       8.907  27.962  22.291  0.00  0.00    -0.082 HD
ATOM     26  C   UNL     1       8.020  26.875  20.673  0.00  0.00    -0.064 C 
ATOM     27  C   UNL     1       8.827  25.573  20.934  0.00  0.00    +0.066 C 
ENDBRANCH  19  20
ENDBRANCH  18  19
ENDBRANCH  14  15
ENDBRANCH  12  13
TORSDOF 6
ENDMDL
MODEL 5
REMARK VINA RESULT:      -8.7      9.232     16.665
REMARK  Name = C:\Users\Docking\Desktop\test protocol\1iep_ligandH.pdb
REMARK  8 active torsions:
REMARK  status: ('A' for Active; 'I' for Inactive)
REMARK    1  A    between atoms: _5  and  _11
REMARK    2  A    between atoms: _19  and  _21
REMARK    3  A    between atoms: _22  and  _66
REMARK    4  A    between atoms: _27  and  _30
REMARK    5  A    between atoms: _32  and  _33
REMARK    6  A    between atoms: _38  and  _43
REMARK    7  A    between atoms: _43  and  _46
REMARK    8  A    between atoms: _53  and  _55
REMARK                            x       y       z     vdW  Elec       q    Type
REMARK                         _______ _______ _______ _____ _____    ______ ____
ROOT
ATOM     10  C   UNL     1      25.924  27.712  16.157  0.00  0.00    +0.038 A 
ATOM     11  C   UNL     1      24.745  27.187  15.570  0.00  0.00    +0.047 A 
ATOM     12  C   UNL     1      23.644  26.706  16.391  0.00  0.00    +0.035 A 
ATOM     32  C   UNL     1      23.778  26.778  17.809  0.00  0.00    +0.024 A 
ATOM     33  C   UNL     1      24.970  27.308  18.422  0.00  0.00    +0.007 A 
ATOM     34  C   UNL     1      26.060  27.782  17.617  0.00  0.00    -0.029 A 
ATOM     35  C   UNL     1      27.316  28.334  18.329  0.00  0.00    +0.045 C 
ENDROOT
BRANCH  10   9
ATOM      4  C   UNL     1      30.126  27.110  13.918  0.00  0.00    +0.077 A 
ATOM      5  C   UNL     1      30.308  25.804  14.484  0.00  0.00    +0.048 A 
ATOM      6  C   UNL     1      29.300  25.327  15.352  0.00  0.00    +0.116 A 
ATOM      7  N   UNL     1      28.197  26.106  15.626  0.00  0.00    -0.223 NA
ATOM      8  C   UNL     1      28.054  27.362  15.065  0.00  0.00    +0.220 A 
ATOM      9  N   UNL     1      26.949  28.159  15.321  0.00  0.00    -0.283 N 
ATOM     36  H   UNL     1      26.884  29.083  14.893  0.00  0.00    +0.155 HD
ATOM     37  N   UNL     1      29.003  27.841  14.234  0.00  0.00    -0.214 NA
BRANCH   4   3
ATOM      1  C   UNL     1      31.955  28.295  10.670  0.00  0.00    +0.020 A 
ATOM      2  C   UNL     1      30.986  27.657  11.531  0.00  0.00    +0.013 A 
ATOM      3  C   UNL     1      31.102  27.751  12.981  0.00  0.00    +0.019 A 
ATOM     38  C   UNL     1      32.218  28.504  13.532  0.00  0.00    +0.120 A 
ATOM     39  N   UNL     1      33.137  29.107  12.678  0.00  0.00    -0.263 NA
ATOM     40  C   UNL     1      33.037  29.022  11.281  0.00  0.00    +0.111 A 
ENDBRANCH   4   3
ENDBRANCH  10   9
BRANCH  12  13
ATOM     13  N   UNL     1      22.426  26.155  15.852  0.00  0.00    -0.281 N 
ATOM     14  C   UNL     1      21.473  26.794  15.075  0.00  0.00    +0.248 C 
ATOM     30  O   UNL     1      21.418  28.003  14.905  0.00  0.00    -0.270 OA
ATOM     31  H   UNL     1      22.244  25.175  16.068  0.00  0.00    +0.155 HD
BRANCH  14  15
ATOM     15  C   UNL     1      20.421  25.973  14.403  0.00  0.00    +0.037 A 
ATOM     16  C   UNL     1      20.741  24.682  13.789  0.00  0.00    +0.013 A 
ATOM     17  C   UNL     1      19.710  23.918  13.132  0.00  0.00    +0.005 A 
ATOM     18  C   UNL     1      18.348  24.443  13.088  0.00  0.00    -0.033 A 
ATOM     28  C   UNL     1      18.057  25.724  13.709  0.00  0.00    +0.005 A 
ATOM     29  C   UNL     1      19.065  26.477  14.353  0.00  0.00    +0.013 A 
BRANCH  18  19
ATOM     19  C   UNL     1      17.189  23.706  12.390  0.00  0.00    +0.119 C 
BRANCH  19  20
ATOM     20  N   UNL     1      16.560  22.569  13.126  0.00  0.00    -0.302 NA
ATOM     21  C   UNL     1      17.189  21.224  12.752  0.00  0.00    +0.066 C 
ATOM     22  C   UNL     1      16.534  20.049  13.549  0.00  0.00    -0.064 C 
ATOM     23  N   UNL     1      15.027  20.035  13.285  0.00  0.00    +0.379 N 
ATOM     24  C   UNL     1      14.417  18.896  13.986  0.00  0.00    -0.096 C 
ATOM     25  H   UNL     1      14.877  19.879  12.191  0.00  0.00    -0.082 HD
ATOM     26  C   UNL     1      14.394  21.370  13.651  0.00  0.00    -0.064 C 
ATOM     27  C   UNL     1      15.072  22.534  12.876  0.00  0.00    +0.066 C 
ENDBRANCH  19  20
ENDBRANCH  18  19
ENDBRANCH  14  15
ENDBRANCH  12  13
TORSDOF 6
ENDMDL
