MODEL 1
REMARK VINA RESULT:      -8.5      0.000      0.000
REMARK  Name = C:\Users\Docking\Desktop\test protocol\1iep_ligandH.pdb
REMARK  8 active torsions:
REMARK  status: ('A' for Active; 'I' for Inactive)
REMARK    1  A    between atoms: _5  and  _11
REMARK    2  A    between atoms: _19  and  _21
REMARK    3  A    between atoms: _22  and  _66
REMARK    4  A    between atoms: _27  and  _30
REMARK    5  A    between atoms: _32  and  _33
REMARK    6  A    between atoms: _38  and  _43
REMARK    7  A    between atoms: _43  and  _46
REMARK    8  A    between atoms: _53  and  _55
REMARK                            x       y       z     vdW  Elec       q    Type
REMARK                         _______ _______ _______ _____ _____    ______ ____
ROOT
ATOM     10  C   UNL     1      19.820  25.236  14.700  0.00  0.00    +0.038 A 
ATOM     11  C   UNL     1      21.203  25.544  14.771  0.00  0.00    +0.047 A 
ATOM     12  C   UNL     1      21.667  26.922  14.797  0.00  0.00    +0.035 A 
ATOM     32  C   UNL     1      20.694  27.963  14.752  0.00  0.00    +0.024 A 
ATOM     33  C   UNL     1      19.285  27.669  14.679  0.00  0.00    +0.007 A 
ATOM     34  C   UNL     1      18.821  26.311  14.650  0.00  0.00    -0.029 A 
ATOM     35  C   UNL     1      17.299  26.054  14.564  0.00  0.00    +0.045 C 
ENDROOT
BRANCH  10   9
ATOM      4  C   UNL     1      18.454  21.263  12.379  0.00  0.00    +0.077 A 
ATOM      5  C   UNL     1      18.494  21.923  11.105  0.00  0.00    +0.048 A 
ATOM      6  C   UNL     1      18.864  23.286  11.092  0.00  0.00    +0.116 A 
ATOM      7  N   UNL     1      19.170  23.932  12.270  0.00  0.00    -0.223 NA
ATOM      8  C   UNL     1      19.120  23.267  13.481  0.00  0.00    +0.220 A 
ATOM      9  N   UNL     1      19.431  23.895  14.678  0.00  0.00    -0.283 N 
ATOM     36  H   UNL     1      19.374  23.372  15.551  0.00  0.00    +0.155 HD
ATOM     37  N   UNL     1      18.768  21.966  13.521  0.00  0.00    -0.214 NA
BRANCH   4   3
ATOM      1  C   UNL     1      18.348  17.368  12.043  0.00  0.00    +0.020 A 
ATOM      2  C   UNL     1      18.743  18.742  11.834  0.00  0.00    +0.013 A 
ATOM      3  C   UNL     1      18.085  19.824  12.556  0.00  0.00    +0.019 A 
ATOM     38  C   UNL     1      17.024  19.478  13.491  0.00  0.00    +0.120 A 
ATOM     39  N   UNL     1      16.665  18.146  13.670  0.00  0.00    -0.263 NA
ATOM     40  C   UNL     1      17.289  17.097  12.979  0.00  0.00    +0.111 A 
ENDBRANCH   4   3
ENDBRANCH  10   9
BRANCH  12  13
ATOM     13  N   UNL     1      23.058  27.295  14.861  0.00  0.00    -0.281 N 
ATOM     14  C   UNL     1      24.008  26.886  15.782  0.00  0.00    +0.248 C 
ATOM     30  O   UNL     1      23.754  26.300  16.823  0.00  0.00    -0.270 OA
ATOM     31  H   UNL     1      23.382  27.940  14.139  0.00  0.00    +0.155 HD
BRANCH  14  15
ATOM     15  C   UNL     1      25.449  27.183  15.514  0.00  0.00    +0.037 A 
ATOM     16  C   UNL     1      26.483  26.163  15.703  0.00  0.00    +0.013 A 
ATOM     17  C   UNL     1      27.867  26.481  15.454  0.00  0.00    +0.005 A 
ATOM     18  C   UNL     1      28.224  27.827  15.011  0.00  0.00    -0.033 A 
ATOM     28  C   UNL     1      27.177  28.818  14.826  0.00  0.00    +0.005 A 
ATOM     29  C   UNL     1      25.820  28.510  15.070  0.00  0.00    +0.013 A 
BRANCH  18  19
ATOM     19  C   UNL     1      29.677  28.260  14.742  0.00  0.00    +0.119 C 
BRANCH  19  20
ATOM     20  N   UNL     1      30.006  28.728  13.362  0.00  0.00    -0.302 NA
ATOM     21  C   UNL     1      30.565  27.599  12.491  0.00  0.00    +0.066 C 
ATOM     22  C   UNL     1      30.883  28.100  11.045  0.00  0.00    -0.064 C 
ATOM     23  N   UNL     1      31.870  29.266  11.118  0.00  0.00    +0.379 N 
ATOM     24  C   UNL     1      32.216  29.702   9.757  0.00  0.00    -0.096 C 
ATOM     25  H   UNL     1      32.802  28.891  11.600  0.00  0.00    -0.082 HD
ATOM     26  C   UNL     1      31.323  30.392  11.984  0.00  0.00    -0.064 C 
ATOM     27  C   UNL     1      30.983  29.877  13.410  0.00  0.00    +0.066 C 
ENDBRANCH  19  20
ENDBRANCH  18  19
ENDBRANCH  14  15
ENDBRANCH  12  13
TORSDOF 6
ENDMDL
MODEL 2
REMARK VINA RESULT:      -8.5      1.267      1.796
REMARK  Name = C:\Users\Docking\Desktop\test protocol\1iep_ligandH.pdb
REMARK  8 active torsions:
REMARK  status: ('A' for Active; 'I' for Inactive)
REMARK    1  A    between atoms: _5  and  _11
REMARK    2  A    between atoms: _19  and  _21
REMARK    3  A    between atoms: _22  and  _66
REMARK    4  A    between atoms: _27  and  _30
REMARK    5  A    between atoms: _32  and  _33
REMARK    6  A    between atoms: _38  and  _43
REMARK    7  A    between atoms: _43  and  _46
REMARK    8  A    between atoms: _53  and  _55
REMARK                            x       y       z     vdW  Elec       q    Type
REMARK                         _______ _______ _______ _____ _____    ______ ____
ROOT
ATOM     10  C   UNL     1      19.664  25.174  14.663  0.00  0.00    +0.038 A 
ATOM     11  C   UNL     1      21.056  25.438  14.735  0.00  0.00    +0.047 A 
ATOM     12  C   UNL     1      21.565  26.800  14.730  0.00  0.00    +0.035 A 
ATOM     32  C   UNL     1      20.628  27.871  14.654  0.00  0.00    +0.024 A 
ATOM     33  C   UNL     1      19.210  27.622  14.579  0.00  0.00    +0.007 A 
ATOM     34  C   UNL     1      18.702  26.279  14.580  0.00  0.00    -0.029 A 
ATOM     35  C   UNL     1      17.172  26.071  14.491  0.00  0.00    +0.045 C 
ENDROOT
BRANCH  10   9
ATOM      4  C   UNL     1      18.340  21.140  12.424  0.00  0.00    +0.077 A 
ATOM      5  C   UNL     1      18.499  21.736  11.129  0.00  0.00    +0.048 A 
ATOM      6  C   UNL     1      18.917  23.085  11.083  0.00  0.00    +0.116 A 
ATOM      7  N   UNL     1      19.155  23.777  12.251  0.00  0.00    -0.223 NA
ATOM      8  C   UNL     1      18.990  23.172  13.484  0.00  0.00    +0.220 A 
ATOM      9  N   UNL     1      19.231  23.846  14.671  0.00  0.00    -0.283 N 
ATOM     36  H   UNL     1      19.090  23.368  15.560  0.00  0.00    +0.155 HD
ATOM     37  N   UNL     1      18.590  21.886  13.555  0.00  0.00    -0.214 NA
BRANCH   4   3
ATOM      1  C   UNL     1      17.960  17.262  12.084  0.00  0.00    +0.020 A 
ATOM      2  C   UNL     1      18.409  18.613  11.837  0.00  0.00    +0.013 A 
ATOM      3  C   UNL     1      17.908  19.723  12.638  0.00  0.00    +0.019 A 
ATOM     38  C   UNL     1      16.947  19.429  13.690  0.00  0.00    +0.120 A 
ATOM     39  N   UNL     1      16.531  18.119  13.904  0.00  0.00    -0.263 NA
ATOM     40  C   UNL     1      17.005  17.043  13.139  0.00  0.00    +0.111 A 
ENDBRANCH   4   3
ENDBRANCH  10   9
BRANCH  12  13
ATOM     13  N   UNL     1      22.968  27.129  14.793  0.00  0.00    -0.281 N 
ATOM     14  C   UNL     1      23.857  26.873  15.824  0.00  0.00    +0.248 C 
ATOM     30  O   UNL     1      23.530  26.510  16.944  0.00  0.00    -0.270 OA
ATOM     31  H   UNL     1      23.352  27.609  13.979  0.00  0.00    +0.155 HD
BRANCH  14  15
ATOM     15  C   UNL     1      25.319  27.061  15.580  0.00  0.00    +0.037 A 
ATOM     16  C   UNL     1      25.823  28.220  14.838  0.00  0.00    +0.013 A 
ATOM     17  C   UNL     1      27.237  28.368  14.601  0.00  0.00    +0.005 A 
ATOM     18  C   UNL     1      28.159  27.354  15.109  0.00  0.00    -0.033 A 
ATOM     28  C   UNL     1      27.632  26.218  15.847  0.00  0.00    +0.005 A 
ATOM     29  C   UNL     1      26.247  26.068  16.079  0.00  0.00    +0.013 A 
BRANCH  18  19
ATOM     19  C   UNL     1      29.681  27.421  14.885  0.00  0.00    +0.119 C 
BRANCH  19  20
ATOM     20  N   UNL     1      30.248  26.578  13.791  0.00  0.00    -0.302 NA
ATOM     21  C   UNL     1      31.305  25.598  14.309  0.00  0.00    +0.066 C 
ATOM     22  C   UNL     1      31.871  24.709  13.154  0.00  0.00    -0.064 C 
ATOM     23  N   UNL     1      32.455  25.608  12.062  0.00  0.00    +0.379 N 
ATOM     24  C   UNL     1      33.041  24.774  11.002  0.00  0.00    -0.096 C 
ATOM     25  H   UNL     1      33.280  26.203  12.520  0.00  0.00    -0.082 HD
ATOM     26  C   UNL     1      31.413  26.588  11.544  0.00  0.00    -0.064 C 
ATOM     27  C   UNL     1      30.834  27.445  12.704  0.00  0.00    +0.066 C 
ENDBRANCH  19  20
ENDBRANCH  18  19
ENDBRANCH  14  15
ENDBRANCH  12  13
TORSDOF 6
ENDMDL
MODEL 3
REMARK VINA RESULT:      -8.3      8.086     16.020
REMARK  Name = C:\Users\Docking\Desktop\test protocol\1iep_ligandH.pdb
REMARK  8 active torsions:
REMARK  status: ('A' for Active; 'I' for Inactive)
REMARK    1  A    between atoms: _5  and  _11
REMARK    2  A    between atoms: _19  and  _21
REMARK    3  A    between atoms: _22  and  _66
REMARK    4  A    between atoms: _27  and  _30
REMARK    5  A    between atoms: _32  and  _33
REMARK    6  A    between atoms: _38  and  _43
REMARK    7  A    between atoms: _43  and  _46
REMARK    8  A    between atoms: _53  and  _55
REMARK                            x       y       z     vdW  Elec       q    Type
REMARK                         _______ _______ _______ _____ _____    ______ ____
ROOT
ATOM     10  C   UNL     1      13.892  22.187  16.037  0.00  0.00    +0.038 A 
ATOM     11  C   UNL     1      12.904  22.205  15.019  0.00  0.00    +0.047 A 
ATOM     12  C   UNL     1      11.932  21.130  14.895  0.00  0.00    +0.035 A 
ATOM     32  C   UNL     1      11.994  20.053  15.827  0.00  0.00    +0.024 A 
ATOM     33  C   UNL     1      12.992  20.018  16.866  0.00  0.00    +0.007 A 
ATOM     34  C   UNL     1      13.955  21.074  16.992  0.00  0.00    -0.029 A 
ATOM     35  C   UNL     1      15.007  20.982  18.122  0.00  0.00    +0.045 C 
ENDROOT
BRANCH  10   9
ATOM      4  C   UNL     1      17.961  24.371  14.727  0.00  0.00    +0.077 A 
ATOM      5  C   UNL     1      18.320  23.301  13.842  0.00  0.00    +0.048 A 
ATOM      6  C   UNL     1      17.434  22.203  13.758  0.00  0.00    +0.116 A 
ATOM      7  N   UNL     1      16.278  22.188  14.508  0.00  0.00    -0.223 NA
ATOM      8  C   UNL     1      15.962  23.236  15.353  0.00  0.00    +0.220 A 
ATOM      9  N   UNL     1      14.801  23.246  16.110  0.00  0.00    -0.283 N 
ATOM     36  H   UNL     1      14.608  24.034  16.727  0.00  0.00    +0.155 HD
ATOM     37  N   UNL     1      16.792  24.295  15.451  0.00  0.00    -0.214 NA
BRANCH   4   3
ATOM      1  C   UNL     1      19.868  27.727  14.093  0.00  0.00    +0.020 A 
ATOM      2  C   UNL     1      19.059  26.555  13.852  0.00  0.00    +0.013 A 
ATOM      3  C   UNL     1      18.792  25.601  14.921  0.00  0.00    +0.019 A 
ATOM     38  C   UNL     1      19.363  25.866  16.234  0.00  0.00    +0.120 A 
ATOM     39  N   UNL     1      20.139  27.002  16.436  0.00  0.00    -0.263 NA
ATOM     40  C   UNL     1      20.404  27.926  15.414  0.00  0.00    +0.111 A 
ENDBRANCH   4   3
ENDBRANCH  10   9
BRANCH  12  13
ATOM     13  N   UNL     1      10.912  21.090  13.878  0.00  0.00    -0.281 N 
ATOM     14  C   UNL     1       9.546  21.264  14.034  0.00  0.00    +0.248 C 
ATOM     30  O   UNL     1       8.969  21.269  15.111  0.00  0.00    -0.270 OA
ATOM     31  H   UNL     1      11.235  20.912  12.927  0.00  0.00    +0.155 HD
BRANCH  14  15
ATOM     15  C   UNL     1       8.697  21.445  12.817  0.00  0.00    +0.037 A 
ATOM     16  C   UNL     1       7.777  22.578  12.694  0.00  0.00    +0.013 A 
ATOM     17  C   UNL     1       6.957  22.719  11.517  0.00  0.00    +0.005 A 
ATOM     18  C   UNL     1       7.056  21.724  10.452  0.00  0.00    -0.033 A 
ATOM     28  C   UNL     1       7.981  20.613  10.598  0.00  0.00    +0.005 A 
ATOM     29  C   UNL     1       8.785  20.471  11.750  0.00  0.00    +0.013 A 
BRANCH  18  19
ATOM     19  C   UNL     1       6.204  21.783   9.170  0.00  0.00    +0.119 C 
BRANCH  19  20
ATOM     20  N   UNL     1       6.916  22.068   7.888  0.00  0.00    -0.302 NA
ATOM     21  C   UNL     1       7.474  23.494   7.846  0.00  0.00    +0.066 C 
ATOM     22  C   UNL     1       8.235  23.767   6.508  0.00  0.00    -0.064 C 
ATOM     23  N   UNL     1       7.293  23.519   5.328  0.00  0.00    +0.379 N 
ATOM     24  C   UNL     1       7.988  23.831   4.071  0.00  0.00    -0.096 C 
ATOM     25  H   UNL     1       6.436  24.225   5.426  0.00  0.00    -0.082 HD
ATOM     26  C   UNL     1       6.731  22.104   5.365  0.00  0.00    -0.064 C 
ATOM     27  C   UNL     1       6.002  21.833   6.711  0.00  0.00    +0.066 C 
ENDBRANCH  19  20
ENDBRANCH  18  19
ENDBRANCH  14  15
ENDBRANCH  12  13
TORSDOF 6
ENDMDL
MODEL 4
REMARK VINA RESULT:      -8.3      7.532     15.777
REMARK  Name = C:\Users\Docking\Desktop\test protocol\1iep_ligandH.pdb
REMARK  8 active torsions:
REMARK  status: ('A' for Active; 'I' for Inactive)
REMARK    1  A    between atoms: _5  and  _11
REMARK    2  A    between atoms: _19  and  _21
REMARK    3  A    between atoms: _22  and  _66
REMARK    4  A    between atoms: _27  and  _30
REMARK    5  A    between atoms: _32  and  _33
REMARK    6  A    between atoms: _38  and  _43
REMARK    7  A    between atoms: _43  and  _46
REMARK    8  A    between atoms: _53  and  _55
REMARK                            x       y       z     vdW  Elec       q    Type
REMARK                         _______ _______ _______ _____ _____    ______ ____
ROOT
ATOM     10  C   UNL     1      15.000  21.044  14.716  0.00  0.00    +0.038 A 
ATOM     11  C   UNL     1      13.780  21.242  14.019  0.00  0.00    +0.047 A 
ATOM     12  C   UNL     1      12.883  20.131  13.741  0.00  0.00    +0.035 A 
ATOM     32  C   UNL     1      13.259  18.831  14.189  0.00  0.00    +0.024 A 
ATOM     33  C   UNL     1      14.495  18.612  14.898  0.00  0.00    +0.007 A 
ATOM     34  C   UNL     1      15.385  19.703  15.173  0.00  0.00    -0.029 A 
ATOM     35  C   UNL     1      16.701  19.408  15.930  0.00  0.00    +0.045 C 
ENDROOT
BRANCH  10   9
ATOM      4  C   UNL     1      18.457  24.108  13.412  0.00  0.00    +0.077 A 
ATOM      5  C   UNL     1      18.658  23.440  12.159  0.00  0.00    +0.048 A 
ATOM      6  C   UNL     1      17.856  22.308  11.891  0.00  0.00    +0.116 A 
ATOM      7  N   UNL     1      16.926  21.884  12.815  0.00  0.00    -0.223 NA
ATOM      8  C   UNL     1      16.759  22.550  14.015  0.00  0.00    +0.220 A 
ATOM      9  N   UNL     1      15.823  22.146  14.955  0.00  0.00    -0.283 N 
ATOM     36  H   UNL     1      15.736  22.660  15.832  0.00  0.00    +0.155 HD
ATOM     37  N   UNL     1      17.513  23.633  14.295  0.00  0.00    -0.214 NA
BRANCH   4   3
ATOM      1  C   UNL     1      21.350  26.496  14.520  0.00  0.00    +0.020 A 
ATOM      2  C   UNL     1      20.656  25.297  14.111  0.00  0.00    +0.013 A 
ATOM      3  C   UNL     1      19.224  25.321  13.839  0.00  0.00    +0.019 A 
ATOM     38  C   UNL     1      18.519  26.584  13.991  0.00  0.00    +0.120 A 
ATOM     39  N   UNL     1      19.213  27.723  14.387  0.00  0.00    -0.263 NA
ATOM     40  C   UNL     1      20.591  27.712  14.653  0.00  0.00    +0.111 A 
ENDBRANCH   4   3
ENDBRANCH  10   9
BRANCH  12  13
ATOM     13  N   UNL     1      11.636  20.271  13.031  0.00  0.00    -0.281 N 
ATOM     14  C   UNL     1      10.376  20.500  13.560  0.00  0.00    +0.248 C 
ATOM     30  O   UNL     1      10.097  20.408  14.746  0.00  0.00    -0.270 OA
ATOM     31  H   UNL     1      11.688  20.190  12.016  0.00  0.00    +0.155 HD
BRANCH  14  15
ATOM     15  C   UNL     1       9.262  20.873  12.636  0.00  0.00    +0.037 A 
ATOM     16  C   UNL     1       8.422  22.046  12.892  0.00  0.00    +0.013 A 
ATOM     17  C   UNL     1       7.343  22.372  11.994  0.00  0.00    +0.005 A 
ATOM     18  C   UNL     1       7.099  21.525  10.829  0.00  0.00    -0.033 A 
ATOM     28  C   UNL     1       7.951  20.370  10.597  0.00  0.00    +0.005 A 
ATOM     29  C   UNL     1       9.009  20.046  11.476  0.00  0.00    +0.013 A 
BRANCH  18  19
ATOM     19  C   UNL     1       5.957  21.786   9.829  0.00  0.00    +0.119 C 
BRANCH  19  20
ATOM     20  N   UNL     1       6.321  22.418   8.526  0.00  0.00    -0.302 NA
ATOM     21  C   UNL     1       6.376  21.395   7.388  0.00  0.00    +0.066 C 
ATOM     22  C   UNL     1       6.736  22.077   6.027  0.00  0.00    -0.064 C 
ATOM     23  N   UNL     1       8.072  22.809   6.164  0.00  0.00    +0.379 N 
ATOM     24  C   UNL     1       8.441  23.403   4.871  0.00  0.00    -0.096 C 
ATOM     25  H   UNL     1       8.848  22.051   6.422  0.00  0.00    -0.082 HD
ATOM     26  C   UNL     1       8.026  23.826   7.296  0.00  0.00    -0.064 C 
ATOM     27  C   UNL     1       7.639  23.142   8.637  0.00  0.00    +0.066 C 
ENDBRANCH  19  20
ENDBRANCH  18  19
ENDBRANCH  14  15
ENDBRANCH  12  13
TORSDOF 6
ENDMDL
MODEL 5
REMARK VINA RESULT:      -8.1      8.066     15.929
REMARK  Name = C:\Users\Docking\Desktop\test protocol\1iep_ligandH.pdb
REMARK  8 active torsions:
REMARK  status: ('A' for Active; 'I' for Inactive)
REMARK    1  A    between atoms: _5  and  _11
REMARK    2  A    between atoms: _19  and  _21
REMARK    3  A    between atoms: _22  and  _66
REMARK    4  A    between atoms: _27  and  _30
REMARK    5  A    between atoms: _32  and  _33
REMARK    6  A    between atoms: _38  and  _43
REMARK    7  A    between atoms: _43  and  _46
REMARK    8  A    between atoms: _53  and  _55
REMARK                            x       y       z     vdW  Elec       q    Type
REMARK                         _______ _______ _______ _____ _____    ______ ____
ROOT
ATOM     10  C   UNL     1      16.354  22.849  14.995  0.00  0.00    +0.038 A 
ATOM     11  C   UNL     1      15.174  23.233  15.682  0.00  0.00    +0.047 A 
ATOM     12  C   UNL     1      13.867  22.762  15.254  0.00  0.00    +0.035 A 
ATOM     32  C   UNL     1      13.797  21.898  14.122  0.00  0.00    +0.024 A 
ATOM     33  C   UNL     1      14.986  21.498  13.411  0.00  0.00    +0.007 A 
ATOM     34  C   UNL     1      16.279  21.962  13.828  0.00  0.00    -0.029 A 
ATOM     35  C   UNL     1      17.519  21.507  13.024  0.00  0.00    +0.045 C 
ENDROOT
BRANCH  10   9
ATOM      4  C   UNL     1      19.785  26.202  15.164  0.00  0.00    +0.077 A 
ATOM      5  C   UNL     1      19.082  27.052  14.248  0.00  0.00    +0.048 A 
ATOM      6  C   UNL     1      17.843  26.587  13.750  0.00  0.00    +0.116 A 
ATOM      7  N   UNL     1      17.355  25.361  14.147  0.00  0.00    -0.223 NA
ATOM      8  C   UNL     1      18.060  24.565  15.031  0.00  0.00    +0.220 A 
ATOM      9  N   UNL     1      17.583  23.332  15.450  0.00  0.00    -0.283 N 
ATOM     36  H   UNL     1      18.137  22.771  16.097  0.00  0.00    +0.155 HD
ATOM     37  N   UNL     1      19.245  24.986  15.519  0.00  0.00    -0.214 NA
BRANCH   4   3
ATOM      1  C   UNL     1      23.557  27.127  15.633  0.00  0.00    +0.020 A 
ATOM      2  C   UNL     1      22.308  26.788  14.991  0.00  0.00    +0.013 A 
ATOM      3  C   UNL     1      21.104  26.555  15.778  0.00  0.00    +0.019 A 
ATOM     38  C   UNL     1      21.198  26.675  17.225  0.00  0.00    +0.120 A 
ATOM     39  N   UNL     1      22.414  27.002  17.817  0.00  0.00    -0.263 NA
ATOM     40  C   UNL     1      23.580  27.226  17.069  0.00  0.00    +0.111 A 
ENDBRANCH   4   3
ENDBRANCH  10   9
BRANCH  12  13
ATOM     13  N   UNL     1      12.634  23.125  15.907  0.00  0.00    -0.281 N 
ATOM     14  C   UNL     1      11.994  22.467  16.945  0.00  0.00    +0.248 C 
ATOM     30  O   UNL     1      12.278  21.342  17.329  0.00  0.00    -0.270 OA
ATOM     31  H   UNL     1      12.176  23.969  15.562  0.00  0.00    +0.155 HD
BRANCH  14  15
ATOM     15  C   UNL     1      10.868  23.152  17.649  0.00  0.00    +0.037 A 
ATOM     16  C   UNL     1       9.491  22.666  17.532  0.00  0.00    +0.013 A 
ATOM     17  C   UNL     1       8.421  23.356  18.208  0.00  0.00    +0.005 A 
ATOM     18  C   UNL     1       8.724  24.539  19.009  0.00  0.00    -0.033 A 
ATOM     28  C   UNL     1      10.100  24.996  19.113  0.00  0.00    +0.005 A 
ATOM     29  C   UNL     1      11.152  24.323  18.451  0.00  0.00    +0.013 A 
BRANCH  18  19
ATOM     19  C   UNL     1       7.643  25.350  19.748  0.00  0.00    +0.119 C 
BRANCH  19  20
ATOM     20  N   UNL     1       7.183  24.831  21.070  0.00  0.00    -0.302 NA
ATOM     21  C   UNL     1       5.871  24.049  20.957  0.00  0.00    +0.066 C 
ATOM     22  C   UNL     1       5.417  23.495  22.346  0.00  0.00    -0.064 C 
ATOM     23  N   UNL     1       5.273  24.655  23.333  0.00  0.00    +0.379 N 
ATOM     24  C   UNL     1       4.790  24.143  24.624  0.00  0.00    -0.096 C 
ATOM     25  H   UNL     1       4.496  25.346  22.931  0.00  0.00    -0.082 HD
ATOM     26  C   UNL     1       6.572  25.439  23.450  0.00  0.00    -0.064 C 
ATOM     27  C   UNL     1       7.030  25.960  22.059  0.00  0.00    +0.066 C 
ENDBRANCH  19  20
ENDBRANCH  18  19
ENDBRANCH  14  15
ENDBRANCH  12  13
TORSDOF 6
ENDMDL
