MODEL 1
REMARK VINA RESULT:      -8.7      0.000      0.000
REMARK  Name = C:\Users\Docking\Desktop\test protocol\1iep_ligandH.pdb
REMARK  8 active torsions:
REMARK  status: ('A' for Active; 'I' for Inactive)
REMARK    1  A    between atoms: _5  and  _11
REMARK    2  A    between atoms: _19  and  _21
REMARK    3  A    between atoms: _22  and  _66
REMARK    4  A    between atoms: _27  and  _30
REMARK    5  A    between atoms: _32  and  _33
REMARK    6  A    between atoms: _38  and  _43
REMARK    7  A    between atoms: _43  and  _46
REMARK    8  A    between atoms: _53  and  _55
REMARK                            x       y       z     vdW  Elec       q    Type
REMARK                         _______ _______ _______ _____ _____    ______ ____
ROOT
ATOM     10  C   UNL     1       9.205  25.765  19.181  0.00  0.00    +0.038 A 
ATOM     11  C   UNL     1      10.443  25.461  18.560  0.00  0.00    +0.047 A 
ATOM     12  C   UNL     1      10.997  24.117  18.603  0.00  0.00    +0.035 A 
ATOM     32  C   UNL     1      10.261  23.105  19.285  0.00  0.00    +0.024 A 
ATOM     33  C   UNL     1       9.002  23.396  19.923  0.00  0.00    +0.007 A 
ATOM     34  C   UNL     1       8.451  24.721  19.886  0.00  0.00    -0.029 A 
ATOM     35  C   UNL     1       7.100  24.977  20.593  0.00  0.00    +0.045 C 
ENDROOT
BRANCH  10   9
ATOM      4  C   UNL     1       8.258  30.043  21.140  0.00  0.00    +0.077 A 
ATOM      5  C   UNL     1       8.746  29.629  22.424  0.00  0.00    +0.048 A 
ATOM      6  C   UNL     1       9.226  28.305  22.540  0.00  0.00    +0.116 A 
ATOM      7  N   UNL     1       9.214  27.466  21.447  0.00  0.00    -0.223 NA
ATOM      8  C   UNL     1       8.734  27.897  20.223  0.00  0.00    +0.220 A 
ATOM      9  N   UNL     1       8.720  27.073  19.108  0.00  0.00    -0.283 N 
ATOM     36  H   UNL     1       8.351  27.425  18.225  0.00  0.00    +0.155 HD
ATOM     37  N   UNL     1       8.269  29.156  20.087  0.00  0.00    -0.214 NA
BRANCH   4   3
ATOM      1  C   UNL     1       7.645  33.553  19.526  0.00  0.00    +0.020 A 
ATOM      2  C   UNL     1       8.196  32.237  19.755  0.00  0.00    +0.013 A 
ATOM      3  C   UNL     1       7.722  31.412  20.859  0.00  0.00    +0.019 A 
ATOM     38  C   UNL     1       6.679  31.952  21.718  0.00  0.00    +0.120 A 
ATOM     39  N   UNL     1       6.168  33.222  21.474  0.00  0.00    -0.263 NA
ATOM     40  C   UNL     1       6.618  34.026  20.417  0.00  0.00    +0.111 A 
ENDBRANCH   4   3
ENDBRANCH  10   9
BRANCH  12  13
ATOM     13  N   UNL     1      12.253  23.751  17.997  0.00  0.00    -0.281 N 
ATOM     14  C   UNL     1      12.467  22.895  16.929  0.00  0.00    +0.248 C 
ATOM     30  O   UNL     1      11.622  22.144  16.466  0.00  0.00    -0.270 OA
ATOM     31  H   UNL     1      13.087  24.175  18.406  0.00  0.00    +0.155 HD
BRANCH  14  15
ATOM     15  C   UNL     1      13.819  22.858  16.293  0.00  0.00    +0.037 A 
ATOM     16  C   UNL     1      14.995  22.395  17.034  0.00  0.00    +0.013 A 
ATOM     17  C   UNL     1      16.290  22.385  16.401  0.00  0.00    +0.005 A 
ATOM     18  C   UNL     1      16.416  22.839  15.018  0.00  0.00    -0.033 A 
ATOM     28  C   UNL     1      15.231  23.288  14.305  0.00  0.00    +0.005 A 
ATOM     29  C   UNL     1      13.960  23.300  14.922  0.00  0.00    +0.013 A 
BRANCH  18  19
ATOM     19  C   UNL     1      17.762  22.883  14.271  0.00  0.00    +0.119 C 
BRANCH  19  20
ATOM     20  N   UNL     1      18.732  23.945  14.671  0.00  0.00    -0.302 NA
ATOM     21  C   UNL     1      18.127  24.924  15.682  0.00  0.00    +0.066 C 
ATOM     22  C   UNL     1      19.163  26.016  16.107  0.00  0.00    -0.064 C 
ATOM     23  N   UNL     1      19.657  26.757  14.864  0.00  0.00    +0.379 N 
ATOM     24  C   UNL     1      20.587  27.823  15.265  0.00  0.00    -0.096 C 
ATOM     25  H   UNL     1      18.774  27.241  14.386  0.00  0.00    -0.082 HD
ATOM     26  C   UNL     1      20.257  25.791  13.852  0.00  0.00    -0.064 C 
ATOM     27  C   UNL     1      19.229  24.693  13.459  0.00  0.00    +0.066 C 
ENDBRANCH  19  20
ENDBRANCH  18  19
ENDBRANCH  14  15
ENDBRANCH  12  13
TORSDOF 6
ENDMDL
MODEL 2
REMARK VINA RESULT:      -8.5      8.030     12.083
REMARK  Name = C:\Users\Docking\Desktop\test protocol\1iep_ligandH.pdb
REMARK  8 active torsions:
REMARK  status: ('A' for Active; 'I' for Inactive)
REMARK    1  A    between atoms: _5  and  _11
REMARK    2  A    between atoms: _19  and  _21
REMARK    3  A    between atoms: _22  and  _66
REMARK    4  A    between atoms: _27  and  _30
REMARK    5  A    between atoms: _32  and  _33
REMARK    6  A    between atoms: _38  and  _43
REMARK    7  A    between atoms: _43  and  _46
REMARK    8  A    between atoms: _53  and  _55
REMARK                            x       y       z     vdW  Elec       q    Type
REMARK                         _______ _______ _______ _____ _____    ______ ____
ROOT
ATOM     10  C   UNL     1      14.973  20.752  14.737  0.00  0.00    +0.038 A 
ATOM     11  C   UNL     1      13.750  21.029  14.074  0.00  0.00    +0.047 A 
ATOM     12  C   UNL     1      12.874  19.955  13.633  0.00  0.00    +0.035 A 
ATOM     32  C   UNL     1      13.273  18.610  13.886  0.00  0.00    +0.024 A 
ATOM     33  C   UNL     1      14.513  18.311  14.557  0.00  0.00    +0.007 A 
ATOM     34  C   UNL     1      15.383  19.366  14.992  0.00  0.00    -0.029 A 
ATOM     35  C   UNL     1      16.704  18.986  15.701  0.00  0.00    +0.045 C 
ENDROOT
BRANCH  10   9
ATOM      4  C   UNL     1      18.479  23.938  13.963  0.00  0.00    +0.077 A 
ATOM      5  C   UNL     1      18.752  23.410  12.657  0.00  0.00    +0.048 A 
ATOM      6  C   UNL     1      17.972  22.313  12.225  0.00  0.00    +0.116 A 
ATOM      7  N   UNL     1      16.995  21.792  13.046  0.00  0.00    -0.223 NA
ATOM      8  C   UNL     1      16.759  22.325  14.300  0.00  0.00    +0.220 A 
ATOM      9  N   UNL     1      15.776  21.822  15.139  0.00  0.00    -0.283 N 
ATOM     36  H   UNL     1      15.638  22.238  16.060  0.00  0.00    +0.155 HD
ATOM     37  N   UNL     1      17.491  23.371  14.736  0.00  0.00    -0.214 NA
BRANCH   4   3
ATOM      1  C   UNL     1      20.698  27.131  14.389  0.00  0.00    +0.020 A 
ATOM      2  C   UNL     1      20.006  26.027  13.763  0.00  0.00    +0.013 A 
ATOM      3  C   UNL     1      19.215  25.097  14.559  0.00  0.00    +0.019 A 
ATOM     38  C   UNL     1      19.143  25.314  15.996  0.00  0.00    +0.120 A 
ATOM     39  N   UNL     1      19.821  26.385  16.571  0.00  0.00    -0.263 NA
ATOM     40  C   UNL     1      20.587  27.285  15.815  0.00  0.00    +0.111 A 
ENDBRANCH   4   3
ENDBRANCH  10   9
BRANCH  12  13
ATOM     13  N   UNL     1      11.624  20.175  12.948  0.00  0.00    -0.281 N 
ATOM     14  C   UNL     1      10.428  20.626  13.483  0.00  0.00    +0.248 C 
ATOM     30  O   UNL     1      10.192  20.707  14.679  0.00  0.00    -0.270 OA
ATOM     31  H   UNL     1      11.620  19.973  11.948  0.00  0.00    +0.155 HD
BRANCH  14  15
ATOM     15  C   UNL     1       9.330  21.034  12.554  0.00  0.00    +0.037 A 
ATOM     16  C   UNL     1       8.921  20.176  11.439  0.00  0.00    +0.013 A 
ATOM     17  C   UNL     1       7.871  20.600  10.547  0.00  0.00    +0.005 A 
ATOM     18  C   UNL     1       7.221  21.890  10.769  0.00  0.00    -0.033 A 
ATOM     28  C   UNL     1       7.643  22.719  11.886  0.00  0.00    +0.005 A 
ATOM     29  C   UNL     1       8.673  22.306  12.761  0.00  0.00    +0.013 A 
BRANCH  18  19
ATOM     19  C   UNL     1       6.106  22.433   9.856  0.00  0.00    +0.119 C 
BRANCH  19  20
ATOM     20  N   UNL     1       6.468  22.732   8.438  0.00  0.00    -0.302 NA
ATOM     21  C   UNL     1       7.799  23.481   8.331  0.00  0.00    +0.066 C 
ATOM     22  C   UNL     1       8.174  23.766   6.840  0.00  0.00    -0.064 C 
ATOM     23  N   UNL     1       7.049  24.563   6.178  0.00  0.00    +0.379 N 
ATOM     24  C   UNL     1       7.424  24.883   4.793  0.00  0.00    -0.096 C 
ATOM     25  H   UNL     1       6.946  25.526   6.731  0.00  0.00    -0.082 HD
ATOM     26  C   UNL     1       5.721  23.827   6.282  0.00  0.00    -0.064 C 
ATOM     27  C   UNL     1       5.373  23.522   7.766  0.00  0.00    +0.066 C 
ENDBRANCH  19  20
ENDBRANCH  18  19
ENDBRANCH  14  15
ENDBRANCH  12  13
TORSDOF 6
ENDMDL
MODEL 3
REMARK VINA RESULT:      -8.4      7.284     11.503
REMARK  Name = C:\Users\Docking\Desktop\test protocol\1iep_ligandH.pdb
REMARK  8 active torsions:
REMARK  status: ('A' for Active; 'I' for Inactive)
REMARK    1  A    between atoms: _5  and  _11
REMARK    2  A    between atoms: _19  and  _21
REMARK    3  A    between atoms: _22  and  _66
REMARK    4  A    between atoms: _27  and  _30
REMARK    5  A    between atoms: _32  and  _33
REMARK    6  A    between atoms: _38  and  _43
REMARK    7  A    between atoms: _43  and  _46
REMARK    8  A    between atoms: _53  and  _55
REMARK                            x       y       z     vdW  Elec       q    Type
REMARK                         _______ _______ _______ _____ _____    ______ ____
ROOT
ATOM     10  C   UNL     1      14.396  22.559  16.070  0.00  0.00    +0.038 A 
ATOM     11  C   UNL     1      13.404  22.562  15.057  0.00  0.00    +0.047 A 
ATOM     12  C   UNL     1      12.399  21.513  14.984  0.00  0.00    +0.035 A 
ATOM     32  C   UNL     1      12.432  20.477  15.962  0.00  0.00    +0.024 A 
ATOM     33  C   UNL     1      13.434  20.457  16.998  0.00  0.00    +0.007 A 
ATOM     34  C   UNL     1      14.430  21.487  17.073  0.00  0.00    -0.029 A 
ATOM     35  C   UNL     1      15.484  21.412  18.202  0.00  0.00    +0.045 C 
ENDROOT
BRANCH  10   9
ATOM      4  C   UNL     1      18.654  24.431  14.888  0.00  0.00    +0.077 A 
ATOM      5  C   UNL     1      19.049  23.243  14.188  0.00  0.00    +0.048 A 
ATOM      6  C   UNL     1      18.130  22.170  14.162  0.00  0.00    +0.116 A 
ATOM      7  N   UNL     1      16.910  22.288  14.792  0.00  0.00    -0.223 NA
ATOM      8  C   UNL     1      16.562  23.447  15.460  0.00  0.00    +0.220 A 
ATOM      9  N   UNL     1      15.337  23.591  16.093  0.00  0.00    -0.283 N 
ATOM     36  H   UNL     1      15.120  24.459  16.582  0.00  0.00    +0.155 HD
ATOM     37  N   UNL     1      17.422  24.486  15.500  0.00  0.00    -0.214 NA
BRANCH   4   3
ATOM      1  C   UNL     1      20.860  27.539  14.007  0.00  0.00    +0.020 A 
ATOM      2  C   UNL     1      20.034  26.365  13.842  0.00  0.00    +0.013 A 
ATOM      3  C   UNL     1      19.514  25.652  15.002  0.00  0.00    +0.019 A 
ATOM     38  C   UNL     1      19.851  26.156  16.324  0.00  0.00    +0.120 A 
ATOM     39  N   UNL     1      20.650  27.288  16.452  0.00  0.00    -0.263 NA
ATOM     40  C   UNL     1      21.157  27.982  15.344  0.00  0.00    +0.111 A 
ENDBRANCH   4   3
ENDBRANCH  10   9
BRANCH  12  13
ATOM     13  N   UNL     1      11.372  21.461  13.973  0.00  0.00    -0.281 N 
ATOM     14  C   UNL     1      10.008  21.295  14.152  0.00  0.00    +0.248 C 
ATOM     30  O   UNL     1       9.486  20.952  15.202  0.00  0.00    -0.270 OA
ATOM     31  H   UNL     1      11.689  21.557  13.008  0.00  0.00    +0.155 HD
BRANCH  14  15
ATOM     15  C   UNL     1       9.094  21.531  12.994  0.00  0.00    +0.037 A 
ATOM     16  C   UNL     1       8.915  20.520  11.949  0.00  0.00    +0.013 A 
ATOM     17  C   UNL     1       8.040  20.780  10.833  0.00  0.00    +0.005 A 
ATOM     18  C   UNL     1       7.336  22.057  10.758  0.00  0.00    -0.033 A 
ATOM     28  C   UNL     1       7.528  23.041  11.811  0.00  0.00    +0.005 A 
ATOM     29  C   UNL     1       8.385  22.790  12.905  0.00  0.00    +0.013 A 
BRANCH  18  19
ATOM     19  C   UNL     1       6.399  22.429   9.593  0.00  0.00    +0.119 C 
BRANCH  19  20
ATOM     20  N   UNL     1       7.022  22.629   8.251  0.00  0.00    -0.302 NA
ATOM     21  C   UNL     1       7.900  23.883   8.207  0.00  0.00    +0.066 C 
ATOM     22  C   UNL     1       8.562  24.065   6.803  0.00  0.00    -0.064 C 
ATOM     23  N   UNL     1       7.472  24.129   5.732  0.00  0.00    +0.379 N 
ATOM     24  C   UNL     1       8.089  24.359   4.417  0.00  0.00    -0.096 C 
ATOM     25  H   UNL     1       6.825  25.008   5.960  0.00  0.00    -0.082 HD
ATOM     26  C   UNL     1       6.593  22.887   5.771  0.00  0.00    -0.064 C 
ATOM     27  C   UNL     1       5.963  22.699   7.179  0.00  0.00    +0.066 C 
ENDBRANCH  19  20
ENDBRANCH  18  19
ENDBRANCH  14  15
ENDBRANCH  12  13
TORSDOF 6
ENDMDL
MODEL 4
REMARK VINA RESULT:      -8.3      3.565     12.714
REMARK  Name = C:\Users\Docking\Desktop\test protocol\1iep_ligandH.pdb
REMARK  8 active torsions:
REMARK  status: ('A' for Active; 'I' for Inactive)
REMARK    1  A    between atoms: _5  and  _11
REMARK    2  A    between atoms: _19  and  _21
REMARK    3  A    between atoms: _22  and  _66
REMARK    4  A    between atoms: _27  and  _30
REMARK    5  A    between atoms: _32  and  _33
REMARK    6  A    between atoms: _38  and  _43
REMARK    7  A    between atoms: _43  and  _46
REMARK    8  A    between atoms: _53  and  _55
REMARK                            x       y       z     vdW  Elec       q    Type
REMARK                         _______ _______ _______ _____ _____    ______ ____
ROOT
ATOM     10  C   UNL     1      10.329  25.950  20.225  0.00  0.00    +0.038 A 
ATOM     11  C   UNL     1       9.748  27.201  19.896  0.00  0.00    +0.047 A 
ATOM     12  C   UNL     1       8.728  27.803  20.741  0.00  0.00    +0.035 A 
ATOM     32  C   UNL     1       8.326  27.104  21.916  0.00  0.00    +0.024 A 
ATOM     33  C   UNL     1       8.905  25.831  22.265  0.00  0.00    +0.007 A 
ATOM     34  C   UNL     1       9.910  25.231  21.434  0.00  0.00    -0.029 A 
ATOM     35  C   UNL     1      10.492  23.861  21.854  0.00  0.00    +0.045 C 
ENDROOT
BRANCH  10   9
ATOM      4  C   UNL     1      11.806  22.787  16.931  0.00  0.00    +0.077 A 
ATOM      5  C   UNL     1      10.536  22.121  16.915  0.00  0.00    +0.048 A 
ATOM      6  C   UNL     1       9.532  22.618  17.775  0.00  0.00    +0.116 A 
ATOM      7  N   UNL     1       9.789  23.703  18.586  0.00  0.00    -0.223 NA
ATOM      8  C   UNL     1      11.026  24.322  18.577  0.00  0.00    +0.220 A 
ATOM      9  N   UNL     1      11.304  25.419  19.378  0.00  0.00    -0.283 N 
ATOM     36  H   UNL     1      12.231  25.842  19.348  0.00  0.00    +0.155 HD
ATOM     37  N   UNL     1      12.002  23.864  17.766  0.00  0.00    -0.214 NA
BRANCH   4   3
ATOM      1  C   UNL     1      14.528  22.710  14.122  0.00  0.00    +0.020 A 
ATOM      2  C   UNL     1      13.400  23.146  14.914  0.00  0.00    +0.013 A 
ATOM      3  C   UNL     1      12.967  22.381  16.076  0.00  0.00    +0.019 A 
ATOM     38  C   UNL     1      13.702  21.172  16.414  0.00  0.00    +0.120 A 
ATOM     39  N   UNL     1      14.783  20.776  15.633  0.00  0.00    -0.263 NA
ATOM     40  C   UNL     1      15.208  21.503  14.511  0.00  0.00    +0.111 A 
ENDBRANCH   4   3
ENDBRANCH  10   9
BRANCH  12  13
ATOM     13  N   UNL     1       8.096  29.067  20.453  0.00  0.00    -0.281 N 
ATOM     14  C   UNL     1       8.160  30.238  21.190  0.00  0.00    +0.248 C 
ATOM     30  O   UNL     1       8.599  30.316  22.327  0.00  0.00    -0.270 OA
ATOM     31  H   UNL     1       7.534  29.102  19.602  0.00  0.00    +0.155 HD
BRANCH  14  15
ATOM     15  C   UNL     1       7.649  31.503  20.580  0.00  0.00    +0.037 A 
ATOM     16  C   UNL     1       8.235  32.802  20.921  0.00  0.00    +0.013 A 
ATOM     17  C   UNL     1       7.711  34.009  20.331  0.00  0.00    +0.005 A 
ATOM     18  C   UNL     1       6.595  33.922  19.393  0.00  0.00    -0.033 A 
ATOM     28  C   UNL     1       6.036  32.620  19.069  0.00  0.00    +0.005 A 
ATOM     29  C   UNL     1       6.546  31.435  19.645  0.00  0.00    +0.013 A 
BRANCH  18  19
ATOM     19  C   UNL     1       5.959  35.159  18.732  0.00  0.00    +0.119 C 
BRANCH  19  20
ATOM     20  N   UNL     1       5.822  36.387  19.571  0.00  0.00    -0.302 NA
ATOM     21  C   UNL     1       4.682  36.266  20.586  0.00  0.00    +0.066 C 
ATOM     22  C   UNL     1       4.568  37.551  21.470  0.00  0.00    -0.064 C 
ATOM     23  N   UNL     1       4.363  38.770  20.568  0.00  0.00    +0.379 N 
ATOM     24  C   UNL     1       4.198  39.971  21.399  0.00  0.00    -0.096 C 
ATOM     25  H   UNL     1       3.415  38.616  20.002  0.00  0.00    -0.082 HD
ATOM     26  C   UNL     1       5.491  38.896  19.554  0.00  0.00    -0.064 C 
ATOM     27  C   UNL     1       5.615  37.603  18.701  0.00  0.00    +0.066 C 
ENDBRANCH  19  20
ENDBRANCH  18  19
ENDBRANCH  14  15
ENDBRANCH  12  13
TORSDOF 6
ENDMDL
MODEL 5
REMARK VINA RESULT:      -8.2      2.420     12.154
REMARK  Name = C:\Users\Docking\Desktop\test protocol\1iep_ligandH.pdb
REMARK  8 active torsions:
REMARK  status: ('A' for Active; 'I' for Inactive)
REMARK    1  A    between atoms: _5  and  _11
REMARK    2  A    between atoms: _19  and  _21
REMARK    3  A    between atoms: _22  and  _66
REMARK    4  A    between atoms: _27  and  _30
REMARK    5  A    between atoms: _32  and  _33
REMARK    6  A    between atoms: _38  and  _43
REMARK    7  A    between atoms: _43  and  _46
REMARK    8  A    between atoms: _53  and  _55
REMARK                            x       y       z     vdW  Elec       q    Type
REMARK                         _______ _______ _______ _____ _____    ______ ____
ROOT
ATOM     10  C   UNL     1      18.488  24.050  14.353  0.00  0.00    +0.038 A 
ATOM     11  C   UNL     1      17.407  24.081  15.270  0.00  0.00    +0.047 A 
ATOM     12  C   UNL     1      16.058  23.728  14.855  0.00  0.00    +0.035 A 
ATOM     32  C   UNL     1      15.847  23.345  13.499  0.00  0.00    +0.024 A 
ATOM     33  C   UNL     1      16.935  23.309  12.553  0.00  0.00    +0.007 A 
ATOM     34  C   UNL     1      18.267  23.659  12.956  0.00  0.00    -0.029 A 
ATOM     35  C   UNL     1      19.393  23.609  11.898  0.00  0.00    +0.045 C 
ENDROOT
BRANCH  10   9
ATOM      4  C   UNL     1      21.897  27.288  15.320  0.00  0.00    +0.077 A 
ATOM      5  C   UNL     1      21.080  28.373  14.860  0.00  0.00    +0.048 A 
ATOM      6  C   UNL     1      19.791  28.055  14.376  0.00  0.00    +0.116 A 
ATOM      7  N   UNL     1      19.362  26.746  14.358  0.00  0.00    -0.223 NA
ATOM      8  C   UNL     1      20.177  25.722  14.807  0.00  0.00    +0.220 A 
ATOM      9  N   UNL     1      19.763  24.399  14.805  0.00  0.00    -0.283 N 
ATOM     36  H   UNL     1      20.396  23.673  15.138  0.00  0.00    +0.155 HD
ATOM     37  N   UNL     1      21.412  26.000  15.273  0.00  0.00    -0.214 NA
BRANCH   4   3
ATOM      1  C   UNL     1      25.638  28.353  15.733  0.00  0.00    +0.020 A 
ATOM      2  C   UNL     1      24.318  28.213  15.164  0.00  0.00    +0.013 A 
ATOM      3  C   UNL     1      23.281  27.464  15.863  0.00  0.00    +0.019 A 
ATOM     38  C   UNL     1      23.616  26.866  17.147  0.00  0.00    +0.120 A 
ATOM     39  N   UNL     1      24.897  27.017  17.669  0.00  0.00    -0.263 NA
ATOM     40  C   UNL     1      25.903  27.733  17.004  0.00  0.00    +0.111 A 
ENDBRANCH   4   3
ENDBRANCH  10   9
BRANCH  12  13
ATOM     13  N   UNL     1      14.920  23.749  15.740  0.00  0.00    -0.281 N 
ATOM     14  C   UNL     1      14.486  22.748  16.593  0.00  0.00    +0.248 C 
ATOM     30  O   UNL     1      14.890  21.595  16.568  0.00  0.00    -0.270 OA
ATOM     31  H   UNL     1      14.366  24.606  15.737  0.00  0.00    +0.155 HD
BRANCH  14  15
ATOM     15  C   UNL     1      13.441  23.070  17.612  0.00  0.00    +0.037 A 
ATOM     16  C   UNL     1      12.015  23.038  17.276  0.00  0.00    +0.013 A 
ATOM     17  C   UNL     1      11.029  23.370  18.274  0.00  0.00    +0.005 A 
ATOM     18  C   UNL     1      11.466  23.736  19.619  0.00  0.00    -0.033 A 
ATOM     28  C   UNL     1      12.887  23.755  19.927  0.00  0.00    +0.005 A 
ATOM     29  C   UNL     1      13.856  23.431  18.951  0.00  0.00    +0.013 A 
BRANCH  18  19
ATOM     19  C   UNL     1      10.485  24.125  20.740  0.00  0.00    +0.119 C 
BRANCH  19  20
ATOM     20  N   UNL     1       9.800  25.447  20.621  0.00  0.00    -0.302 NA
ATOM     21  C   UNL     1      10.799  26.603  20.513  0.00  0.00    +0.066 C 
ATOM     22  C   UNL     1      10.066  27.976  20.367  0.00  0.00    -0.064 C 
ATOM     23  N   UNL     1       9.128  28.180  21.558  0.00  0.00    +0.379 N 
ATOM     24  C   UNL     1       8.481  29.496  21.453  0.00  0.00    -0.096 C 
ATOM     25  H   UNL     1       9.751  28.182  22.482  0.00  0.00    -0.082 HD
ATOM     26  C   UNL     1       8.133  27.034  21.674  0.00  0.00    -0.064 C 
ATOM     27  C   UNL     1       8.872  25.671  21.789  0.00  0.00    +0.066 C 
ENDBRANCH  19  20
ENDBRANCH  18  19
ENDBRANCH  14  15
ENDBRANCH  12  13
TORSDOF 6
ENDMDL
