MODEL 1
REMARK VINA RESULT:      -8.8      0.000      0.000
REMARK  Name = C:\Users\Docking\Desktop\test protocol\1iep_ligandH.pdb
REMARK  8 active torsions:
REMARK  status: ('A' for Active; 'I' for Inactive)
REMARK    1  A    between atoms: _5  and  _11
REMARK    2  A    between atoms: _19  and  _21
REMARK    3  A    between atoms: _22  and  _66
REMARK    4  A    between atoms: _27  and  _30
REMARK    5  A    between atoms: _32  and  _33
REMARK    6  A    between atoms: _38  and  _43
REMARK    7  A    between atoms: _43  and  _46
REMARK    8  A    between atoms: _53  and  _55
REMARK                            x       y       z     vdW  Elec       q    Type
REMARK                         _______ _______ _______ _____ _____    ______ ____
ROOT
ATOM     10  C   UNL     1       9.210  25.524  19.629  0.00  0.00    +0.038 A 
ATOM     11  C   UNL     1      10.498  25.173  19.150  0.00  0.00    +0.047 A 
ATOM     12  C   UNL     1      11.012  23.820  19.295  0.00  0.00    +0.035 A 
ATOM     32  C   UNL     1      10.186  22.848  19.932  0.00  0.00    +0.024 A 
ATOM     33  C   UNL     1       8.875  23.188  20.426  0.00  0.00    +0.007 A 
ATOM     34  C   UNL     1       8.363  24.521  20.287  0.00  0.00    -0.029 A 
ATOM     35  C   UNL     1       6.953  24.831  20.841  0.00  0.00    +0.045 C 
ENDROOT
BRANCH  10   9
ATOM      4  C   UNL     1       8.320  29.934  21.300  0.00  0.00    +0.077 A 
ATOM      5  C   UNL     1       8.750  29.584  22.623  0.00  0.00    +0.048 A 
ATOM      6  C   UNL     1       9.186  28.257  22.833  0.00  0.00    +0.116 A 
ATOM      7  N   UNL     1       9.188  27.355  21.791  0.00  0.00    -0.223 NA
ATOM      8  C   UNL     1       8.765  27.725  20.527  0.00  0.00    +0.220 A 
ATOM      9  N   UNL     1       8.766  26.838  19.462  0.00  0.00    -0.283 N 
ATOM     36  H   UNL     1       8.439  27.147  18.547  0.00  0.00    +0.155 HD
ATOM     37  N   UNL     1       8.342  28.987  20.301  0.00  0.00    -0.214 NA
BRANCH   4   3
ATOM      1  C   UNL     1       7.905  33.381  19.496  0.00  0.00    +0.020 A 
ATOM      2  C   UNL     1       8.411  32.068  19.823  0.00  0.00    +0.013 A 
ATOM      3  C   UNL     1       7.834  31.298  20.919  0.00  0.00    +0.019 A 
ATOM     38  C   UNL     1       6.737  31.891  21.669  0.00  0.00    +0.120 A 
ATOM     39  N   UNL     1       6.271  33.158  21.332  0.00  0.00    -0.263 NA
ATOM     40  C   UNL     1       6.820  33.908  20.281  0.00  0.00    +0.111 A 
ENDBRANCH   4   3
ENDBRANCH  10   9
BRANCH  12  13
ATOM     13  N   UNL     1      12.315  23.407  18.836  0.00  0.00    -0.281 N 
ATOM     14  C   UNL     1      12.632  22.736  17.667  0.00  0.00    +0.248 C 
ATOM     30  O   UNL     1      11.815  22.197  16.936  0.00  0.00    -0.270 OA
ATOM     31  H   UNL     1      13.098  23.638  19.447  0.00  0.00    +0.155 HD
BRANCH  14  15
ATOM     15  C   UNL     1      14.066  22.636  17.258  0.00  0.00    +0.037 A 
ATOM     16  C   UNL     1      15.128  22.448  18.250  0.00  0.00    +0.013 A 
ATOM     17  C   UNL     1      16.505  22.373  17.830  0.00  0.00    +0.005 A 
ATOM     18  C   UNL     1      16.828  22.484  16.409  0.00  0.00    -0.033 A 
ATOM     28  C   UNL     1      15.754  22.664  15.446  0.00  0.00    +0.005 A 
ATOM     29  C   UNL     1      14.403  22.740  15.854  0.00  0.00    +0.013 A 
BRANCH  18  19
ATOM     19  C   UNL     1      18.271  22.435  15.873  0.00  0.00    +0.119 C 
BRANCH  19  20
ATOM     20  N   UNL     1      18.852  23.711  15.358  0.00  0.00    -0.302 NA
ATOM     21  C   UNL     1      19.944  23.464  14.314  0.00  0.00    +0.066 C 
ATOM     22  C   UNL     1      20.526  24.810  13.770  0.00  0.00    -0.064 C 
ATOM     23  N   UNL     1      21.069  25.636  14.936  0.00  0.00    +0.379 N 
ATOM     24  C   UNL     1      21.669  26.876  14.422  0.00  0.00    -0.096 C 
ATOM     25  H   UNL     1      21.879  25.044  15.421  0.00  0.00    -0.082 HD
ATOM     26  C   UNL     1      19.990  25.884  15.981  0.00  0.00    -0.064 C 
ATOM     27  C   UNL     1      19.398  24.541  16.494  0.00  0.00    +0.066 C 
ENDBRANCH  19  20
ENDBRANCH  18  19
ENDBRANCH  14  15
ENDBRANCH  12  13
TORSDOF 6
ENDMDL
MODEL 2
REMARK VINA RESULT:      -8.5      1.578      2.453
REMARK  Name = C:\Users\Docking\Desktop\test protocol\1iep_ligandH.pdb
REMARK  8 active torsions:
REMARK  status: ('A' for Active; 'I' for Inactive)
REMARK    1  A    between atoms: _5  and  _11
REMARK    2  A    between atoms: _19  and  _21
REMARK    3  A    between atoms: _22  and  _66
REMARK    4  A    between atoms: _27  and  _30
REMARK    5  A    between atoms: _32  and  _33
REMARK    6  A    between atoms: _38  and  _43
REMARK    7  A    between atoms: _43  and  _46
REMARK    8  A    between atoms: _53  and  _55
REMARK                            x       y       z     vdW  Elec       q    Type
REMARK                         _______ _______ _______ _____ _____    ______ ____
ROOT
ATOM     10  C   UNL     1       9.552  25.390  19.268  0.00  0.00    +0.038 A 
ATOM     11  C   UNL     1      10.893  25.191  18.849  0.00  0.00    +0.047 A 
ATOM     12  C   UNL     1      11.506  23.873  18.889  0.00  0.00    +0.035 A 
ATOM     32  C   UNL     1      10.724  22.778  19.359  0.00  0.00    +0.024 A 
ATOM     33  C   UNL     1       9.361  22.962  19.790  0.00  0.00    +0.007 A 
ATOM     34  C   UNL     1       8.751  24.261  19.755  0.00  0.00    -0.029 A 
ATOM     35  C   UNL     1       7.288  24.400  20.235  0.00  0.00    +0.045 C 
ENDROOT
BRANCH  10   9
ATOM      4  C   UNL     1       8.404  29.595  21.277  0.00  0.00    +0.077 A 
ATOM      5  C   UNL     1       8.894  29.182  22.561  0.00  0.00    +0.048 A 
ATOM      6  C   UNL     1       9.427  27.878  22.663  0.00  0.00    +0.116 A 
ATOM      7  N   UNL     1       9.463  27.056  21.558  0.00  0.00    -0.223 NA
ATOM      8  C   UNL     1       8.980  27.484  20.335  0.00  0.00    +0.220 A 
ATOM      9  N   UNL     1       9.014  26.677  19.208  0.00  0.00    -0.283 N 
ATOM     36  H   UNL     1       8.641  27.027  18.326  0.00  0.00    +0.155 HD
ATOM     37  N   UNL     1       8.465  28.725  20.211  0.00  0.00    -0.214 NA
BRANCH   4   3
ATOM      1  C   UNL     1       6.224  32.833  21.527  0.00  0.00    +0.020 A 
ATOM      2  C   UNL     1       6.759  31.526  21.830  0.00  0.00    +0.013 A 
ATOM      3  C   UNL     1       7.814  30.944  21.009  0.00  0.00    +0.019 A 
ATOM     38  C   UNL     1       8.310  31.719  19.881  0.00  0.00    +0.120 A 
ATOM     39  N   UNL     1       7.774  32.975  19.613  0.00  0.00    -0.263 NA
ATOM     40  C   UNL     1       6.758  33.543  20.395  0.00  0.00    +0.111 A 
ENDBRANCH   4   3
ENDBRANCH  10   9
BRANCH  12  13
ATOM     13  N   UNL     1      12.865  23.612  18.484  0.00  0.00    -0.281 N 
ATOM     14  C   UNL     1      13.303  22.852  17.412  0.00  0.00    +0.248 C 
ATOM     30  O   UNL     1      12.592  22.101  16.760  0.00  0.00    -0.270 OA
ATOM     31  H   UNL     1      13.593  24.039  19.057  0.00  0.00    +0.155 HD
BRANCH  14  15
ATOM     15  C   UNL     1      14.743  22.925  17.015  0.00  0.00    +0.037 A 
ATOM     16  C   UNL     1      15.812  22.747  18.001  0.00  0.00    +0.013 A 
ATOM     17  C   UNL     1      17.192  22.839  17.595  0.00  0.00    +0.005 A 
ATOM     18  C   UNL     1      17.510  23.109  16.194  0.00  0.00    -0.033 A 
ATOM     28  C   UNL     1      16.430  23.275  15.237  0.00  0.00    +0.005 A 
ATOM     29  C   UNL     1      15.076  23.187  15.631  0.00  0.00    +0.013 A 
BRANCH  18  19
ATOM     19  C   UNL     1      18.954  23.245  15.676  0.00  0.00    +0.119 C 
BRANCH  19  20
ATOM     20  N   UNL     1      19.433  22.213  14.709  0.00  0.00    -0.302 NA
ATOM     21  C   UNL     1      19.303  22.682  13.257  0.00  0.00    +0.066 C 
ATOM     22  C   UNL     1      19.830  21.600  12.259  0.00  0.00    -0.064 C 
ATOM     23  N   UNL     1      19.063  20.294  12.477  0.00  0.00    +0.379 N 
ATOM     24  C   UNL     1      19.516  19.291  11.502  0.00  0.00    -0.096 C 
ATOM     25  H   UNL     1      17.986  20.497  12.278  0.00  0.00    -0.082 HD
ATOM     26  C   UNL     1      19.185  19.821  13.919  0.00  0.00    -0.064 C 
ATOM     27  C   UNL     1      18.687  20.916  14.903  0.00  0.00    +0.066 C 
ENDBRANCH  19  20
ENDBRANCH  18  19
ENDBRANCH  14  15
ENDBRANCH  12  13
TORSDOF 6
ENDMDL
MODEL 3
REMARK VINA RESULT:      -8.5      5.120     12.821
REMARK  Name = C:\Users\Docking\Desktop\test protocol\1iep_ligandH.pdb
REMARK  8 active torsions:
REMARK  status: ('A' for Active; 'I' for Inactive)
REMARK    1  A    between atoms: _5  and  _11
REMARK    2  A    between atoms: _19  and  _21
REMARK    3  A    between atoms: _22  and  _66
REMARK    4  A    between atoms: _27  and  _30
REMARK    5  A    between atoms: _32  and  _33
REMARK    6  A    between atoms: _38  and  _43
REMARK    7  A    between atoms: _43  and  _46
REMARK    8  A    between atoms: _53  and  _55
REMARK                            x       y       z     vdW  Elec       q    Type
REMARK                         _______ _______ _______ _____ _____    ______ ____
ROOT
ATOM     10  C   UNL     1       9.873  26.950  21.783  0.00  0.00    +0.038 A 
ATOM     11  C   UNL     1       9.460  28.225  21.319  0.00  0.00    +0.047 A 
ATOM     12  C   UNL     1       8.969  29.239  22.239  0.00  0.00    +0.035 A 
ATOM     32  C   UNL     1       8.916  28.922  23.628  0.00  0.00    +0.024 A 
ATOM     33  C   UNL     1       9.331  27.630  24.117  0.00  0.00    +0.007 A 
ATOM     34  C   UNL     1       9.813  26.625  23.214  0.00  0.00    -0.029 A 
ATOM     35  C   UNL     1      10.238  25.256  23.793  0.00  0.00    +0.045 C 
ENDROOT
BRANCH  10   9
ATOM      4  C   UNL     1       9.158  23.366  18.672  0.00  0.00    +0.077 A 
ATOM      5  C   UNL     1       7.749  23.338  18.937  0.00  0.00    +0.048 A 
ATOM      6  C   UNL     1       7.249  24.257  19.887  0.00  0.00    +0.116 A 
ATOM      7  N   UNL     1       8.103  25.135  20.517  0.00  0.00    -0.223 NA
ATOM      8  C   UNL     1       9.458  25.135  20.239  0.00  0.00    +0.220 A 
ATOM      9  N   UNL     1      10.335  26.015  20.855  0.00  0.00    -0.283 N 
ATOM     36  H   UNL     1      11.328  25.978  20.628  0.00  0.00    +0.155 HD
ATOM     37  N   UNL     1       9.961  24.266  19.337  0.00  0.00    -0.214 NA
BRANCH   4   3
ATOM      1  C   UNL     1       9.808  20.750  15.838  0.00  0.00    +0.020 A 
ATOM      2  C   UNL     1       9.105  21.607  16.764  0.00  0.00    +0.013 A 
ATOM      3  C   UNL     1       9.837  22.460  17.692  0.00  0.00    +0.019 A 
ATOM     38  C   UNL     1      11.291  22.422  17.657  0.00  0.00    +0.120 A 
ATOM     39  N   UNL     1      11.941  21.585  16.755  0.00  0.00    -0.263 NA
ATOM     40  C   UNL     1      11.247  20.759  15.858  0.00  0.00    +0.111 A 
ENDBRANCH   4   3
ENDBRANCH  10   9
BRANCH  12  13
ATOM     13  N   UNL     1       8.529  30.548  21.825  0.00  0.00    -0.281 N 
ATOM     14  C   UNL     1       7.740  30.875  20.734  0.00  0.00    +0.248 C 
ATOM     30  O   UNL     1       7.469  30.108  19.823  0.00  0.00    -0.270 OA
ATOM     31  H   UNL     1       8.836  31.328  22.406  0.00  0.00    +0.155 HD
BRANCH  14  15
ATOM     15  C   UNL     1       7.184  32.259  20.634  0.00  0.00    +0.037 A 
ATOM     16  C   UNL     1       8.064  33.426  20.527  0.00  0.00    +0.013 A 
ATOM     17  C   UNL     1       7.502  34.751  20.449  0.00  0.00    +0.005 A 
ATOM     18  C   UNL     1       6.051  34.916  20.477  0.00  0.00    -0.033 A 
ATOM     28  C   UNL     1       5.201  33.741  20.579  0.00  0.00    +0.005 A 
ATOM     29  C   UNL     1       5.748  32.441  20.657  0.00  0.00    +0.013 A 
BRANCH  18  19
ATOM     19  C   UNL     1       5.364  36.294  20.421  0.00  0.00    +0.119 C 
BRANCH  19  20
ATOM     20  N   UNL     1       5.794  37.227  19.338  0.00  0.00    -0.302 NA
ATOM     21  C   UNL     1       5.248  38.643  19.549  0.00  0.00    +0.066 C 
ATOM     22  C   UNL     1       5.726  39.612  18.419  0.00  0.00    -0.064 C 
ATOM     23  N   UNL     1       5.290  39.061  17.060  0.00  0.00    +0.379 N 
ATOM     24  C   UNL     1       5.687  39.999  16.000  0.00  0.00    -0.096 C 
ATOM     25  H   UNL     1       4.177  39.002  17.061  0.00  0.00    -0.082 HD
ATOM     26  C   UNL     1       5.826  37.653  16.843  0.00  0.00    -0.064 C 
ATOM     27  C   UNL     1       5.370  36.705  17.987  0.00  0.00    +0.066 C 
ENDBRANCH  19  20
ENDBRANCH  18  19
ENDBRANCH  14  15
ENDBRANCH  12  13
TORSDOF 6
ENDMDL
MODEL 4
REMARK VINA RESULT:      -8.5      5.091     15.200
REMARK  Name = C:\Users\Docking\Desktop\test protocol\1iep_ligandH.pdb
REMARK  8 active torsions:
REMARK  status: ('A' for Active; 'I' for Inactive)
REMARK    1  A    between atoms: _5  and  _11
REMARK    2  A    between atoms: _19  and  _21
REMARK    3  A    between atoms: _22  and  _66
REMARK    4  A    between atoms: _27  and  _30
REMARK    5  A    between atoms: _32  and  _33
REMARK    6  A    between atoms: _38  and  _43
REMARK    7  A    between atoms: _43  and  _46
REMARK    8  A    between atoms: _53  and  _55
REMARK                            x       y       z     vdW  Elec       q    Type
REMARK                         _______ _______ _______ _____ _____    ______ ____
ROOT
ATOM     10  C   UNL     1      19.942  20.882  14.126  0.00  0.00    +0.038 A 
ATOM     11  C   UNL     1      18.722  20.895  14.850  0.00  0.00    +0.047 A 
ATOM     12  C   UNL     1      17.952  22.120  15.005  0.00  0.00    +0.035 A 
ATOM     32  C   UNL     1      18.453  23.313  14.407  0.00  0.00    +0.024 A 
ATOM     33  C   UNL     1      19.692  23.318  13.669  0.00  0.00    +0.007 A 
ATOM     34  C   UNL     1      20.457  22.113  13.515  0.00  0.00    -0.029 A 
ATOM     35  C   UNL     1      21.781  22.178  12.719  0.00  0.00    +0.045 C 
ENDROOT
BRANCH  10   9
ATOM      4  C   UNL     1      21.039  16.836  11.790  0.00  0.00    +0.077 A 
ATOM      5  C   UNL     1      20.123  17.132  10.725  0.00  0.00    +0.048 A 
ATOM      6  C   UNL     1      19.384  18.332  10.821  0.00  0.00    +0.116 A 
ATOM      7  N   UNL     1      19.556  19.167  11.904  0.00  0.00    -0.223 NA
ATOM      8  C   UNL     1      20.446  18.850  12.914  0.00  0.00    +0.220 A 
ATOM      9  N   UNL     1      20.640  19.678  14.009  0.00  0.00    -0.283 N 
ATOM     36  H   UNL     1      21.300  19.405  14.737  0.00  0.00    +0.155 HD
ATOM     37  N   UNL     1      21.162  17.709  12.847  0.00  0.00    -0.214 NA
BRANCH   4   3
ATOM      1  C   UNL     1      22.235  13.131  12.171  0.00  0.00    +0.020 A 
ATOM      2  C   UNL     1      21.366  14.285  12.145  0.00  0.00    +0.013 A 
ATOM      3  C   UNL     1      21.894  15.607  11.831  0.00  0.00    +0.019 A 
ATOM     38  C   UNL     1      23.315  15.728  11.544  0.00  0.00    +0.120 A 
ATOM     39  N   UNL     1      24.127  14.598  11.578  0.00  0.00    -0.263 NA
ATOM     40  C   UNL     1      23.632  13.322  11.881  0.00  0.00    +0.111 A 
ENDBRANCH   4   3
ENDBRANCH  10   9
BRANCH  12  13
ATOM     13  N   UNL     1      16.711  22.196  15.735  0.00  0.00    -0.281 N 
ATOM     14  C   UNL     1      16.495  22.732  16.994  0.00  0.00    +0.248 C 
ATOM     30  O   UNL     1      17.383  23.037  17.777  0.00  0.00    -0.270 OA
ATOM     31  H   UNL     1      15.892  21.807  15.267  0.00  0.00    +0.155 HD
BRANCH  14  15
ATOM     15  C   UNL     1      15.090  22.946  17.456  0.00  0.00    +0.037 A 
ATOM     16  C   UNL     1      14.795  23.318  18.842  0.00  0.00    +0.013 A 
ATOM     17  C   UNL     1      13.429  23.503  19.266  0.00  0.00    +0.005 A 
ATOM     18  C   UNL     1      12.349  23.316  18.301  0.00  0.00    -0.033 A 
ATOM     28  C   UNL     1      12.670  22.953  16.931  0.00  0.00    +0.005 A 
ATOM     29  C   UNL     1      14.007  22.770  16.512  0.00  0.00    +0.013 A 
BRANCH  18  19
ATOM     19  C   UNL     1      10.861  23.472  18.671  0.00  0.00    +0.119 C 
BRANCH  19  20
ATOM     20  N   UNL     1      10.502  24.577  19.609  0.00  0.00    -0.302 NA
ATOM     21  C   UNL     1       9.100  24.396  20.199  0.00  0.00    +0.066 C 
ATOM     22  C   UNL     1       8.749  25.548  21.195  0.00  0.00    -0.064 C 
ATOM     23  N   UNL     1       8.864  26.893  20.475  0.00  0.00    +0.379 N 
ATOM     24  C   UNL     1       8.479  27.975  21.393  0.00  0.00    -0.096 C 
ATOM     25  H   UNL     1       8.135  26.889  19.632  0.00  0.00    -0.082 HD
ATOM     26  C   UNL     1      10.254  27.080  19.883  0.00  0.00    -0.064 C 
ATOM     27  C   UNL     1      10.605  25.914  18.917  0.00  0.00    +0.066 C 
ENDBRANCH  19  20
ENDBRANCH  18  19
ENDBRANCH  14  15
ENDBRANCH  12  13
TORSDOF 6
ENDMDL
MODEL 5
REMARK VINA RESULT:      -8.2      8.380     11.846
REMARK  Name = C:\Users\Docking\Desktop\test protocol\1iep_ligandH.pdb
REMARK  8 active torsions:
REMARK  status: ('A' for Active; 'I' for Inactive)
REMARK    1  A    between atoms: _5  and  _11
REMARK    2  A    between atoms: _19  and  _21
REMARK    3  A    between atoms: _22  and  _66
REMARK    4  A    between atoms: _27  and  _30
REMARK    5  A    between atoms: _32  and  _33
REMARK    6  A    between atoms: _38  and  _43
REMARK    7  A    between atoms: _43  and  _46
REMARK    8  A    between atoms: _53  and  _55
REMARK                            x       y       z     vdW  Elec       q    Type
REMARK                         _______ _______ _______ _____ _____    ______ ____
ROOT
ATOM     10  C   UNL     1      15.371  20.963  14.960  0.00  0.00    +0.038 A 
ATOM     11  C   UNL     1      15.863  19.669  15.266  0.00  0.00    +0.047 A 
ATOM     12  C   UNL     1      15.106  18.475  14.923  0.00  0.00    +0.035 A 
ATOM     32  C   UNL     1      13.851  18.636  14.267  0.00  0.00    +0.024 A 
ATOM     33  C   UNL     1      13.335  19.944  13.949  0.00  0.00    +0.007 A 
ATOM     34  C   UNL     1      14.076  21.125  14.287  0.00  0.00    -0.029 A 
ATOM     35  C   UNL     1      13.471  22.503  13.928  0.00  0.00    +0.045 C 
ENDROOT
BRANCH  10   9
ATOM      4  C   UNL     1      18.914  24.092  14.131  0.00  0.00    +0.077 A 
ATOM      5  C   UNL     1      19.282  23.441  12.906  0.00  0.00    +0.048 A 
ATOM      6  C   UNL     1      18.539  22.300  12.529  0.00  0.00    +0.116 A 
ATOM      7  N   UNL     1      17.507  21.853  13.325  0.00  0.00    -0.223 NA
ATOM      8  C   UNL     1      17.179  22.503  14.500  0.00  0.00    +0.220 A 
ATOM      9  N   UNL     1      16.139  22.075  15.312  0.00  0.00    -0.283 N 
ATOM     36  H   UNL     1      15.933  22.577  16.175  0.00  0.00    +0.155 HD
ATOM     37  N   UNL     1      17.874  23.594  14.883  0.00  0.00    -0.214 NA
BRANCH   4   3
ATOM      1  C   UNL     1      20.965  27.414  14.372  0.00  0.00    +0.020 A 
ATOM      2  C   UNL     1      20.318  26.252  13.809  0.00  0.00    +0.013 A 
ATOM      3  C   UNL     1      19.602  25.311  14.661  0.00  0.00    +0.019 A 
ATOM     38  C   UNL     1      19.558  25.579  16.091  0.00  0.00    +0.120 A 
ATOM     39  N   UNL     1      20.192  26.706  16.605  0.00  0.00    -0.263 NA
ATOM     40  C   UNL     1      20.886  27.617  15.794  0.00  0.00    +0.111 A 
ENDBRANCH   4   3
ENDBRANCH  10   9
BRANCH  12  13
ATOM     13  N   UNL     1      15.552  17.135  15.216  0.00  0.00    -0.281 N 
ATOM     14  C   UNL     1      16.407  16.340  14.470  0.00  0.00    +0.248 C 
ATOM     30  O   UNL     1      16.752  16.583  13.324  0.00  0.00    -0.270 OA
ATOM     31  H   UNL     1      15.193  16.723  16.077  0.00  0.00    +0.155 HD
BRANCH  14  15
ATOM     15  C   UNL     1      16.945  15.087  15.082  0.00  0.00    +0.037 A 
ATOM     16  C   UNL     1      16.220  14.389  16.146  0.00  0.00    +0.013 A 
ATOM     17  C   UNL     1      16.770  13.191  16.731  0.00  0.00    +0.005 A 
ATOM     18  C   UNL     1      18.053  12.684  16.251  0.00  0.00    -0.033 A 
ATOM     28  C   UNL     1      18.749  13.394  15.191  0.00  0.00    +0.005 A 
ATOM     29  C   UNL     1      18.213  14.568  14.616  0.00  0.00    +0.013 A 
BRANCH  18  19
ATOM     19  C   UNL     1      18.725  11.426  16.832  0.00  0.00    +0.119 C 
BRANCH  19  20
ATOM     20  N   UNL     1      19.845  11.632  17.797  0.00  0.00    -0.302 NA
ATOM     21  C   UNL     1      19.577  12.804  18.746  0.00  0.00    +0.066 C 
ATOM     22  C   UNL     1      20.749  12.991  19.764  0.00  0.00    -0.064 C 
ATOM     23  N   UNL     1      22.056  13.203  18.998  0.00  0.00    +0.379 N 
ATOM     24  C   UNL     1      23.151  13.438  19.951  0.00  0.00    -0.096 C 
ATOM     25  H   UNL     1      21.941  14.125  18.381  0.00  0.00    -0.082 HD
ATOM     26  C   UNL     1      22.330  12.045  18.050  0.00  0.00    -0.064 C 
ATOM     27  C   UNL     1      21.146  11.848  17.062  0.00  0.00    +0.066 C 
ENDBRANCH  19  20
ENDBRANCH  18  19
ENDBRANCH  14  15
ENDBRANCH  12  13
TORSDOF 6
ENDMDL
