MODEL 1
REMARK VINA RESULT:      -9.7      0.000      0.000
REMARK  Name = C:\Users\Docking\Desktop\test protocol\1iep_ligandH.pdb
REMARK  8 active torsions:
REMARK  status: ('A' for Active; 'I' for Inactive)
REMARK    1  A    between atoms: _5  and  _11
REMARK    2  A    between atoms: _19  and  _21
REMARK    3  A    between atoms: _22  and  _66
REMARK    4  A    between atoms: _27  and  _30
REMARK    5  A    between atoms: _32  and  _33
REMARK    6  A    between atoms: _38  and  _43
REMARK    7  A    between atoms: _43  and  _46
REMARK    8  A    between atoms: _53  and  _55
REMARK                            x       y       z     vdW  Elec       q    Type
REMARK                         _______ _______ _______ _____ _____    ______ ____
ROOT
ATOM     10  C   UNL     1       3.171  36.670  22.529  0.00  0.00    +0.038 A 
ATOM     11  C   UNL     1       3.074  35.303  22.894  0.00  0.00    +0.047 A 
ATOM     12  C   UNL     1       2.926  34.904  24.285  0.00  0.00    +0.035 A 
ATOM     32  C   UNL     1       2.879  35.925  25.279  0.00  0.00    +0.024 A 
ATOM     33  C   UNL     1       2.978  37.319  24.926  0.00  0.00    +0.007 A 
ATOM     34  C   UNL     1       3.126  37.718  23.556  0.00  0.00    -0.029 A 
ATOM     35  C   UNL     1       3.234  39.227  23.236  0.00  0.00    +0.045 C 
ENDROOT
BRANCH  10   9
ATOM      4  C   UNL     1       5.503  36.442  18.340  0.00  0.00    +0.077 A 
ATOM      5  C   UNL     1       6.543  35.626  18.896  0.00  0.00    +0.048 A 
ATOM      6  C   UNL     1       6.445  35.293  20.266  0.00  0.00    +0.116 A 
ATOM      7  N   UNL     1       5.381  35.748  21.014  0.00  0.00    -0.223 NA
ATOM      8  C   UNL     1       4.395  36.535  20.447  0.00  0.00    +0.220 A 
ATOM      9  N   UNL     1       3.312  36.996  21.179  0.00  0.00    -0.283 N 
ATOM     36  H   UNL     1       2.610  37.581  20.725  0.00  0.00    +0.155 HD
ATOM     37  N   UNL     1       4.467  36.868  19.141  0.00  0.00    -0.214 NA
BRANCH   4   3
ATOM      1  C   UNL     1       5.624  36.425  14.430  0.00  0.00    +0.020 A 
ATOM      2  C   UNL     1       5.672  35.956  15.796  0.00  0.00    +0.013 A 
ATOM      3  C   UNL     1       5.464  36.875  16.908  0.00  0.00    +0.019 A 
ATOM     38  C   UNL     1       5.208  38.275  16.601  0.00  0.00    +0.120 A 
ATOM     39  N   UNL     1       5.170  38.698  15.276  0.00  0.00    -0.263 NA
ATOM     40  C   UNL     1       5.369  37.823  14.198  0.00  0.00    +0.111 A 
ENDBRANCH   4   3
ENDBRANCH  10   9
BRANCH  12  13
ATOM     13  N   UNL     1       2.830  33.532  24.716  0.00  0.00    -0.281 N 
ATOM     14  C   UNL     1       3.774  32.787  25.404  0.00  0.00    +0.248 C 
ATOM     30  O   UNL     1       4.937  33.125  25.566  0.00  0.00    -0.270 OA
ATOM     31  H   UNL     1       1.960  33.051  24.487  0.00  0.00    +0.155 HD
BRANCH  14  15
ATOM     15  C   UNL     1       3.373  31.468  25.982  0.00  0.00    +0.037 A 
ATOM     16  C   UNL     1       4.149  30.841  27.055  0.00  0.00    +0.013 A 
ATOM     17  C   UNL     1       3.749  29.561  27.583  0.00  0.00    +0.005 A 
ATOM     18  C   UNL     1       2.565  28.900  27.039  0.00  0.00    -0.033 A 
ATOM     28  C   UNL     1       1.811  29.547  25.979  0.00  0.00    +0.005 A 
ATOM     29  C   UNL     1       2.200  30.801  25.458  0.00  0.00    +0.013 A 
BRANCH  18  19
ATOM     19  C   UNL     1       2.078  27.523  27.528  0.00  0.00    +0.119 C 
BRANCH  19  20
ATOM     20  N   UNL     1       2.287  26.360  26.615  0.00  0.00    -0.302 NA
ATOM     21  C   UNL     1       1.267  25.244  26.863  0.00  0.00    +0.066 C 
ATOM     22  C   UNL     1       1.487  24.045  25.884  0.00  0.00    -0.064 C 
ATOM     23  N   UNL     1       2.914  23.518  26.038  0.00  0.00    +0.379 N 
ATOM     24  C   UNL     1       3.105  22.354  25.161  0.00  0.00    -0.096 C 
ATOM     25  H   UNL     1       3.034  23.172  27.091  0.00  0.00    -0.082 HD
ATOM     26  C   UNL     1       3.934  24.622  25.796  0.00  0.00    -0.064 C 
ATOM     27  C   UNL     1       3.689  25.821  26.754  0.00  0.00    +0.066 C 
ENDBRANCH  19  20
ENDBRANCH  18  19
ENDBRANCH  14  15
ENDBRANCH  12  13
TORSDOF 6
ENDMDL
MODEL 2
REMARK VINA RESULT:      -9.5      8.744     13.510
REMARK  Name = C:\Users\Docking\Desktop\test protocol\1iep_ligandH.pdb
REMARK  8 active torsions:
REMARK  status: ('A' for Active; 'I' for Inactive)
REMARK    1  A    between atoms: _5  and  _11
REMARK    2  A    between atoms: _19  and  _21
REMARK    3  A    between atoms: _22  and  _66
REMARK    4  A    between atoms: _27  and  _30
REMARK    5  A    between atoms: _32  and  _33
REMARK    6  A    between atoms: _38  and  _43
REMARK    7  A    between atoms: _43  and  _46
REMARK    8  A    between atoms: _53  and  _55
REMARK                            x       y       z     vdW  Elec       q    Type
REMARK                         _______ _______ _______ _____ _____    ______ ____
ROOT
ATOM     10  C   UNL     1      10.410  25.698  20.405  0.00  0.00    +0.038 A 
ATOM     11  C   UNL     1       9.791  26.941  20.116  0.00  0.00    +0.047 A 
ATOM     12  C   UNL     1       8.735  27.472  20.963  0.00  0.00    +0.035 A 
ATOM     32  C   UNL     1       8.335  26.711  22.100  0.00  0.00    +0.024 A 
ATOM     33  C   UNL     1       8.952  25.445  22.409  0.00  0.00    +0.007 A 
ATOM     34  C   UNL     1       9.992  24.915  21.575  0.00  0.00    -0.029 A 
ATOM     35  C   UNL     1      10.614  23.550  21.950  0.00  0.00    +0.045 C 
ENDROOT
BRANCH  10   9
ATOM      4  C   UNL     1      12.050  22.750  16.992  0.00  0.00    +0.077 A 
ATOM      5  C   UNL     1      10.799  22.053  16.909  0.00  0.00    +0.048 A 
ATOM      6  C   UNL     1       9.760  22.480  17.768  0.00  0.00    +0.116 A 
ATOM      7  N   UNL     1       9.969  23.527  18.639  0.00  0.00    -0.223 NA
ATOM      8  C   UNL     1      11.189  24.176  18.695  0.00  0.00    +0.220 A 
ATOM      9  N   UNL     1      11.419  25.236  19.558  0.00  0.00    -0.283 N 
ATOM     36  H   UNL     1      12.335  25.684  19.574  0.00  0.00    +0.155 HD
ATOM     37  N   UNL     1      12.197  23.786  17.886  0.00  0.00    -0.214 NA
BRANCH   4   3
ATOM      1  C   UNL     1      14.314  21.642  14.001  0.00  0.00    +0.020 A 
ATOM      2  C   UNL     1      13.132  21.948  14.773  0.00  0.00    +0.013 A 
ATOM      3  C   UNL     1      13.241  22.418  16.148  0.00  0.00    +0.019 A 
ATOM     38  C   UNL     1      14.572  22.570  16.716  0.00  0.00    +0.120 A 
ATOM     39  N   UNL     1      15.693  22.266  15.950  0.00  0.00    -0.263 NA
ATOM     40  C   UNL     1      15.600  21.811  14.626  0.00  0.00    +0.111 A 
ENDBRANCH   4   3
ENDBRANCH  10   9
BRANCH  12  13
ATOM     13  N   UNL     1       8.065  28.725  20.715  0.00  0.00    -0.281 N 
ATOM     14  C   UNL     1       8.259  29.936  21.357  0.00  0.00    +0.248 C 
ATOM     30  O   UNL     1       8.891  30.076  22.394  0.00  0.00    -0.270 OA
ATOM     31  H   UNL     1       7.363  28.717  19.975  0.00  0.00    +0.155 HD
BRANCH  14  15
ATOM     15  C   UNL     1       7.652  31.170  20.771  0.00  0.00    +0.037 A 
ATOM     16  C   UNL     1       8.171  32.501  21.095  0.00  0.00    +0.013 A 
ATOM     17  C   UNL     1       7.556  33.675  20.530  0.00  0.00    +0.005 A 
ATOM     18  C   UNL     1       6.413  33.523  19.632  0.00  0.00    -0.033 A 
ATOM     28  C   UNL     1       5.921  32.190  19.324  0.00  0.00    +0.005 A 
ATOM     29  C   UNL     1       6.521  31.037  19.877  0.00  0.00    +0.013 A 
BRANCH  18  19
ATOM     19  C   UNL     1       5.681  34.721  19.000  0.00  0.00    +0.119 C 
BRANCH  19  20
ATOM     20  N   UNL     1       5.644  35.991  19.785  0.00  0.00    -0.302 NA
ATOM     21  C   UNL     1       4.469  36.026  20.766  0.00  0.00    +0.066 C 
ATOM     22  C   UNL     1       4.458  37.352  21.595  0.00  0.00    -0.064 C 
ATOM     23  N   UNL     1       4.402  38.546  20.640  0.00  0.00    +0.379 N 
ATOM     24  C   UNL     1       4.333  39.792  21.417  0.00  0.00    -0.096 C 
ATOM     25  H   UNL     1       3.459  38.462  20.050  0.00  0.00    -0.082 HD
ATOM     26  C   UNL     1       5.565  38.518  19.659  0.00  0.00    -0.064 C 
ATOM     27  C   UNL     1       5.583  37.184  18.862  0.00  0.00    +0.066 C 
ENDBRANCH  19  20
ENDBRANCH  18  19
ENDBRANCH  14  15
ENDBRANCH  12  13
TORSDOF 6
ENDMDL
MODEL 3
REMARK VINA RESULT:      -9.2      6.412     13.553
REMARK  Name = C:\Users\Docking\Desktop\test protocol\1iep_ligandH.pdb
REMARK  8 active torsions:
REMARK  status: ('A' for Active; 'I' for Inactive)
REMARK    1  A    between atoms: _5  and  _11
REMARK    2  A    between atoms: _19  and  _21
REMARK    3  A    between atoms: _22  and  _66
REMARK    4  A    between atoms: _27  and  _30
REMARK    5  A    between atoms: _32  and  _33
REMARK    6  A    between atoms: _38  and  _43
REMARK    7  A    between atoms: _43  and  _46
REMARK    8  A    between atoms: _53  and  _55
REMARK                            x       y       z     vdW  Elec       q    Type
REMARK                         _______ _______ _______ _____ _____    ______ ____
ROOT
ATOM     10  C   UNL     1       8.907  25.431  20.917  0.00  0.00    +0.038 A 
ATOM     11  C   UNL     1       8.180  26.606  20.595  0.00  0.00    +0.047 A 
ATOM     12  C   UNL     1       8.818  27.913  20.608  0.00  0.00    +0.035 A 
ATOM     32  C   UNL     1      10.199  27.987  20.952  0.00  0.00    +0.024 A 
ATOM     33  C   UNL     1      10.953  26.804  21.283  0.00  0.00    +0.007 A 
ATOM     34  C   UNL     1      10.329  25.512  21.274  0.00  0.00    -0.029 A 
ATOM     35  C   UNL     1      11.184  24.277  21.643  0.00  0.00    +0.045 C 
ENDROOT
BRANCH  10   9
ATOM      4  C   UNL     1       7.713  21.316  18.754  0.00  0.00    +0.077 A 
ATOM      5  C   UNL     1       8.450  21.655  17.571  0.00  0.00    +0.048 A 
ATOM      6  C   UNL     1       9.117  22.901  17.557  0.00  0.00    +0.116 A 
ATOM      7  N   UNL     1       9.045  23.737  18.650  0.00  0.00    -0.223 NA
ATOM      8  C   UNL     1       8.324  23.380  19.774  0.00  0.00    +0.220 A 
ATOM      9  N   UNL     1       8.244  24.202  20.888  0.00  0.00    -0.283 N 
ATOM     36  H   UNL     1       7.696  23.906  21.695  0.00  0.00    +0.155 HD
ATOM     37  N   UNL     1       7.677  22.197  19.812  0.00  0.00    -0.214 NA
BRANCH   4   3
ATOM      1  C   UNL     1       4.858  18.722  19.399  0.00  0.00    +0.020 A 
ATOM      2  C   UNL     1       5.539  19.987  19.247  0.00  0.00    +0.013 A 
ATOM      3  C   UNL     1       6.959  20.034  18.923  0.00  0.00    +0.019 A 
ATOM     38  C   UNL     1       7.666  18.773  18.756  0.00  0.00    +0.120 A 
ATOM     39  N   UNL     1       6.984  17.570  18.910  0.00  0.00    -0.263 NA
ATOM     40  C   UNL     1       5.618  17.512  19.223  0.00  0.00    +0.111 A 
ENDBRANCH   4   3
ENDBRANCH  10   9
BRANCH  12  13
ATOM     13  N   UNL     1       8.129  29.141  20.299  0.00  0.00    -0.281 N 
ATOM     14  C   UNL     1       7.864  30.206  21.144  0.00  0.00    +0.248 C 
ATOM     30  O   UNL     1       7.994  30.173  22.359  0.00  0.00    -0.270 OA
ATOM     31  H   UNL     1       7.796  29.237  19.339  0.00  0.00    +0.155 HD
BRANCH  14  15
ATOM     15  C   UNL     1       7.370  31.489  20.557  0.00  0.00    +0.037 A 
ATOM     16  C   UNL     1       8.016  32.766  20.871  0.00  0.00    +0.013 A 
ATOM     17  C   UNL     1       7.509  33.991  20.305  0.00  0.00    +0.005 A 
ATOM     18  C   UNL     1       6.350  33.943  19.417  0.00  0.00    -0.033 A 
ATOM     28  C   UNL     1       5.732  32.662  19.118  0.00  0.00    +0.005 A 
ATOM     29  C   UNL     1       6.225  31.460  19.672  0.00  0.00    +0.013 A 
BRANCH  18  19
ATOM     19  C   UNL     1       5.728  35.203  18.784  0.00  0.00    +0.119 C 
BRANCH  19  20
ATOM     20  N   UNL     1       5.030  36.154  19.699  0.00  0.00    -0.302 NA
ATOM     21  C   UNL     1       5.949  37.289  20.158  0.00  0.00    +0.066 C 
ATOM     22  C   UNL     1       5.196  38.287  21.097  0.00  0.00    -0.064 C 
ATOM     23  N   UNL     1       4.633  37.527  22.299  0.00  0.00    +0.379 N 
ATOM     24  C   UNL     1       3.974  38.471  23.212  0.00  0.00    -0.096 C 
ATOM     25  H   UNL     1       5.492  37.072  22.844  0.00  0.00    -0.082 HD
ATOM     26  C   UNL     1       3.720  36.394  21.851  0.00  0.00    -0.064 C 
ATOM     27  C   UNL     1       4.469  35.425  20.895  0.00  0.00    +0.066 C 
ENDBRANCH  19  20
ENDBRANCH  18  19
ENDBRANCH  14  15
ENDBRANCH  12  13
TORSDOF 6
ENDMDL
MODEL 4
REMARK VINA RESULT:      -9.1      6.989     13.077
REMARK  Name = C:\Users\Docking\Desktop\test protocol\1iep_ligandH.pdb
REMARK  8 active torsions:
REMARK  status: ('A' for Active; 'I' for Inactive)
REMARK    1  A    between atoms: _5  and  _11
REMARK    2  A    between atoms: _19  and  _21
REMARK    3  A    between atoms: _22  and  _66
REMARK    4  A    between atoms: _27  and  _30
REMARK    5  A    between atoms: _32  and  _33
REMARK    6  A    between atoms: _38  and  _43
REMARK    7  A    between atoms: _43  and  _46
REMARK    8  A    between atoms: _53  and  _55
REMARK                            x       y       z     vdW  Elec       q    Type
REMARK                         _______ _______ _______ _____ _____    ______ ____
ROOT
ATOM     10  C   UNL     1       9.677  26.432  21.818  0.00  0.00    +0.038 A 
ATOM     11  C   UNL     1       9.126  27.680  21.429  0.00  0.00    +0.047 A 
ATOM     12  C   UNL     1       8.629  28.624  22.418  0.00  0.00    +0.035 A 
ATOM     32  C   UNL     1       8.711  28.265  23.795  0.00  0.00    +0.024 A 
ATOM     33  C   UNL     1       9.267  27.001  24.208  0.00  0.00    +0.007 A 
ATOM     34  C   UNL     1       9.757  26.065  23.237  0.00  0.00    -0.029 A 
ATOM     35  C   UNL     1      10.337  24.721  23.737  0.00  0.00    +0.045 C 
ENDROOT
BRANCH  10   9
ATOM      4  C   UNL     1       8.955  23.128  18.413  0.00  0.00    +0.077 A 
ATOM      5  C   UNL     1       7.540  23.110  18.647  0.00  0.00    +0.048 A 
ATOM      6  C   UNL     1       7.038  23.961  19.658  0.00  0.00    +0.116 A 
ATOM      7  N   UNL     1       7.898  24.765  20.374  0.00  0.00    -0.223 NA
ATOM      8  C   UNL     1       9.258  24.757  20.124  0.00  0.00    +0.220 A 
ATOM      9  N   UNL     1      10.139  25.564  20.827  0.00  0.00    -0.283 N 
ATOM     36  H   UNL     1      11.136  25.523  20.617  0.00  0.00    +0.155 HD
ATOM     37  N   UNL     1       9.761  23.952  19.165  0.00  0.00    -0.214 NA
BRANCH   4   3
ATOM      1  C   UNL     1       9.630  20.884  15.280  0.00  0.00    +0.020 A 
ATOM      2  C   UNL     1       8.926  21.687  16.254  0.00  0.00    +0.013 A 
ATOM      3  C   UNL     1       9.635  22.287  17.377  0.00  0.00    +0.019 A 
ATOM     38  C   UNL     1      11.067  22.055  17.487  0.00  0.00    +0.120 A 
ATOM     39  N   UNL     1      11.718  21.276  16.535  0.00  0.00    -0.263 NA
ATOM     40  C   UNL     1      11.046  20.692  15.451  0.00  0.00    +0.111 A 
ENDBRANCH   4   3
ENDBRANCH  10   9
BRANCH  12  13
ATOM     13  N   UNL     1       8.051  29.902  22.083  0.00  0.00    -0.281 N 
ATOM     14  C   UNL     1       8.293  30.677  20.961  0.00  0.00    +0.248 C 
ATOM     30  O   UNL     1       9.209  30.488  20.174  0.00  0.00    -0.270 OA
ATOM     31  H   UNL     1       7.383  30.280  22.754  0.00  0.00    +0.155 HD
BRANCH  14  15
ATOM     15  C   UNL     1       7.397  31.840  20.680  0.00  0.00    +0.037 A 
ATOM     16  C   UNL     1       6.281  31.728  19.737  0.00  0.00    +0.013 A 
ATOM     17  C   UNL     1       5.442  32.870  19.472  0.00  0.00    +0.005 A 
ATOM     18  C   UNL     1       5.716  34.134  20.151  0.00  0.00    -0.033 A 
ATOM     28  C   UNL     1       6.827  34.215  21.085  0.00  0.00    +0.005 A 
ATOM     29  C   UNL     1       7.652  33.099  21.347  0.00  0.00    +0.013 A 
BRANCH  18  19
ATOM     19  C   UNL     1       4.886  35.409  19.912  0.00  0.00    +0.119 C 
BRANCH  19  20
ATOM     20  N   UNL     1       5.553  36.534  19.191  0.00  0.00    -0.302 NA
ATOM     21  C   UNL     1       5.007  37.898  19.624  0.00  0.00    +0.066 C 
ATOM     22  C   UNL     1       5.731  39.064  18.876  0.00  0.00    -0.064 C 
ATOM     23  N   UNL     1       5.577  38.873  17.367  0.00  0.00    +0.379 N 
ATOM     24  C   UNL     1       6.208  39.999  16.662  0.00  0.00    -0.096 C 
ATOM     25  H   UNL     1       4.487  38.895  17.133  0.00  0.00    -0.082 HD
ATOM     26  C   UNL     1       6.116  37.518  16.929  0.00  0.00    -0.064 C 
ATOM     27  C   UNL     1       5.410  36.367  17.699  0.00  0.00    +0.066 C 
ENDBRANCH  19  20
ENDBRANCH  18  19
ENDBRANCH  14  15
ENDBRANCH  12  13
TORSDOF 6
ENDMDL
MODEL 5
REMARK VINA RESULT:      -9.0      5.355      6.199
REMARK  Name = C:\Users\Docking\Desktop\test protocol\1iep_ligandH.pdb
REMARK  8 active torsions:
REMARK  status: ('A' for Active; 'I' for Inactive)
REMARK    1  A    between atoms: _5  and  _11
REMARK    2  A    between atoms: _19  and  _21
REMARK    3  A    between atoms: _22  and  _66
REMARK    4  A    between atoms: _27  and  _30
REMARK    5  A    between atoms: _32  and  _33
REMARK    6  A    between atoms: _38  and  _43
REMARK    7  A    between atoms: _43  and  _46
REMARK    8  A    between atoms: _53  and  _55
REMARK                            x       y       z     vdW  Elec       q    Type
REMARK                         _______ _______ _______ _____ _____    ______ ____
ROOT
ATOM     10  C   UNL     1       4.673  35.154  22.707  0.00  0.00    +0.038 A 
ATOM     11  C   UNL     1       5.402  34.039  22.218  0.00  0.00    +0.047 A 
ATOM     12  C   UNL     1       5.456  32.791  22.963  0.00  0.00    +0.035 A 
ATOM     32  C   UNL     1       4.754  32.712  24.201  0.00  0.00    +0.024 A 
ATOM     33  C   UNL     1       4.010  33.835  24.713  0.00  0.00    +0.007 A 
ATOM     34  C   UNL     1       3.955  35.070  23.984  0.00  0.00    -0.029 A 
ATOM     35  C   UNL     1       3.147  36.244  24.584  0.00  0.00    +0.045 C 
ENDROOT
BRANCH  10   9
ATOM      4  C   UNL     1       5.458  37.584  18.643  0.00  0.00    +0.077 A 
ATOM      5  C   UNL     1       5.972  36.422  17.978  0.00  0.00    +0.048 A 
ATOM      6  C   UNL     1       6.025  35.220  18.719  0.00  0.00    +0.116 A 
ATOM      7  N   UNL     1       5.592  35.194  20.027  0.00  0.00    -0.223 NA
ATOM      8  C   UNL     1       5.103  36.333  20.639  0.00  0.00    +0.220 A 
ATOM      9  N   UNL     1       4.655  36.328  21.951  0.00  0.00    -0.283 N 
ATOM     36  H   UNL     1       4.309  37.191  22.369  0.00  0.00    +0.155 HD
ATOM     37  N   UNL     1       5.044  37.494  19.953  0.00  0.00    -0.214 NA
BRANCH   4   3
ATOM      1  C   UNL     1       5.618  40.498  16.039  0.00  0.00    +0.020 A 
ATOM      2  C   UNL     1       5.757  39.183  16.620  0.00  0.00    +0.013 A 
ATOM      3  C   UNL     1       5.336  38.927  17.992  0.00  0.00    +0.019 A 
ATOM     38  C   UNL     1       4.772  40.031  18.753  0.00  0.00    +0.120 A 
ATOM     39  N   UNL     1       4.651  41.287  18.167  0.00  0.00    -0.263 NA
ATOM     40  C   UNL     1       5.054  41.546  16.849  0.00  0.00    +0.111 A 
ENDBRANCH   4   3
ENDBRANCH  10   9
BRANCH  12  13
ATOM     13  N   UNL     1       6.186  31.628  22.521  0.00  0.00    -0.281 N 
ATOM     14  C   UNL     1       7.337  31.588  21.752  0.00  0.00    +0.248 C 
ATOM     30  O   UNL     1       7.798  32.543  21.146  0.00  0.00    -0.270 OA
ATOM     31  H   UNL     1       5.807  30.726  22.809  0.00  0.00    +0.155 HD
BRANCH  14  15
ATOM     15  C   UNL     1       8.077  30.294  21.628  0.00  0.00    +0.037 A 
ATOM     16  C   UNL     1       8.257  29.408  22.780  0.00  0.00    +0.013 A 
ATOM     17  C   UNL     1       8.989  28.174  22.636  0.00  0.00    +0.005 A 
ATOM     18  C   UNL     1       9.545  27.820  21.333  0.00  0.00    -0.033 A 
ATOM     28  C   UNL     1       9.347  28.715  20.205  0.00  0.00    +0.005 A 
ATOM     29  C   UNL     1       8.631  29.925  20.343  0.00  0.00    +0.013 A 
BRANCH  18  19
ATOM     19  C   UNL     1      10.358  26.534  21.092  0.00  0.00    +0.119 C 
BRANCH  19  20
ATOM     20  N   UNL     1       9.999  25.711  19.899  0.00  0.00    -0.302 NA
ATOM     21  C   UNL     1       8.590  25.121  20.011  0.00  0.00    +0.066 C 
ATOM     22  C   UNL     1       8.222  24.282  18.744  0.00  0.00    -0.064 C 
ATOM     23  N   UNL     1       9.259  23.174  18.551  0.00  0.00    +0.379 N 
ATOM     24  C   UNL     1       8.884  22.347  17.395  0.00  0.00    -0.096 C 
ATOM     25  H   UNL     1       9.231  22.523  19.456  0.00  0.00    -0.082 HD
ATOM     26  C   UNL     1      10.663  23.751  18.442  0.00  0.00    -0.064 C 
ATOM     27  C   UNL     1      11.007  24.608  19.692  0.00  0.00    +0.066 C 
ENDBRANCH  19  20
ENDBRANCH  18  19
ENDBRANCH  14  15
ENDBRANCH  12  13
TORSDOF 6
ENDMDL
