MODEL 1
REMARK VINA RESULT:      -9.3      0.000      0.000
REMARK  Name = C:\Users\Docking\Desktop\test protocol\1iep_ligandH.pdb
REMARK  8 active torsions:
REMARK  status: ('A' for Active; 'I' for Inactive)
REMARK    1  A    between atoms: _5  and  _11
REMARK    2  A    between atoms: _19  and  _21
REMARK    3  A    between atoms: _22  and  _66
REMARK    4  A    between atoms: _27  and  _30
REMARK    5  A    between atoms: _32  and  _33
REMARK    6  A    between atoms: _38  and  _43
REMARK    7  A    between atoms: _43  and  _46
REMARK    8  A    between atoms: _53  and  _55
REMARK                            x       y       z     vdW  Elec       q    Type
REMARK                         _______ _______ _______ _____ _____    ______ ____
ROOT
ATOM     10  C   UNL     1      23.419  40.777  -0.481  0.00  0.00    +0.038 A 
ATOM     11  C   UNL     1      22.087  40.387  -0.193  0.00  0.00    +0.047 A 
ATOM     12  C   UNL     1      20.962  41.248  -0.524  0.00  0.00    +0.035 A 
ATOM     32  C   UNL     1      21.231  42.500  -1.151  0.00  0.00    +0.024 A 
ATOM     33  C   UNL     1      22.580  42.913  -1.450  0.00  0.00    +0.007 A 
ATOM     34  C   UNL     1      23.693  42.068  -1.124  0.00  0.00    -0.029 A 
ATOM     35  C   UNL     1      25.118  42.565  -1.461  0.00  0.00    +0.045 C 
ENDROOT
BRANCH  10   9
ATOM      4  C   UNL     1      27.202  39.555   2.208  0.00  0.00    +0.077 A 
ATOM      5  C   UNL     1      27.112  40.757   2.986  0.00  0.00    +0.048 A 
ATOM      6  C   UNL     1      26.082  41.667   2.657  0.00  0.00    +0.116 A 
ATOM      7  N   UNL     1      25.213  41.386   1.626  0.00  0.00    -0.223 NA
ATOM      8  C   UNL     1      25.329  40.218   0.894  0.00  0.00    +0.220 A 
ATOM      9  N   UNL     1      24.461  39.911  -0.142  0.00  0.00    -0.283 N 
ATOM     36  H   UNL     1      24.584  39.042  -0.662  0.00  0.00    +0.155 HD
ATOM     37  N   UNL     1      26.305  39.333   1.188  0.00  0.00    -0.214 NA
BRANCH   4   3
ATOM      1  C   UNL     1      28.972  36.241   3.297  0.00  0.00    +0.020 A 
ATOM      2  C   UNL     1      27.939  37.232   3.102  0.00  0.00    +0.013 A 
ATOM      3  C   UNL     1      28.234  38.495   2.436  0.00  0.00    +0.019 A 
ATOM     38  C   UNL     1      29.595  38.725   1.976  0.00  0.00    +0.120 A 
ATOM     39  N   UNL     1      30.570  37.753   2.179  0.00  0.00    -0.263 NA
ATOM     40  C   UNL     1      30.298  36.535   2.820  0.00  0.00    +0.111 A 
ENDBRANCH   4   3
ENDBRANCH  10   9
BRANCH  12  13
ATOM     13  N   UNL     1      19.588  40.909  -0.248  0.00  0.00    -0.281 N 
ATOM     14  C   UNL     1      18.501  41.763  -0.160  0.00  0.00    +0.248 C 
ATOM     30  O   UNL     1      18.583  42.981  -0.093  0.00  0.00    -0.270 OA
ATOM     31  H   UNL     1      19.393  39.919  -0.101  0.00  0.00    +0.155 HD
BRANCH  14  15
ATOM     15  C   UNL     1      17.125  41.180  -0.126  0.00  0.00    +0.037 A 
ATOM     16  C   UNL     1      16.913  39.745   0.077  0.00  0.00    +0.013 A 
ATOM     17  C   UNL     1      15.576  39.206   0.088  0.00  0.00    +0.005 A 
ATOM     18  C   UNL     1      14.440  40.105  -0.103  0.00  0.00    -0.033 A 
ATOM     28  C   UNL     1      14.679  41.525  -0.296  0.00  0.00    +0.005 A 
ATOM     29  C   UNL     1      15.988  42.057  -0.309  0.00  0.00    +0.013 A 
BRANCH  18  19
ATOM     19  C   UNL     1      12.980  39.614  -0.126  0.00  0.00    +0.119 C 
BRANCH  19  20
ATOM     20  N   UNL     1      11.931  40.569   0.339  0.00  0.00    -0.302 NA
ATOM     21  C   UNL     1      11.097  39.991   1.486  0.00  0.00    +0.066 C 
ATOM     22  C   UNL     1      10.018  41.011   1.976  0.00  0.00    -0.064 C 
ATOM     23  N   UNL     1       9.122  41.406   0.801  0.00  0.00    +0.379 N 
ATOM     24  C   UNL     1       8.071  42.320   1.270  0.00  0.00    -0.096 C 
ATOM     25  H   UNL     1       8.624  40.480   0.429  0.00  0.00    -0.082 HD
ATOM     26  C   UNL     1       9.944  41.979  -0.345  0.00  0.00    -0.064 C 
ATOM     27  C   UNL     1      11.032  40.969  -0.805  0.00  0.00    +0.066 C 
ENDBRANCH  19  20
ENDBRANCH  18  19
ENDBRANCH  14  15
ENDBRANCH  12  13
TORSDOF 6
ENDMDL
MODEL 2
REMARK VINA RESULT:      -9.1     25.299     27.110
REMARK  Name = C:\Users\Docking\Desktop\test protocol\1iep_ligandH.pdb
REMARK  8 active torsions:
REMARK  status: ('A' for Active; 'I' for Inactive)
REMARK    1  A    between atoms: _5  and  _11
REMARK    2  A    between atoms: _19  and  _21
REMARK    3  A    between atoms: _22  and  _66
REMARK    4  A    between atoms: _27  and  _30
REMARK    5  A    between atoms: _32  and  _33
REMARK    6  A    between atoms: _38  and  _43
REMARK    7  A    between atoms: _43  and  _46
REMARK    8  A    between atoms: _53  and  _55
REMARK                            x       y       z     vdW  Elec       q    Type
REMARK                         _______ _______ _______ _____ _____    ______ ____
ROOT
ATOM     10  C   UNL     1       9.742  27.204  21.728  0.00  0.00    +0.038 A 
ATOM     11  C   UNL     1       9.134  28.417  21.316  0.00  0.00    +0.047 A 
ATOM     12  C   UNL     1       8.673  29.396  22.288  0.00  0.00    +0.035 A 
ATOM     32  C   UNL     1       8.849  29.107  23.673  0.00  0.00    +0.024 A 
ATOM     33  C   UNL     1       9.464  27.879  24.110  0.00  0.00    +0.007 A 
ATOM     34  C   UNL     1       9.919  26.908  23.155  0.00  0.00    -0.029 A 
ATOM     35  C   UNL     1      10.566  25.606  23.680  0.00  0.00    +0.045 C 
ENDROOT
BRANCH  10   9
ATOM      4  C   UNL     1       8.927  23.641  18.617  0.00  0.00    +0.077 A 
ATOM      5  C   UNL     1       7.543  23.555  18.987  0.00  0.00    +0.048 A 
ATOM      6  C   UNL     1       7.083  24.441  19.988  0.00  0.00    +0.116 A 
ATOM      7  N   UNL     1       7.950  25.341  20.567  0.00  0.00    -0.223 NA
ATOM      8  C   UNL     1       9.279  25.397  20.188  0.00  0.00    +0.220 A 
ATOM      9  N   UNL     1      10.167  26.300  20.752  0.00  0.00    -0.283 N 
ATOM     36  H   UNL     1      11.141  26.305  20.450  0.00  0.00    +0.155 HD
ATOM     37  N   UNL     1       9.743  24.561  19.236  0.00  0.00    -0.214 NA
BRANCH   4   3
ATOM      1  C   UNL     1       9.454  21.214  15.595  0.00  0.00    +0.020 A 
ATOM      2  C   UNL     1       8.792  22.036  16.581  0.00  0.00    +0.013 A 
ATOM      3  C   UNL     1       9.562  22.775  17.574  0.00  0.00    +0.019 A 
ATOM     38  C   UNL     1      11.012  22.660  17.540  0.00  0.00    +0.120 A 
ATOM     39  N   UNL     1      11.622  21.860  16.580  0.00  0.00    -0.263 NA
ATOM     40  C   UNL     1      10.891  21.143  15.621  0.00  0.00    +0.111 A 
ENDBRANCH   4   3
ENDBRANCH  10   9
BRANCH  12  13
ATOM     13  N   UNL     1       8.041  30.641  21.930  0.00  0.00    -0.281 N 
ATOM     14  C   UNL     1       7.627  31.056  20.674  0.00  0.00    +0.248 C 
ATOM     30  O   UNL     1       7.933  30.503  19.628  0.00  0.00    -0.270 OA
ATOM     31  H   UNL     1       7.878  31.297  22.694  0.00  0.00    +0.155 HD
BRANCH  14  15
ATOM     15  C   UNL     1       6.760  32.268  20.563  0.00  0.00    +0.037 A 
ATOM     16  C   UNL     1       6.733  33.074  19.340  0.00  0.00    +0.013 A 
ATOM     17  C   UNL     1       5.900  34.248  19.266  0.00  0.00    +0.005 A 
ATOM     18  C   UNL     1       5.086  34.622  20.419  0.00  0.00    -0.033 A 
ATOM     28  C   UNL     1       5.127  33.802  21.618  0.00  0.00    +0.005 A 
ATOM     29  C   UNL     1       5.943  32.651  21.695  0.00  0.00    +0.013 A 
BRANCH  18  19
ATOM     19  C   UNL     1       4.184  35.871  20.436  0.00  0.00    +0.119 C 
BRANCH  19  20
ATOM     20  N   UNL     1       4.474  36.910  21.469  0.00  0.00    -0.302 NA
ATOM     21  C   UNL     1       3.275  37.155  22.390  0.00  0.00    +0.066 C 
ATOM     22  C   UNL     1       3.604  38.229  23.478  0.00  0.00    -0.064 C 
ATOM     23  N   UNL     1       4.036  39.527  22.795  0.00  0.00    +0.379 N 
ATOM     24  C   UNL     1       4.290  40.556  23.813  0.00  0.00    -0.096 C 
ATOM     25  H   UNL     1       3.186  39.877  22.164  0.00  0.00    -0.082 HD
ATOM     26  C   UNL     1       5.226  39.292  21.874  0.00  0.00    -0.064 C 
ATOM     27  C   UNL     1       4.899  38.202  20.816  0.00  0.00    +0.066 C 
ENDBRANCH  19  20
ENDBRANCH  18  19
ENDBRANCH  14  15
ENDBRANCH  12  13
TORSDOF 6
ENDMDL
MODEL 3
REMARK VINA RESULT:      -9.0     22.535     26.351
REMARK  Name = C:\Users\Docking\Desktop\test protocol\1iep_ligandH.pdb
REMARK  8 active torsions:
REMARK  status: ('A' for Active; 'I' for Inactive)
REMARK    1  A    between atoms: _5  and  _11
REMARK    2  A    between atoms: _19  and  _21
REMARK    3  A    between atoms: _22  and  _66
REMARK    4  A    between atoms: _27  and  _30
REMARK    5  A    between atoms: _32  and  _33
REMARK    6  A    between atoms: _38  and  _43
REMARK    7  A    between atoms: _43  and  _46
REMARK    8  A    between atoms: _53  and  _55
REMARK                            x       y       z     vdW  Elec       q    Type
REMARK                         _______ _______ _______ _____ _____    ______ ____
ROOT
ATOM     10  C   UNL     1       9.629  27.118  21.708  0.00  0.00    +0.038 A 
ATOM     11  C   UNL     1       9.304  28.416  21.237  0.00  0.00    +0.047 A 
ATOM     12  C   UNL     1       8.823  29.447  22.144  0.00  0.00    +0.035 A 
ATOM     32  C   UNL     1       8.686  29.121  23.525  0.00  0.00    +0.024 A 
ATOM     33  C   UNL     1       9.010  27.806  24.020  0.00  0.00    +0.007 A 
ATOM     34  C   UNL     1       9.484  26.785  23.130  0.00  0.00    -0.029 A 
ATOM     35  C   UNL     1       9.811  25.392  23.715  0.00  0.00    +0.045 C 
ENDROOT
BRANCH  10   9
ATOM      4  C   UNL     1       8.887  23.582  18.549  0.00  0.00    +0.077 A 
ATOM      5  C   UNL     1       7.468  23.613  18.758  0.00  0.00    +0.048 A 
ATOM      6  C   UNL     1       6.970  24.548  19.692  0.00  0.00    +0.116 A 
ATOM      7  N   UNL     1       7.836  25.386  20.361  0.00  0.00    -0.223 NA
ATOM      8  C   UNL     1       9.199  25.329  20.137  0.00  0.00    +0.220 A 
ATOM      9  N   UNL     1      10.088  26.167  20.793  0.00  0.00    -0.283 N 
ATOM     36  H   UNL     1      11.087  26.089  20.605  0.00  0.00    +0.155 HD
ATOM     37  N   UNL     1       9.700  24.443  19.251  0.00  0.00    -0.214 NA
BRANCH   4   3
ATOM      1  C   UNL     1       9.538  20.960  15.719  0.00  0.00    +0.020 A 
ATOM      2  C   UNL     1       8.835  21.843  16.622  0.00  0.00    +0.013 A 
ATOM      3  C   UNL     1       9.564  22.651  17.592  0.00  0.00    +0.019 A 
ATOM     38  C   UNL     1      11.015  22.541  17.622  0.00  0.00    +0.120 A 
ATOM     39  N   UNL     1      11.664  21.681  16.742  0.00  0.00    -0.263 NA
ATOM     40  C   UNL     1      10.973  20.898  15.805  0.00  0.00    +0.111 A 
ENDBRANCH   4   3
ENDBRANCH  10   9
BRANCH  12  13
ATOM     13  N   UNL     1       8.470  30.780  21.722  0.00  0.00    -0.281 N 
ATOM     14  C   UNL     1       7.662  31.151  20.660  0.00  0.00    +0.248 C 
ATOM     30  O   UNL     1       7.291  30.393  19.776  0.00  0.00    -0.270 OA
ATOM     31  H   UNL     1       8.863  31.542  22.274  0.00  0.00    +0.155 HD
BRANCH  14  15
ATOM     15  C   UNL     1       7.214  32.573  20.556  0.00  0.00    +0.037 A 
ATOM     16  C   UNL     1       8.149  33.682  20.764  0.00  0.00    +0.013 A 
ATOM     17  C   UNL     1       7.687  35.044  20.675  0.00  0.00    +0.005 A 
ATOM     18  C   UNL     1       6.281  35.305  20.375  0.00  0.00    -0.033 A 
ATOM     28  C   UNL     1       5.376  34.187  20.168  0.00  0.00    +0.005 A 
ATOM     29  C   UNL     1       5.825  32.850  20.256  0.00  0.00    +0.013 A 
BRANCH  18  19
ATOM     19  C   UNL     1       5.696  36.727  20.282  0.00  0.00    +0.119 C 
BRANCH  19  20
ATOM     20  N   UNL     1       5.176  37.167  18.953  0.00  0.00    -0.302 NA
ATOM     21  C   UNL     1       6.018  36.620  17.797  0.00  0.00    +0.066 C 
ATOM     22  C   UNL     1       5.447  37.071  16.413  0.00  0.00    -0.064 C 
ATOM     23  N   UNL     1       5.386  38.598  16.363  0.00  0.00    +0.379 N 
ATOM     24  C   UNL     1       4.903  39.027  15.042  0.00  0.00    -0.096 C 
ATOM     25  H   UNL     1       6.425  38.982  16.485  0.00  0.00    -0.082 HD
ATOM     26  C   UNL     1       4.552  39.151  17.511  0.00  0.00    -0.064 C 
ATOM     27  C   UNL     1       5.111  38.672  18.880  0.00  0.00    +0.066 C 
ENDBRANCH  19  20
ENDBRANCH  18  19
ENDBRANCH  14  15
ENDBRANCH  12  13
TORSDOF 6
ENDMDL
MODEL 4
REMARK VINA RESULT:      -8.8     23.735     26.806
REMARK  Name = C:\Users\Docking\Desktop\test protocol\1iep_ligandH.pdb
REMARK  8 active torsions:
REMARK  status: ('A' for Active; 'I' for Inactive)
REMARK    1  A    between atoms: _5  and  _11
REMARK    2  A    between atoms: _19  and  _21
REMARK    3  A    between atoms: _22  and  _66
REMARK    4  A    between atoms: _27  and  _30
REMARK    5  A    between atoms: _32  and  _33
REMARK    6  A    between atoms: _38  and  _43
REMARK    7  A    between atoms: _43  and  _46
REMARK    8  A    between atoms: _53  and  _55
REMARK                            x       y       z     vdW  Elec       q    Type
REMARK                         _______ _______ _______ _____ _____    ______ ____
ROOT
ATOM     10  C   UNL     1       9.210  27.360  21.160  0.00  0.00    +0.038 A 
ATOM     11  C   UNL     1       8.707  28.463  20.425  0.00  0.00    +0.047 A 
ATOM     12  C   UNL     1       8.382  29.720  21.081  0.00  0.00    +0.035 A 
ATOM     32  C   UNL     1       8.585  29.820  22.488  0.00  0.00    +0.024 A 
ATOM     33  C   UNL     1       9.095  28.708  23.252  0.00  0.00    +0.007 A 
ATOM     34  C   UNL     1       9.414  27.465  22.610  0.00  0.00    -0.029 A 
ATOM     35  C   UNL     1       9.952  26.304  23.480  0.00  0.00    +0.045 C 
ENDROOT
BRANCH  10   9
ATOM      4  C   UNL     1       7.923  23.175  19.194  0.00  0.00    +0.077 A 
ATOM      5  C   UNL     1       6.552  23.348  19.580  0.00  0.00    +0.048 A 
ATOM      6  C   UNL     1       6.221  24.524  20.289  0.00  0.00    +0.116 A 
ATOM      7  N   UNL     1       7.196  25.452  20.585  0.00  0.00    -0.223 NA
ATOM      8  C   UNL     1       8.509  25.253  20.200  0.00  0.00    +0.220 A 
ATOM      9  N   UNL     1       9.505  26.177  20.479  0.00  0.00    -0.283 N 
ATOM     36  H   UNL     1      10.463  25.990  20.184  0.00  0.00    +0.155 HD
ATOM     37  N   UNL     1       8.852  24.137  19.523  0.00  0.00    -0.214 NA
BRANCH   4   3
ATOM      1  C   UNL     1       9.273  20.863  16.342  0.00  0.00    +0.020 A 
ATOM      2  C   UNL     1       8.789  22.040  17.026  0.00  0.00    +0.013 A 
ATOM      3  C   UNL     1       8.429  21.986  18.437  0.00  0.00    +0.019 A 
ATOM     38  C   UNL     1       8.572  20.716  19.133  0.00  0.00    +0.120 A 
ATOM     39  N   UNL     1       9.039  19.599  18.448  0.00  0.00    -0.263 NA
ATOM     40  C   UNL     1       9.387  19.638  17.089  0.00  0.00    +0.111 A 
ENDBRANCH   4   3
ENDBRANCH  10   9
BRANCH  12  13
ATOM     13  N   UNL     1       7.861  30.872  20.387  0.00  0.00    -0.281 N 
ATOM     14  C   UNL     1       7.057  31.880  20.895  0.00  0.00    +0.248 C 
ATOM     30  O   UNL     1       6.486  31.831  21.974  0.00  0.00    -0.270 OA
ATOM     31  H   UNL     1       8.115  30.954  19.403  0.00  0.00    +0.155 HD
BRANCH  14  15
ATOM     15  C   UNL     1       6.846  33.114  20.079  0.00  0.00    +0.037 A 
ATOM     16  C   UNL     1       7.952  33.745  19.354  0.00  0.00    +0.013 A 
ATOM     17  C   UNL     1       7.724  34.945  18.588  0.00  0.00    +0.005 A 
ATOM     18  C   UNL     1       6.382  35.521  18.542  0.00  0.00    -0.033 A 
ATOM     28  C   UNL     1       5.302  34.871  19.266  0.00  0.00    +0.005 A 
ATOM     29  C   UNL     1       5.522  33.696  20.019  0.00  0.00    +0.013 A 
BRANCH  18  19
ATOM     19  C   UNL     1       6.052  36.810  17.768  0.00  0.00    +0.119 C 
BRANCH  19  20
ATOM     20  N   UNL     1       5.853  38.056  18.567  0.00  0.00    -0.302 NA
ATOM     21  C   UNL     1       5.629  37.756  20.052  0.00  0.00    +0.066 C 
ATOM     22  C   UNL     1       5.445  39.071  20.876  0.00  0.00    -0.064 C 
ATOM     23  N   UNL     1       4.273  39.871  20.302  0.00  0.00    +0.379 N 
ATOM     24  C   UNL     1       4.061  41.080  21.111  0.00  0.00    -0.096 C 
ATOM     25  H   UNL     1       3.358  39.239  20.390  0.00  0.00    -0.082 HD
ATOM     26  C   UNL     1       4.487  40.171  18.826  0.00  0.00    -0.064 C 
ATOM     27  C   UNL     1       4.698  38.859  18.020  0.00  0.00    +0.066 C 
ENDBRANCH  19  20
ENDBRANCH  18  19
ENDBRANCH  14  15
ENDBRANCH  12  13
TORSDOF 6
ENDMDL
MODEL 5
REMARK VINA RESULT:      -8.8      1.742      2.268
REMARK  Name = C:\Users\Docking\Desktop\test protocol\1iep_ligandH.pdb
REMARK  8 active torsions:
REMARK  status: ('A' for Active; 'I' for Inactive)
REMARK    1  A    between atoms: _5  and  _11
REMARK    2  A    between atoms: _19  and  _21
REMARK    3  A    between atoms: _22  and  _66
REMARK    4  A    between atoms: _27  and  _30
REMARK    5  A    between atoms: _32  and  _33
REMARK    6  A    between atoms: _38  and  _43
REMARK    7  A    between atoms: _43  and  _46
REMARK    8  A    between atoms: _53  and  _55
REMARK                            x       y       z     vdW  Elec       q    Type
REMARK                         _______ _______ _______ _____ _____    ______ ____
ROOT
ATOM     10  C   UNL     1      23.208  42.522  -0.227  0.00  0.00    +0.038 A 
ATOM     11  C   UNL     1      21.916  42.058   0.128  0.00  0.00    +0.047 A 
ATOM     12  C   UNL     1      20.871  41.901  -0.871  0.00  0.00    +0.035 A 
ATOM     32  C   UNL     1      21.177  42.224  -2.225  0.00  0.00    +0.024 A 
ATOM     33  C   UNL     1      22.485  42.698  -2.604  0.00  0.00    +0.007 A 
ATOM     34  C   UNL     1      23.519  42.857  -1.622  0.00  0.00    -0.029 A 
ATOM     35  C   UNL     1      24.901  43.376  -2.085  0.00  0.00    +0.045 C 
ENDROOT
BRANCH  10   9
ATOM      4  C   UNL     1      26.752  40.767   2.492  0.00  0.00    +0.077 A 
ATOM      5  C   UNL     1      26.654  39.470   1.886  0.00  0.00    +0.048 A 
ATOM      6  C   UNL     1      25.674  39.294   0.884  0.00  0.00    +0.116 A 
ATOM      7  N   UNL     1      24.858  40.344   0.522  0.00  0.00    -0.223 NA
ATOM      8  C   UNL     1      24.978  41.582   1.127  0.00  0.00    +0.220 A 
ATOM      9  N   UNL     1      24.173  42.654   0.773  0.00  0.00    -0.283 N 
ATOM     36  H   UNL     1      24.288  43.549   1.248  0.00  0.00    +0.155 HD
ATOM     37  N   UNL     1      25.905  41.775   2.088  0.00  0.00    -0.214 NA
BRANCH   4   3
ATOM      1  C   UNL     1      29.958  40.829   4.733  0.00  0.00    +0.020 A 
ATOM      2  C   UNL     1      29.040  40.460   3.680  0.00  0.00    +0.013 A 
ATOM      3  C   UNL     1      27.741  41.110   3.563  0.00  0.00    +0.019 A 
ATOM     38  C   UNL     1      27.399  42.139   4.534  0.00  0.00    +0.120 A 
ATOM     39  N   UNL     1      28.303  42.472   5.538  0.00  0.00    -0.263 NA
ATOM     40  C   UNL     1      29.555  41.852   5.662  0.00  0.00    +0.111 A 
ENDBRANCH   4   3
ENDBRANCH  10   9
BRANCH  12  13
ATOM     13  N   UNL     1      19.538  41.442  -0.568  0.00  0.00    -0.281 N 
ATOM     14  C   UNL     1      18.430  42.203  -0.235  0.00  0.00    +0.248 C 
ATOM     30  O   UNL     1      18.469  43.388   0.063  0.00  0.00    -0.270 OA
ATOM     31  H   UNL     1      19.394  40.432  -0.603  0.00  0.00    +0.155 HD
BRANCH  14  15
ATOM     15  C   UNL     1      17.085  41.551  -0.216  0.00  0.00    +0.037 A 
ATOM     16  C   UNL     1      16.930  40.138   0.139  0.00  0.00    +0.013 A 
ATOM     17  C   UNL     1      15.624  39.530   0.133  0.00  0.00    +0.005 A 
ATOM     18  C   UNL     1      14.460  40.336  -0.228  0.00  0.00    -0.033 A 
ATOM     28  C   UNL     1      14.641  41.737  -0.571  0.00  0.00    +0.005 A 
ATOM     29  C   UNL     1      15.921  42.336  -0.567  0.00  0.00    +0.013 A 
BRANCH  18  19
ATOM     19  C   UNL     1      13.031  39.764  -0.282  0.00  0.00    +0.119 C 
BRANCH  19  20
ATOM     20  N   UNL     1      11.951  40.561   0.374  0.00  0.00    -0.302 NA
ATOM     21  C   UNL     1      11.103  39.709   1.322  0.00  0.00    +0.066 C 
ATOM     22  C   UNL     1       9.992  40.563   2.016  0.00  0.00    -0.064 C 
ATOM     23  N   UNL     1       9.116  41.219   0.948  0.00  0.00    +0.379 N 
ATOM     24  C   UNL     1       8.036  41.976   1.597  0.00  0.00    -0.096 C 
ATOM     25  H   UNL     1       8.646  40.405   0.349  0.00  0.00    -0.082 HD
ATOM     26  C   UNL     1       9.952  42.067  -0.001  0.00  0.00    -0.064 C 
ATOM     27  C   UNL     1      11.071  41.215  -0.663  0.00  0.00    +0.066 C 
ENDBRANCH  19  20
ENDBRANCH  18  19
ENDBRANCH  14  15
ENDBRANCH  12  13
TORSDOF 6
ENDMDL
