MODEL 1
REMARK VINA RESULT:      -8.2      0.000      0.000
REMARK  Name = C:\Users\Docking\Desktop\test protocol\1iep_ligandH.pdb
REMARK  8 active torsions:
REMARK  status: ('A' for Active; 'I' for Inactive)
REMARK    1  A    between atoms: _5  and  _11
REMARK    2  A    between atoms: _19  and  _21
REMARK    3  A    between atoms: _22  and  _66
REMARK    4  A    between atoms: _27  and  _30
REMARK    5  A    between atoms: _32  and  _33
REMARK    6  A    between atoms: _38  and  _43
REMARK    7  A    between atoms: _43  and  _46
REMARK    8  A    between atoms: _53  and  _55
REMARK                            x       y       z     vdW  Elec       q    Type
REMARK                         _______ _______ _______ _____ _____    ______ ____
ROOT
ATOM     10  C   UNL     1      15.585  50.971  41.114  0.00  0.00    +0.038 A 
ATOM     11  C   UNL     1      15.087  49.660  41.321  0.00  0.00    +0.047 A 
ATOM     12  C   UNL     1      15.680  48.779  42.316  0.00  0.00    +0.035 A 
ATOM     32  C   UNL     1      16.777  49.268  43.083  0.00  0.00    +0.024 A 
ATOM     33  C   UNL     1      17.297  50.598  42.884  0.00  0.00    +0.007 A 
ATOM     34  C   UNL     1      16.717  51.470  41.903  0.00  0.00    -0.029 A 
ATOM     35  C   UNL     1      17.319  52.884  41.728  0.00  0.00    +0.045 C 
ENDROOT
BRANCH  10   9
ATOM      4  C   UNL     1      15.039  52.459  36.583  0.00  0.00    +0.077 A 
ATOM      5  C   UNL     1      16.070  51.581  36.108  0.00  0.00    +0.048 A 
ATOM      6  C   UNL     1      16.721  50.768  37.063  0.00  0.00    +0.116 A 
ATOM      7  N   UNL     1      16.360  50.836  38.391  0.00  0.00    -0.223 NA
ATOM      8  C   UNL     1      15.363  51.695  38.816  0.00  0.00    +0.220 A 
ATOM      9  N   UNL     1      14.978  51.775  40.146  0.00  0.00    -0.283 N 
ATOM     36  H   UNL     1      14.243  52.426  40.420  0.00  0.00    +0.155 HD
ATOM     37  N   UNL     1      14.727  52.483  37.924  0.00  0.00    -0.214 NA
BRANCH   4   3
ATOM      1  C   UNL     1      13.257  54.022  33.471  0.00  0.00    +0.020 A 
ATOM      2  C   UNL     1      14.019  53.102  34.284  0.00  0.00    +0.013 A 
ATOM      3  C   UNL     1      14.258  53.377  35.696  0.00  0.00    +0.019 A 
ATOM     38  C   UNL     1      13.706  54.601  36.258  0.00  0.00    +0.120 A 
ATOM     39  N   UNL     1      12.977  55.468  35.450  0.00  0.00    -0.263 NA
ATOM     40  C   UNL     1      12.743  55.215  34.090  0.00  0.00    +0.111 A 
ENDBRANCH   4   3
ENDBRANCH  10   9
BRANCH  12  13
ATOM     13  N   UNL     1      15.223  47.434  42.565  0.00  0.00    -0.281 N 
ATOM     14  C   UNL     1      14.332  47.004  43.535  0.00  0.00    +0.248 C 
ATOM     30  O   UNL     1      13.955  47.684  44.478  0.00  0.00    -0.270 OA
ATOM     31  H   UNL     1      15.602  46.712  41.953  0.00  0.00    +0.155 HD
BRANCH  14  15
ATOM     15  C   UNL     1      13.794  45.612  43.455  0.00  0.00    +0.037 A 
ATOM     16  C   UNL     1      14.677  44.468  43.213  0.00  0.00    +0.013 A 
ATOM     17  C   UNL     1      14.129  43.138  43.123  0.00  0.00    +0.005 A 
ATOM     18  C   UNL     1      12.689  42.944  43.276  0.00  0.00    -0.033 A 
ATOM     28  C   UNL     1      11.837  44.096  43.520  0.00  0.00    +0.005 A 
ATOM     29  C   UNL     1      12.370  45.402  43.608  0.00  0.00    +0.013 A 
BRANCH  18  19
ATOM     19  C   UNL     1      12.016  41.563  43.174  0.00  0.00    +0.119 C 
BRANCH  19  20
ATOM     20  N   UNL     1      12.130  40.842  41.871  0.00  0.00    -0.302 NA
ATOM     21  C   UNL     1      11.373  41.558  40.749  0.00  0.00    +0.066 C 
ATOM     22  C   UNL     1      11.522  40.802  39.389  0.00  0.00    -0.064 C 
ATOM     23  N   UNL     1      11.020  39.366  39.550  0.00  0.00    +0.379 N 
ATOM     24  C   UNL     1      11.104  38.669  38.258  0.00  0.00    -0.096 C 
ATOM     25  H   UNL     1       9.944  39.414  39.838  0.00  0.00    -0.082 HD
ATOM     26  C   UNL     1      11.765  38.647  40.665  0.00  0.00    -0.064 C 
ATOM     27  C   UNL     1      11.635  39.422  42.006  0.00  0.00    +0.066 C 
ENDBRANCH  19  20
ENDBRANCH  18  19
ENDBRANCH  14  15
ENDBRANCH  12  13
TORSDOF 6
ENDMDL
MODEL 2
REMARK VINA RESULT:      -8.2      7.092      8.620
REMARK  Name = C:\Users\Docking\Desktop\test protocol\1iep_ligandH.pdb
REMARK  8 active torsions:
REMARK  status: ('A' for Active; 'I' for Inactive)
REMARK    1  A    between atoms: _5  and  _11
REMARK    2  A    between atoms: _19  and  _21
REMARK    3  A    between atoms: _22  and  _66
REMARK    4  A    between atoms: _27  and  _30
REMARK    5  A    between atoms: _32  and  _33
REMARK    6  A    between atoms: _38  and  _43
REMARK    7  A    between atoms: _43  and  _46
REMARK    8  A    between atoms: _53  and  _55
REMARK                            x       y       z     vdW  Elec       q    Type
REMARK                         _______ _______ _______ _____ _____    ______ ____
ROOT
ATOM     10  C   UNL     1      18.802  51.730  38.726  0.00  0.00    +0.038 A 
ATOM     11  C   UNL     1      19.602  50.658  38.255  0.00  0.00    +0.047 A 
ATOM     12  C   UNL     1      20.390  49.848  39.171  0.00  0.00    +0.035 A 
ATOM     32  C   UNL     1      20.337  50.156  40.561  0.00  0.00    +0.024 A 
ATOM     33  C   UNL     1      19.531  51.244  41.057  0.00  0.00    +0.007 A 
ATOM     34  C   UNL     1      18.753  52.048  40.158  0.00  0.00    -0.029 A 
ATOM     35  C   UNL     1      17.911  53.204  40.745  0.00  0.00    +0.045 C 
ENDROOT
BRANCH  10   9
ATOM      4  C   UNL     1      14.737  52.743  36.384  0.00  0.00    +0.077 A 
ATOM      5  C   UNL     1      14.027  51.681  37.036  0.00  0.00    +0.048 A 
ATOM      6  C   UNL     1      14.746  50.893  37.962  0.00  0.00    +0.116 A 
ATOM      7  N   UNL     1      16.076  51.156  38.210  0.00  0.00    -0.223 NA
ATOM      8  C   UNL     1      16.731  52.187  37.562  0.00  0.00    +0.220 A 
ATOM      9  N   UNL     1      18.066  52.476  37.802  0.00  0.00    -0.283 N 
ATOM     36  H   UNL     1      18.515  53.240  37.298  0.00  0.00    +0.155 HD
ATOM     37  N   UNL     1      16.067  52.954  36.672  0.00  0.00    -0.214 NA
BRANCH   4   3
ATOM      1  C   UNL     1      13.368  54.253  33.045  0.00  0.00    +0.020 A 
ATOM      2  C   UNL     1      13.978  53.327  33.971  0.00  0.00    +0.013 A 
ATOM      3  C   UNL     1      14.114  53.665  35.382  0.00  0.00    +0.019 A 
ATOM     38  C   UNL     1      13.617  54.958  35.828  0.00  0.00    +0.120 A 
ATOM     39  N   UNL     1      13.036  55.831  34.913  0.00  0.00    -0.263 NA
ATOM     40  C   UNL     1      12.901  55.517  33.552  0.00  0.00    +0.111 A 
ENDBRANCH   4   3
ENDBRANCH  10   9
BRANCH  12  13
ATOM     13  N   UNL     1      21.227  48.752  38.750  0.00  0.00    -0.281 N 
ATOM     14  C   UNL     1      22.600  48.628  38.886  0.00  0.00    +0.248 C 
ATOM     30  O   UNL     1      23.349  49.541  39.201  0.00  0.00    -0.270 OA
ATOM     31  H   UNL     1      20.749  47.973  38.296  0.00  0.00    +0.155 HD
BRANCH  14  15
ATOM     15  C   UNL     1      23.235  47.301  38.619  0.00  0.00    +0.037 A 
ATOM     16  C   UNL     1      24.330  47.163  37.656  0.00  0.00    +0.013 A 
ATOM     17  C   UNL     1      24.914  45.868  37.406  0.00  0.00    +0.005 A 
ATOM     18  C   UNL     1      24.403  44.702  38.122  0.00  0.00    -0.033 A 
ATOM     28  C   UNL     1      23.318  44.869  39.075  0.00  0.00    +0.005 A 
ATOM     29  C   UNL     1      22.744  46.136  39.323  0.00  0.00    +0.013 A 
BRANCH  18  19
ATOM     19  C   UNL     1      24.951  43.279  37.901  0.00  0.00    +0.119 C 
BRANCH  19  20
ATOM     20  N   UNL     1      24.444  42.528  36.715  0.00  0.00    -0.302 NA
ATOM     21  C   UNL     1      25.199  42.898  35.435  0.00  0.00    +0.066 C 
ATOM     22  C   UNL     1      24.671  42.086  34.208  0.00  0.00    -0.064 C 
ATOM     23  N   UNL     1      23.171  42.333  34.043  0.00  0.00    +0.379 N 
ATOM     24  C   UNL     1      22.683  41.617  32.855  0.00  0.00    -0.096 C 
ATOM     25  H   UNL     1      23.026  43.424  33.863  0.00  0.00    -0.082 HD
ATOM     26  C   UNL     1      22.413  41.970  35.312  0.00  0.00    -0.064 C 
ATOM     27  C   UNL     1      22.965  42.761  36.531  0.00  0.00    +0.066 C 
ENDBRANCH  19  20
ENDBRANCH  18  19
ENDBRANCH  14  15
ENDBRANCH  12  13
TORSDOF 6
ENDMDL
MODEL 3
REMARK VINA RESULT:      -8.1      6.798      9.803
REMARK  Name = C:\Users\Docking\Desktop\test protocol\1iep_ligandH.pdb
REMARK  8 active torsions:
REMARK  status: ('A' for Active; 'I' for Inactive)
REMARK    1  A    between atoms: _5  and  _11
REMARK    2  A    between atoms: _19  and  _21
REMARK    3  A    between atoms: _22  and  _66
REMARK    4  A    between atoms: _27  and  _30
REMARK    5  A    between atoms: _32  and  _33
REMARK    6  A    between atoms: _38  and  _43
REMARK    7  A    between atoms: _43  and  _46
REMARK    8  A    between atoms: _53  and  _55
REMARK                            x       y       z     vdW  Elec       q    Type
REMARK                         _______ _______ _______ _____ _____    ______ ____
ROOT
ATOM     10  C   UNL     1      15.314  51.078  38.459  0.00  0.00    +0.038 A 
ATOM     11  C   UNL     1      14.421  51.086  39.560  0.00  0.00    +0.047 A 
ATOM     12  C   UNL     1      13.109  51.707  39.462  0.00  0.00    +0.035 A 
ATOM     32  C   UNL     1      12.739  52.309  38.224  0.00  0.00    +0.024 A 
ATOM     33  C   UNL     1      13.634  52.312  37.094  0.00  0.00    +0.007 A 
ATOM     34  C   UNL     1      14.930  51.703  37.187  0.00  0.00    -0.029 A 
ATOM     35  C   UNL     1      15.852  51.741  35.945  0.00  0.00    +0.045 C 
ENDROOT
BRANCH  10   9
ATOM      4  C   UNL     1      20.023  51.239  39.376  0.00  0.00    +0.077 A 
ATOM      5  C   UNL     1      20.002  52.664  39.543  0.00  0.00    +0.048 A 
ATOM      6  C   UNL     1      18.760  53.318  39.378  0.00  0.00    +0.116 A 
ATOM      7  N   UNL     1      17.631  52.592  39.068  0.00  0.00    -0.223 NA
ATOM      8  C   UNL     1      17.686  51.219  38.912  0.00  0.00    +0.220 A 
ATOM      9  N   UNL     1      16.561  50.468  38.609  0.00  0.00    -0.283 N 
ATOM     36  H   UNL     1      16.645  49.458  38.495  0.00  0.00    +0.155 HD
ATOM     37  N   UNL     1      18.860  50.571  39.063  0.00  0.00    -0.214 NA
BRANCH   4   3
ATOM      1  C   UNL     1      22.498  48.210  39.420  0.00  0.00    +0.020 A 
ATOM      2  C   UNL     1      21.279  48.970  39.265  0.00  0.00    +0.013 A 
ATOM      3  C   UNL     1      21.257  50.405  39.521  0.00  0.00    +0.019 A 
ATOM     38  C   UNL     1      22.496  51.045  39.936  0.00  0.00    +0.120 A 
ATOM     39  N   UNL     1      23.655  50.288  40.079  0.00  0.00    -0.263 NA
ATOM     40  C   UNL     1      23.687  48.906  39.836  0.00  0.00    +0.111 A 
ENDBRANCH   4   3
ENDBRANCH  10   9
BRANCH  12  13
ATOM     13  N   UNL     1      12.164  51.753  40.549  0.00  0.00    -0.281 N 
ATOM     14  C   UNL     1      12.193  52.567  41.670  0.00  0.00    +0.248 C 
ATOM     30  O   UNL     1      13.157  53.234  42.014  0.00  0.00    -0.270 OA
ATOM     31  H   UNL     1      11.377  51.107  40.485  0.00  0.00    +0.155 HD
BRANCH  14  15
ATOM     15  C   UNL     1      10.981  52.639  42.542  0.00  0.00    +0.037 A 
ATOM     16  C   UNL     1      10.281  51.426  42.972  0.00  0.00    +0.013 A 
ATOM     17  C   UNL     1       9.105  51.525  43.799  0.00  0.00    +0.005 A 
ATOM     18  C   UNL     1       8.621  52.843  44.202  0.00  0.00    -0.033 A 
ATOM     28  C   UNL     1       9.338  54.030  43.765  0.00  0.00    +0.005 A 
ATOM     29  C   UNL     1      10.491  53.937  42.954  0.00  0.00    +0.013 A 
BRANCH  18  19
ATOM     19  C   UNL     1       7.362  53.044  45.066  0.00  0.00    +0.119 C 
BRANCH  19  20
ATOM     20  N   UNL     1       6.043  52.743  44.433  0.00  0.00    -0.302 NA
ATOM     21  C   UNL     1       5.992  53.195  42.970  0.00  0.00    +0.066 C 
ATOM     22  C   UNL     1       4.614  52.852  42.317  0.00  0.00    -0.064 C 
ATOM     23  N   UNL     1       3.493  53.507  43.125  0.00  0.00    +0.379 N 
ATOM     24  C   UNL     1       2.200  53.235  42.480  0.00  0.00    -0.096 C 
ATOM     25  H   UNL     1       3.658  54.609  43.101  0.00  0.00    -0.082 HD
ATOM     26  C   UNL     1       3.538  53.066  44.581  0.00  0.00    -0.064 C 
ATOM     27  C   UNL     1       4.922  53.384  45.213  0.00  0.00    +0.066 C 
ENDBRANCH  19  20
ENDBRANCH  18  19
ENDBRANCH  14  15
ENDBRANCH  12  13
TORSDOF 6
ENDMDL
MODEL 4
REMARK VINA RESULT:      -8.1      5.740      7.950
REMARK  Name = C:\Users\Docking\Desktop\test protocol\1iep_ligandH.pdb
REMARK  8 active torsions:
REMARK  status: ('A' for Active; 'I' for Inactive)
REMARK    1  A    between atoms: _5  and  _11
REMARK    2  A    between atoms: _19  and  _21
REMARK    3  A    between atoms: _22  and  _66
REMARK    4  A    between atoms: _27  and  _30
REMARK    5  A    between atoms: _32  and  _33
REMARK    6  A    between atoms: _38  and  _43
REMARK    7  A    between atoms: _43  and  _46
REMARK    8  A    between atoms: _53  and  _55
REMARK                            x       y       z     vdW  Elec       q    Type
REMARK                         _______ _______ _______ _____ _____    ______ ____
ROOT
ATOM     10  C   UNL     1      14.778  52.049  38.726  0.00  0.00    +0.038 A 
ATOM     11  C   UNL     1      13.678  51.908  39.611  0.00  0.00    +0.047 A 
ATOM     12  C   UNL     1      13.495  50.696  40.395  0.00  0.00    +0.035 A 
ATOM     32  C   UNL     1      14.451  49.649  40.255  0.00  0.00    +0.024 A 
ATOM     33  C   UNL     1      15.574  49.776  39.359  0.00  0.00    +0.007 A 
ATOM     34  C   UNL     1      15.759  50.967  38.581  0.00  0.00    -0.029 A 
ATOM     35  C   UNL     1      16.978  51.045  37.632  0.00  0.00    +0.045 C 
ENDROOT
BRANCH  10   9
ATOM      4  C   UNL     1      13.774  54.816  34.934  0.00  0.00    +0.077 A 
ATOM      5  C   UNL     1      12.947  53.805  34.341  0.00  0.00    +0.048 A 
ATOM      6  C   UNL     1      12.811  52.585  35.040  0.00  0.00    +0.116 A 
ATOM      7  N   UNL     1      13.459  52.400  36.242  0.00  0.00    -0.223 NA
ATOM      8  C   UNL     1      14.251  53.395  36.786  0.00  0.00    +0.220 A 
ATOM      9  N   UNL     1      14.905  53.234  37.997  0.00  0.00    -0.283 N 
ATOM     36  H   UNL     1      15.486  53.989  38.361  0.00  0.00    +0.155 HD
ATOM     37  N   UNL     1      14.398  54.569  36.137  0.00  0.00    -0.214 NA
BRANCH   4   3
ATOM      1  C   UNL     1      14.406  57.674  32.339  0.00  0.00    +0.020 A 
ATOM      2  C   UNL     1      14.177  56.355  32.883  0.00  0.00    +0.013 A 
ATOM      3  C   UNL     1      14.013  56.159  34.318  0.00  0.00    +0.019 A 
ATOM     38  C   UNL     1      14.086  57.328  35.182  0.00  0.00    +0.120 A 
ATOM     39  N   UNL     1      14.308  58.585  34.629  0.00  0.00    -0.263 NA
ATOM     40  C   UNL     1      14.469  58.786  33.250  0.00  0.00    +0.111 A 
ENDBRANCH   4   3
ENDBRANCH  10   9
BRANCH  12  13
ATOM     13  N   UNL     1      12.394  50.493  41.303  0.00  0.00    -0.281 N 
ATOM     14  C   UNL     1      12.334  50.803  42.652  0.00  0.00    +0.248 C 
ATOM     30  O   UNL     1      13.300  51.109  43.334  0.00  0.00    -0.270 OA
ATOM     31  H   UNL     1      11.557  50.068  40.903  0.00  0.00    +0.155 HD
BRANCH  14  15
ATOM     15  C   UNL     1      11.011  50.752  43.347  0.00  0.00    +0.037 A 
ATOM     16  C   UNL     1      10.664  49.643  44.239  0.00  0.00    +0.013 A 
ATOM     17  C   UNL     1       9.375  49.609  44.883  0.00  0.00    +0.005 A 
ATOM     18  C   UNL     1       8.424  50.690  44.638  0.00  0.00    -0.033 A 
ATOM     28  C   UNL     1       8.796  51.781  43.753  0.00  0.00    +0.005 A 
ATOM     29  C   UNL     1      10.058  51.817  43.119  0.00  0.00    +0.013 A 
BRANCH  18  19
ATOM     19  C   UNL     1       7.018  50.726  45.267  0.00  0.00    +0.119 C 
BRANCH  19  20
ATOM     20  N   UNL     1       6.056  51.736  44.733  0.00  0.00    -0.302 NA
ATOM     21  C   UNL     1       4.871  51.956  45.678  0.00  0.00    +0.066 C 
ATOM     22  C   UNL     1       3.886  53.032  45.115  0.00  0.00    -0.064 C 
ATOM     23  N   UNL     1       3.401  52.600  43.730  0.00  0.00    +0.379 N 
ATOM     24  C   UNL     1       2.430  53.581  43.223  0.00  0.00    -0.096 C 
ATOM     25  H   UNL     1       2.870  51.627  43.847  0.00  0.00    -0.082 HD
ATOM     26  C   UNL     1       4.573  52.376  42.785  0.00  0.00    -0.064 C 
ATOM     27  C   UNL     1       5.561  51.327  43.368  0.00  0.00    +0.066 C 
ENDBRANCH  19  20
ENDBRANCH  18  19
ENDBRANCH  14  15
ENDBRANCH  12  13
TORSDOF 6
ENDMDL
MODEL 5
REMARK VINA RESULT:      -8.1      5.888     11.349
REMARK  Name = C:\Users\Docking\Desktop\test protocol\1iep_ligandH.pdb
REMARK  8 active torsions:
REMARK  status: ('A' for Active; 'I' for Inactive)
REMARK    1  A    between atoms: _5  and  _11
REMARK    2  A    between atoms: _19  and  _21
REMARK    3  A    between atoms: _22  and  _66
REMARK    4  A    between atoms: _27  and  _30
REMARK    5  A    between atoms: _32  and  _33
REMARK    6  A    between atoms: _38  and  _43
REMARK    7  A    between atoms: _43  and  _46
REMARK    8  A    between atoms: _53  and  _55
REMARK                            x       y       z     vdW  Elec       q    Type
REMARK                         _______ _______ _______ _____ _____    ______ ____
ROOT
ATOM     10  C   UNL     1      15.190  51.691  38.500  0.00  0.00    +0.038 A 
ATOM     11  C   UNL     1      16.540  51.446  38.858  0.00  0.00    +0.047 A 
ATOM     12  C   UNL     1      17.591  51.409  37.853  0.00  0.00    +0.035 A 
ATOM     32  C   UNL     1      17.231  51.629  36.491  0.00  0.00    +0.024 A 
ATOM     33  C   UNL     1      15.863  51.878  36.109  0.00  0.00    +0.007 A 
ATOM     34  C   UNL     1      14.822  51.913  37.096  0.00  0.00    -0.029 A 
ATOM     35  C   UNL     1      13.372  52.178  36.628  0.00  0.00    +0.045 C 
ENDROOT
BRANCH  10   9
ATOM      4  C   UNL     1      12.670  49.586  42.001  0.00  0.00    +0.077 A 
ATOM      5  C   UNL     1      13.318  48.324  41.789  0.00  0.00    +0.048 A 
ATOM      6  C   UNL     1      14.289  48.257  40.765  0.00  0.00    +0.116 A 
ATOM      7  N   UNL     1      14.582  49.375  40.014  0.00  0.00    -0.223 NA
ATOM      8  C   UNL     1      13.937  50.576  40.243  0.00  0.00    +0.220 A 
ATOM      9  N   UNL     1      14.222  51.715  39.506  0.00  0.00    -0.283 N 
ATOM     36  H   UNL     1      13.719  52.581  39.701  0.00  0.00    +0.155 HD
ATOM     37  N   UNL     1      13.005  50.666  41.215  0.00  0.00    -0.214 NA
BRANCH   4   3
ATOM      1  C   UNL     1      10.300  49.117  45.077  0.00  0.00    +0.020 A 
ATOM      2  C   UNL     1      11.319  48.845  44.089  0.00  0.00    +0.013 A 
ATOM      3  C   UNL     1      11.625  49.817  43.047  0.00  0.00    +0.019 A 
ATOM     38  C   UNL     1      10.876  51.065  43.033  0.00  0.00    +0.120 A 
ATOM     39  N   UNL     1       9.899  51.298  43.996  0.00  0.00    -0.263 NA
ATOM     40  C   UNL     1       9.595  50.370  45.002  0.00  0.00    +0.111 A 
ENDBRANCH   4   3
ENDBRANCH  10   9
BRANCH  12  13
ATOM     13  N   UNL     1      18.978  51.157  38.156  0.00  0.00    -0.281 N 
ATOM     14  C   UNL     1      19.525  50.744  39.360  0.00  0.00    +0.248 C 
ATOM     30  O   UNL     1      18.925  50.734  40.424  0.00  0.00    -0.270 OA
ATOM     31  H   UNL     1      19.636  51.301  37.390  0.00  0.00    +0.155 HD
BRANCH  14  15
ATOM     15  C   UNL     1      20.949  50.290  39.388  0.00  0.00    +0.037 A 
ATOM     16  C   UNL     1      22.027  51.195  39.793  0.00  0.00    +0.013 A 
ATOM     17  C   UNL     1      23.394  50.737  39.795  0.00  0.00    +0.005 A 
ATOM     18  C   UNL     1      23.689  49.364  39.391  0.00  0.00    -0.033 A 
ATOM     28  C   UNL     1      22.600  48.486  38.998  0.00  0.00    +0.005 A 
ATOM     29  C   UNL     1      21.259  48.932  38.994  0.00  0.00    +0.013 A 
BRANCH  18  19
ATOM     19  C   UNL     1      25.120  48.796  39.342  0.00  0.00    +0.119 C 
BRANCH  19  20
ATOM     20  N   UNL     1      26.045  49.361  38.315  0.00  0.00    -0.302 NA
ATOM     21  C   UNL     1      26.623  50.713  38.743  0.00  0.00    +0.066 C 
ATOM     22  C   UNL     1      27.606  51.278  37.666  0.00  0.00    -0.064 C 
ATOM     23  N   UNL     1      26.876  51.400  36.327  0.00  0.00    +0.379 N 
ATOM     24  C   UNL     1      27.781  51.986  35.327  0.00  0.00    -0.096 C 
ATOM     25  H   UNL     1      26.026  52.107  36.469  0.00  0.00    -0.082 HD
ATOM     26  C   UNL     1      26.296  50.061  35.896  0.00  0.00    -0.064 C 
ATOM     27  C   UNL     1      25.344  49.494  36.985  0.00  0.00    +0.066 C 
ENDBRANCH  19  20
ENDBRANCH  18  19
ENDBRANCH  14  15
ENDBRANCH  12  13
TORSDOF 6
ENDMDL
