MODEL 1
REMARK VINA RESULT:      -8.0      0.000      0.000
REMARK  Name = C:\Users\Docking\Desktop\test protocol\1iep_ligandH.pdb
REMARK  8 active torsions:
REMARK  status: ('A' for Active; 'I' for Inactive)
REMARK    1  A    between atoms: _5  and  _11
REMARK    2  A    between atoms: _19  and  _21
REMARK    3  A    between atoms: _22  and  _66
REMARK    4  A    between atoms: _27  and  _30
REMARK    5  A    between atoms: _32  and  _33
REMARK    6  A    between atoms: _38  and  _43
REMARK    7  A    between atoms: _43  and  _46
REMARK    8  A    between atoms: _53  and  _55
REMARK                            x       y       z     vdW  Elec       q    Type
REMARK                         _______ _______ _______ _____ _____    ______ ____
ROOT
ATOM     10  C   UNL     1     -19.948  41.480  28.073  0.00  0.00    +0.038 A 
ATOM     11  C   UNL     1     -18.531  41.504  28.116  0.00  0.00    +0.047 A 
ATOM     12  C   UNL     1     -17.820  42.342  29.069  0.00  0.00    +0.035 A 
ATOM     32  C   UNL     1     -18.585  43.142  29.966  0.00  0.00    +0.024 A 
ATOM     33  C   UNL     1     -20.027  43.132  29.936  0.00  0.00    +0.007 A 
ATOM     34  C   UNL     1     -20.733  42.309  28.996  0.00  0.00    -0.029 A 
ATOM     35  C   UNL     1     -22.279  42.342  29.004  0.00  0.00    +0.045 C 
ENDROOT
BRANCH  10   9
ATOM      4  C   UNL     1     -21.555  40.563  23.644  0.00  0.00    +0.077 A 
ATOM      5  C   UNL     1     -21.127  41.844  23.160  0.00  0.00    +0.048 A 
ATOM      6  C   UNL     1     -20.503  42.712  24.084  0.00  0.00    +0.116 A 
ATOM      7  N   UNL     1     -20.326  42.318  25.393  0.00  0.00    -0.223 NA
ATOM      8  C   UNL     1     -20.753  41.077  25.828  0.00  0.00    +0.220 A 
ATOM      9  N   UNL     1     -20.578  40.657  27.137  0.00  0.00    -0.283 N 
ATOM     36  H   UNL     1     -20.913  39.737  27.421  0.00  0.00    +0.155 HD
ATOM     37  N   UNL     1     -21.352  40.230  24.965  0.00  0.00    -0.214 NA
BRANCH   4   3
ATOM      1  C   UNL     1     -23.434  38.810  20.695  0.00  0.00    +0.020 A 
ATOM      2  C   UNL     1     -22.797  39.840  21.482  0.00  0.00    +0.013 A 
ATOM      3  C   UNL     1     -22.226  39.535  22.788  0.00  0.00    +0.019 A 
ATOM     38  C   UNL     1     -22.317  38.165  23.272  0.00  0.00    +0.120 A 
ATOM     39  N   UNL     1     -22.938  37.194  22.493  0.00  0.00    -0.263 NA
ATOM     40  C   UNL     1     -23.492  37.477  21.235  0.00  0.00    +0.111 A 
ENDBRANCH   4   3
ENDBRANCH  10   9
BRANCH  12  13
ATOM     13  N   UNL     1     -16.382  42.413  29.153  0.00  0.00    -0.281 N 
ATOM     14  C   UNL     1     -15.535  41.637  29.927  0.00  0.00    +0.248 C 
ATOM     30  O   UNL     1     -15.904  40.900  30.830  0.00  0.00    -0.270 OA
ATOM     31  H   UNL     1     -15.935  43.122  28.572  0.00  0.00    +0.155 HD
BRANCH  14  15
ATOM     15  C   UNL     1     -14.064  41.697  29.670  0.00  0.00    +0.037 A 
ATOM     16  C   UNL     1     -13.333  42.965  29.734  0.00  0.00    +0.013 A 
ATOM     17  C   UNL     1     -11.917  42.999  29.465  0.00  0.00    +0.005 A 
ATOM     18  C   UNL     1     -11.223  41.758  29.130  0.00  0.00    -0.033 A 
ATOM     28  C   UNL     1     -11.972  40.513  29.078  0.00  0.00    +0.005 A 
ATOM     29  C   UNL     1     -13.360  40.477  29.340  0.00  0.00    +0.013 A 
BRANCH  18  19
ATOM     19  C   UNL     1      -9.718  41.703  28.807  0.00  0.00    +0.119 C 
BRANCH  19  20
ATOM     20  N   UNL     1      -9.214  42.615  27.738  0.00  0.00    -0.302 NA
ATOM     21  C   UNL     1      -9.913  42.369  26.397  0.00  0.00    +0.066 C 
ATOM     22  C   UNL     1      -9.390  43.347  25.295  0.00  0.00    -0.064 C 
ATOM     23  N   UNL     1      -7.875  43.188  25.153  0.00  0.00    +0.379 N 
ATOM     24  C   UNL     1      -7.388  44.064  24.078  0.00  0.00    -0.096 C 
ATOM     25  H   UNL     1      -7.673  42.135  24.849  0.00  0.00    -0.082 HD
ATOM     26  C   UNL     1      -7.173  43.427  26.482  0.00  0.00    -0.064 C 
ATOM     27  C   UNL     1      -7.721  42.471  27.577  0.00  0.00    +0.066 C 
ENDBRANCH  19  20
ENDBRANCH  18  19
ENDBRANCH  14  15
ENDBRANCH  12  13
TORSDOF 6
ENDMDL
MODEL 2
REMARK VINA RESULT:      -7.9      5.924      8.449
REMARK  Name = C:\Users\Docking\Desktop\test protocol\1iep_ligandH.pdb
REMARK  8 active torsions:
REMARK  status: ('A' for Active; 'I' for Inactive)
REMARK    1  A    between atoms: _5  and  _11
REMARK    2  A    between atoms: _19  and  _21
REMARK    3  A    between atoms: _22  and  _66
REMARK    4  A    between atoms: _27  and  _30
REMARK    5  A    between atoms: _32  and  _33
REMARK    6  A    between atoms: _38  and  _43
REMARK    7  A    between atoms: _43  and  _46
REMARK    8  A    between atoms: _53  and  _55
REMARK                            x       y       z     vdW  Elec       q    Type
REMARK                         _______ _______ _______ _____ _____    ______ ____
ROOT
ATOM     10  C   UNL     1     -22.458  40.027  23.483  0.00  0.00    +0.038 A 
ATOM     11  C   UNL     1     -21.700  39.770  24.654  0.00  0.00    +0.047 A 
ATOM     12  C   UNL     1     -20.526  38.912  24.619  0.00  0.00    +0.035 A 
ATOM     32  C   UNL     1     -20.150  38.334  23.371  0.00  0.00    +0.024 A 
ATOM     33  C   UNL     1     -20.909  38.583  22.171  0.00  0.00    +0.007 A 
ATOM     34  C   UNL     1     -22.070  39.426  22.201  0.00  0.00    -0.029 A 
ATOM     35  C   UNL     1     -22.850  39.653  20.885  0.00  0.00    +0.045 C 
ENDROOT
BRANCH  10   9
ATOM      4  C   UNL     1     -24.497  44.364  23.740  0.00  0.00    +0.077 A 
ATOM      5  C   UNL     1     -23.226  45.028  23.717  0.00  0.00    +0.048 A 
ATOM      6  C   UNL     1     -22.071  44.217  23.645  0.00  0.00    +0.116 A 
ATOM      7  N   UNL     1     -22.191  42.845  23.601  0.00  0.00    -0.223 NA
ATOM      8  C   UNL     1     -23.432  42.236  23.627  0.00  0.00    +0.220 A 
ATOM      9  N   UNL     1     -23.576  40.859  23.575  0.00  0.00    -0.283 N 
ATOM     36  H   UNL     1     -24.509  40.448  23.604  0.00  0.00    +0.155 HD
ATOM     37  N   UNL     1     -24.550  42.989  23.696  0.00  0.00    -0.214 NA
BRANCH   4   3
ATOM      1  C   UNL     1     -27.202  47.172  24.056  0.00  0.00    +0.020 A 
ATOM      2  C   UNL     1     -25.911  46.526  23.995  0.00  0.00    +0.013 A 
ATOM      3  C   UNL     1     -25.808  45.084  23.811  0.00  0.00    +0.019 A 
ATOM     38  C   UNL     1     -27.040  44.318  23.691  0.00  0.00    +0.120 A 
ATOM     39  N   UNL     1     -28.269  44.968  23.755  0.00  0.00    -0.263 NA
ATOM     40  C   UNL     1     -28.380  46.355  23.933  0.00  0.00    +0.111 A 
ENDBRANCH   4   3
ENDBRANCH  10   9
BRANCH  12  13
ATOM     13  N   UNL     1     -19.723  38.609  25.777  0.00  0.00    -0.281 N 
ATOM     14  C   UNL     1     -19.208  39.493  26.711  0.00  0.00    +0.248 C 
ATOM     30  O   UNL     1     -19.180  40.707  26.572  0.00  0.00    -0.270 OA
ATOM     31  H   UNL     1     -19.508  37.623  25.927  0.00  0.00    +0.155 HD
BRANCH  14  15
ATOM     15  C   UNL     1     -18.625  38.950  27.975  0.00  0.00    +0.037 A 
ATOM     16  C   UNL     1     -17.752  39.766  28.822  0.00  0.00    +0.013 A 
ATOM     17  C   UNL     1     -17.189  39.211  30.028  0.00  0.00    +0.005 A 
ATOM     18  C   UNL     1     -17.500  37.832  30.395  0.00  0.00    -0.033 A 
ATOM     28  C   UNL     1     -18.374  37.046  29.539  0.00  0.00    +0.005 A 
ATOM     29  C   UNL     1     -18.926  37.586  28.356  0.00  0.00    +0.013 A 
BRANCH  18  19
ATOM     19  C   UNL     1     -16.928  37.151  31.652  0.00  0.00    +0.119 C 
BRANCH  19  20
ATOM     20  N   UNL     1     -16.789  35.664  31.622  0.00  0.00    -0.302 NA
ATOM     21  C   UNL     1     -16.838  35.054  33.025  0.00  0.00    +0.066 C 
ATOM     22  C   UNL     1     -16.714  33.496  32.973  0.00  0.00    -0.064 C 
ATOM     23  N   UNL     1     -15.415  33.115  32.261  0.00  0.00    +0.379 N 
ATOM     24  C   UNL     1     -15.267  31.652  32.262  0.00  0.00    -0.096 C 
ATOM     25  H   UNL     1     -14.569  33.541  32.850  0.00  0.00    -0.082 HD
ATOM     26  C   UNL     1     -15.357  33.720  30.866  0.00  0.00    -0.064 C 
ATOM     27  C   UNL     1     -15.510  35.265  30.927  0.00  0.00    +0.066 C 
ENDBRANCH  19  20
ENDBRANCH  18  19
ENDBRANCH  14  15
ENDBRANCH  12  13
TORSDOF 6
ENDMDL
MODEL 3
REMARK VINA RESULT:      -7.8      8.162     13.577
REMARK  Name = C:\Users\Docking\Desktop\test protocol\1iep_ligandH.pdb
REMARK  8 active torsions:
REMARK  status: ('A' for Active; 'I' for Inactive)
REMARK    1  A    between atoms: _5  and  _11
REMARK    2  A    between atoms: _19  and  _21
REMARK    3  A    between atoms: _22  and  _66
REMARK    4  A    between atoms: _27  and  _30
REMARK    5  A    between atoms: _32  and  _33
REMARK    6  A    between atoms: _38  and  _43
REMARK    7  A    between atoms: _43  and  _46
REMARK    8  A    between atoms: _53  and  _55
REMARK                            x       y       z     vdW  Elec       q    Type
REMARK                         _______ _______ _______ _____ _____    ______ ____
ROOT
ATOM     10  C   UNL     1     -16.231  50.851  25.446  0.00  0.00    +0.038 A 
ATOM     11  C   UNL     1     -17.314  49.958  25.247  0.00  0.00    +0.047 A 
ATOM     12  C   UNL     1     -18.459  49.951  26.144  0.00  0.00    +0.035 A 
ATOM     32  C   UNL     1     -18.469  50.871  27.233  0.00  0.00    +0.024 A 
ATOM     33  C   UNL     1     -17.376  51.785  27.451  0.00  0.00    +0.007 A 
ATOM     34  C   UNL     1     -16.243  51.794  26.571  0.00  0.00    -0.029 A 
ATOM     35  C   UNL     1     -15.096  52.792  26.857  0.00  0.00    +0.045 C 
ENDROOT
BRANCH  10   9
ATOM      4  C   UNL     1     -14.145  52.012  21.282  0.00  0.00    +0.077 A 
ATOM      5  C   UNL     1     -15.303  52.731  20.834  0.00  0.00    +0.048 A 
ATOM      6  C   UNL     1     -16.417  52.772  21.703  0.00  0.00    +0.116 A 
ATOM      7  N   UNL     1     -16.365  52.138  22.925  0.00  0.00    -0.223 NA
ATOM      8  C   UNL     1     -15.233  51.452  23.326  0.00  0.00    +0.220 A 
ATOM      9  N   UNL     1     -15.156  50.814  24.554  0.00  0.00    -0.283 N 
ATOM     36  H   UNL     1     -14.306  50.313  24.809  0.00  0.00    +0.155 HD
ATOM     37  N   UNL     1     -14.157  51.397  22.514  0.00  0.00    -0.214 NA
BRANCH   4   3
ATOM      1  C   UNL     1     -10.901  50.578  19.633  0.00  0.00    +0.020 A 
ATOM      2  C   UNL     1     -12.107  50.652  20.424  0.00  0.00    +0.013 A 
ATOM      3  C   UNL     1     -12.888  51.882  20.479  0.00  0.00    +0.019 A 
ATOM     38  C   UNL     1     -12.416  53.027  19.716  0.00  0.00    +0.120 A 
ATOM     39  N   UNL     1     -11.250  52.927  18.964  0.00  0.00    -0.263 NA
ATOM     40  C   UNL     1     -10.490  51.750  18.904  0.00  0.00    +0.111 A 
ENDBRANCH   4   3
ENDBRANCH  10   9
BRANCH  12  13
ATOM     13  N   UNL     1     -19.584  49.062  25.996  0.00  0.00    -0.281 N 
ATOM     14  C   UNL     1     -20.831  49.347  25.464  0.00  0.00    +0.248 C 
ATOM     30  O   UNL     1     -21.241  50.474  25.229  0.00  0.00    -0.270 OA
ATOM     31  H   UNL     1     -19.444  48.106  26.323  0.00  0.00    +0.155 HD
BRANCH  14  15
ATOM     15  C   UNL     1     -21.763  48.218  25.164  0.00  0.00    +0.037 A 
ATOM     16  C   UNL     1     -23.213  48.371  25.307  0.00  0.00    +0.013 A 
ATOM     17  C   UNL     1     -24.089  47.261  25.027  0.00  0.00    +0.005 A 
ATOM     18  C   UNL     1     -23.516  45.987  24.599  0.00  0.00    -0.033 A 
ATOM     28  C   UNL     1     -22.074  45.864  24.460  0.00  0.00    +0.005 A 
ATOM     29  C   UNL     1     -21.213  46.950  24.734  0.00  0.00    +0.013 A 
BRANCH  18  19
ATOM     19  C   UNL     1     -24.373  44.743  24.299  0.00  0.00    +0.119 C 
BRANCH  19  20
ATOM     20  N   UNL     1     -23.702  43.412  24.394  0.00  0.00    -0.302 NA
ATOM     21  C   UNL     1     -23.684  42.681  23.048  0.00  0.00    +0.066 C 
ATOM     22  C   UNL     1     -22.959  41.300  23.161  0.00  0.00    -0.064 C 
ATOM     23  N   UNL     1     -23.649  40.450  24.229  0.00  0.00    +0.379 N 
ATOM     24  C   UNL     1     -23.006  39.130  24.296  0.00  0.00    -0.096 C 
ATOM     25  H   UNL     1     -24.706  40.296  23.908  0.00  0.00    -0.082 HD
ATOM     26  C   UNL     1     -23.675  41.171  25.570  0.00  0.00    -0.064 C 
ATOM     27  C   UNL     1     -24.371  42.554  25.440  0.00  0.00    +0.066 C 
ENDBRANCH  19  20
ENDBRANCH  18  19
ENDBRANCH  14  15
ENDBRANCH  12  13
TORSDOF 6
ENDMDL
MODEL 4
REMARK VINA RESULT:      -7.7      7.177     12.771
REMARK  Name = C:\Users\Docking\Desktop\test protocol\1iep_ligandH.pdb
REMARK  8 active torsions:
REMARK  status: ('A' for Active; 'I' for Inactive)
REMARK    1  A    between atoms: _5  and  _11
REMARK    2  A    between atoms: _19  and  _21
REMARK    3  A    between atoms: _22  and  _66
REMARK    4  A    between atoms: _27  and  _30
REMARK    5  A    between atoms: _32  and  _33
REMARK    6  A    between atoms: _38  and  _43
REMARK    7  A    between atoms: _43  and  _46
REMARK    8  A    between atoms: _53  and  _55
REMARK                            x       y       z     vdW  Elec       q    Type
REMARK                         _______ _______ _______ _____ _____    ______ ____
ROOT
ATOM     10  C   UNL     1     -21.540  48.224  25.141  0.00  0.00    +0.038 A 
ATOM     11  C   UNL     1     -21.253  46.942  24.608  0.00  0.00    +0.047 A 
ATOM     12  C   UNL     1     -22.319  46.036  24.209  0.00  0.00    +0.035 A 
ATOM     32  C   UNL     1     -23.667  46.470  24.365  0.00  0.00    +0.024 A 
ATOM     33  C   UNL     1     -23.978  47.770  24.906  0.00  0.00    +0.007 A 
ATOM     34  C   UNL     1     -22.930  48.667  25.304  0.00  0.00    -0.029 A 
ATOM     35  C   UNL     1     -23.322  50.046  25.884  0.00  0.00    +0.045 C 
ENDROOT
BRANCH  10   9
ATOM      4  C   UNL     1     -18.256  49.753  28.290  0.00  0.00    +0.077 A 
ATOM      5  C   UNL     1     -18.713  48.842  29.299  0.00  0.00    +0.048 A 
ATOM      6  C   UNL     1     -19.801  48.002  28.971  0.00  0.00    +0.116 A 
ATOM      7  N   UNL     1     -20.380  48.076  27.722  0.00  0.00    -0.223 NA
ATOM      8  C   UNL     1     -19.916  48.967  26.772  0.00  0.00    +0.220 A 
ATOM      9  N   UNL     1     -20.478  49.053  25.508  0.00  0.00    -0.283 N 
ATOM     36  H   UNL     1     -20.111  49.729  24.838  0.00  0.00    +0.155 HD
ATOM     37  N   UNL     1     -18.879  49.781  27.062  0.00  0.00    -0.214 NA
BRANCH   4   3
ATOM      1  C   UNL     1     -14.655  51.251  28.587  0.00  0.00    +0.020 A 
ATOM      2  C   UNL     1     -15.719  50.294  28.390  0.00  0.00    +0.013 A 
ATOM      3  C   UNL     1     -17.115  50.703  28.485  0.00  0.00    +0.019 A 
ATOM     38  C   UNL     1     -17.402  52.098  28.781  0.00  0.00    +0.120 A 
ATOM     39  N   UNL     1     -16.356  52.997  28.966  0.00  0.00    -0.263 NA
ATOM     40  C   UNL     1     -15.009  52.615  28.880  0.00  0.00    +0.111 A 
ENDBRANCH   4   3
ENDBRANCH  10   9
BRANCH  12  13
ATOM     13  N   UNL     1     -22.088  44.719  23.669  0.00  0.00    -0.281 N 
ATOM     14  C   UNL     1     -21.325  43.698  24.212  0.00  0.00    +0.248 C 
ATOM     30  O   UNL     1     -20.548  43.837  25.145  0.00  0.00    -0.270 OA
ATOM     31  H   UNL     1     -22.541  44.515  22.779  0.00  0.00    +0.155 HD
BRANCH  14  15
ATOM     15  C   UNL     1     -21.430  42.328  23.624  0.00  0.00    +0.037 A 
ATOM     16  C   UNL     1     -20.275  41.428  23.585  0.00  0.00    +0.013 A 
ATOM     17  C   UNL     1     -20.398  40.117  22.996  0.00  0.00    +0.005 A 
ATOM     18  C   UNL     1     -21.685  39.699  22.444  0.00  0.00    -0.033 A 
ATOM     28  C   UNL     1     -22.816  40.610  22.501  0.00  0.00    +0.005 A 
ATOM     29  C   UNL     1     -22.698  41.896  23.076  0.00  0.00    +0.013 A 
BRANCH  18  19
ATOM     19  C   UNL     1     -21.903  38.327  21.778  0.00  0.00    +0.119 C 
BRANCH  19  20
ATOM     20  N   UNL     1     -23.214  37.653  22.015  0.00  0.00    -0.302 NA
ATOM     21  C   UNL     1     -23.276  36.983  23.390  0.00  0.00    +0.066 C 
ATOM     22  C   UNL     1     -24.663  36.303  23.630  0.00  0.00    -0.064 C 
ATOM     23  N   UNL     1     -24.927  35.284  22.519  0.00  0.00    +0.379 N 
ATOM     24  C   UNL     1     -26.203  34.601  22.773  0.00  0.00    -0.096 C 
ATOM     25  H   UNL     1     -24.118  34.518  22.564  0.00  0.00    -0.082 HD
ATOM     26  C   UNL     1     -24.864  35.942  21.148  0.00  0.00    -0.064 C 
ATOM     27  C   UNL     1     -23.493  36.641  20.932  0.00  0.00    +0.066 C 
ENDBRANCH  19  20
ENDBRANCH  18  19
ENDBRANCH  14  15
ENDBRANCH  12  13
TORSDOF 6
ENDMDL
MODEL 5
REMARK VINA RESULT:      -7.7      8.027     12.600
REMARK  Name = C:\Users\Docking\Desktop\test protocol\1iep_ligandH.pdb
REMARK  8 active torsions:
REMARK  status: ('A' for Active; 'I' for Inactive)
REMARK    1  A    between atoms: _5  and  _11
REMARK    2  A    between atoms: _19  and  _21
REMARK    3  A    between atoms: _22  and  _66
REMARK    4  A    between atoms: _27  and  _30
REMARK    5  A    between atoms: _32  and  _33
REMARK    6  A    between atoms: _38  and  _43
REMARK    7  A    between atoms: _43  and  _46
REMARK    8  A    between atoms: _53  and  _55
REMARK                            x       y       z     vdW  Elec       q    Type
REMARK                         _______ _______ _______ _____ _____    ______ ____
ROOT
ATOM     10  C   UNL     1     -16.019  33.801  29.960  0.00  0.00    +0.038 A 
ATOM     11  C   UNL     1     -16.906  34.563  29.159  0.00  0.00    +0.047 A 
ATOM     12  C   UNL     1     -17.771  35.574  29.747  0.00  0.00    +0.035 A 
ATOM     32  C   UNL     1     -17.704  35.784  31.155  0.00  0.00    +0.024 A 
ATOM     33  C   UNL     1     -16.808  35.018  31.985  0.00  0.00    +0.007 A 
ATOM     34  C   UNL     1     -15.954  34.017  31.410  0.00  0.00    -0.029 A 
ATOM     35  C   UNL     1     -15.018  33.221  32.349  0.00  0.00    +0.045 C 
ENDROOT
BRANCH  10   9
ATOM      4  C   UNL     1     -14.994  29.270  28.752  0.00  0.00    +0.077 A 
ATOM      5  C   UNL     1     -16.152  28.765  29.432  0.00  0.00    +0.048 A 
ATOM      6  C   UNL     1     -16.981  29.703  30.086  0.00  0.00    +0.116 A 
ATOM      7  N   UNL     1     -16.667  31.044  30.056  0.00  0.00    -0.223 NA
ATOM      8  C   UNL     1     -15.542  31.498  29.392  0.00  0.00    +0.220 A 
ATOM      9  N   UNL     1     -15.211  32.843  29.342  0.00  0.00    -0.283 N 
ATOM     36  H   UNL     1     -14.368  33.137  28.849  0.00  0.00    +0.155 HD
ATOM     37  N   UNL     1     -14.733  30.622  28.761  0.00  0.00    -0.214 NA
BRANCH   4   3
ATOM      1  C   UNL     1     -12.543  27.888  26.035  0.00  0.00    +0.020 A 
ATOM      2  C   UNL     1     -13.479  28.759  26.708  0.00  0.00    +0.013 A 
ATOM      3  C   UNL     1     -14.022  28.404  28.012  0.00  0.00    +0.019 A 
ATOM     38  C   UNL     1     -13.595  27.150  28.615  0.00  0.00    +0.120 A 
ATOM     39  N   UNL     1     -12.693  26.330  27.943  0.00  0.00    -0.263 NA
ATOM     40  C   UNL     1     -12.165  26.661  26.686  0.00  0.00    +0.111 A 
ENDBRANCH   4   3
ENDBRANCH  10   9
BRANCH  12  13
ATOM     13  N   UNL     1     -18.699  36.373  28.985  0.00  0.00    -0.281 N 
ATOM     14  C   UNL     1     -18.589  37.711  28.643  0.00  0.00    +0.248 C 
ATOM     30  O   UNL     1     -17.773  38.483  29.124  0.00  0.00    -0.270 OA
ATOM     31  H   UNL     1     -19.538  35.895  28.659  0.00  0.00    +0.155 HD
BRANCH  14  15
ATOM     15  C   UNL     1     -19.531  38.277  27.630  0.00  0.00    +0.037 A 
ATOM     16  C   UNL     1     -20.833  37.656  27.372  0.00  0.00    +0.013 A 
ATOM     17  C   UNL     1     -21.715  38.212  26.377  0.00  0.00    +0.005 A 
ATOM     18  C   UNL     1     -21.298  39.398  25.632  0.00  0.00    -0.033 A 
ATOM     28  C   UNL     1     -20.003  39.996  25.911  0.00  0.00    +0.005 A 
ATOM     29  C   UNL     1     -19.135  39.453  26.885  0.00  0.00    +0.013 A 
BRANCH  18  19
ATOM     19  C   UNL     1     -22.166  40.046  24.538  0.00  0.00    +0.119 C 
BRANCH  19  20
ATOM     20  N   UNL     1     -22.448  39.233  23.318  0.00  0.00    -0.302 NA
ATOM     21  C   UNL     1     -22.835  40.106  22.121  0.00  0.00    +0.066 C 
ATOM     22  C   UNL     1     -23.105  39.241  20.848  0.00  0.00    -0.064 C 
ATOM     23  N   UNL     1     -24.204  38.221  21.151  0.00  0.00    +0.379 N 
ATOM     24  C   UNL     1     -24.501  37.444  19.939  0.00  0.00    -0.096 C 
ATOM     25  H   UNL     1     -25.125  38.788  21.424  0.00  0.00    -0.082 HD
ATOM     26  C   UNL     1     -23.829  37.350  22.342  0.00  0.00    -0.064 C 
ATOM     27  C   UNL     1     -23.534  38.222  23.594  0.00  0.00    +0.066 C 
ENDBRANCH  19  20
ENDBRANCH  18  19
ENDBRANCH  14  15
ENDBRANCH  12  13
TORSDOF 6
ENDMDL
