MODEL 1
REMARK VINA RESULT:      -8.5      0.000      0.000
REMARK  Name = C:\Users\Docking\Desktop\test protocol\1iep_ligandH.pdb
REMARK  8 active torsions:
REMARK  status: ('A' for Active; 'I' for Inactive)
REMARK    1  A    between atoms: _5  and  _11
REMARK    2  A    between atoms: _19  and  _21
REMARK    3  A    between atoms: _22  and  _66
REMARK    4  A    between atoms: _27  and  _30
REMARK    5  A    between atoms: _32  and  _33
REMARK    6  A    between atoms: _38  and  _43
REMARK    7  A    between atoms: _43  and  _46
REMARK    8  A    between atoms: _53  and  _55
REMARK                            x       y       z     vdW  Elec       q    Type
REMARK                         _______ _______ _______ _____ _____    ______ ____
ROOT
ATOM     10  C   UNL     1       7.031  17.461  10.044  0.00  0.00    +0.038 A 
ATOM     11  C   UNL     1       7.338  18.706  10.651  0.00  0.00    +0.047 A 
ATOM     12  C   UNL     1       7.286  18.873  12.095  0.00  0.00    +0.035 A 
ATOM     32  C   UNL     1       6.919  17.749  12.892  0.00  0.00    +0.024 A 
ATOM     33  C   UNL     1       6.603  16.477  12.292  0.00  0.00    +0.007 A 
ATOM     34  C   UNL     1       6.651  16.307  10.868  0.00  0.00    -0.029 A 
ATOM     35  C   UNL     1       6.295  14.922  10.279  0.00  0.00    +0.045 C 
ENDROOT
BRANCH  10   9
ATOM      4  C   UNL     1       9.290  16.217   5.996  0.00  0.00    +0.077 A 
ATOM      5  C   UNL     1      10.446  15.760   6.712  0.00  0.00    +0.048 A 
ATOM      6  C   UNL     1      10.423  15.869   8.121  0.00  0.00    +0.116 A 
ATOM      7  N   UNL     1       9.319  16.397   8.755  0.00  0.00    -0.223 NA
ATOM      8  C   UNL     1       8.221  16.830   8.035  0.00  0.00    +0.220 A 
ATOM      9  N   UNL     1       7.098  17.357   8.653  0.00  0.00    -0.283 N 
ATOM     36  H   UNL     1       6.312  17.673   8.086  0.00  0.00    +0.155 HD
ATOM     37  N   UNL     1       8.220  16.738   6.689  0.00  0.00    -0.214 NA
BRANCH   4   3
ATOM      1  C   UNL     1       7.872  16.468   2.360  0.00  0.00    +0.020 A 
ATOM      2  C   UNL     1       7.942  16.536   3.801  0.00  0.00    +0.013 A 
ATOM      3  C   UNL     1       9.163  16.165   4.506  0.00  0.00    +0.019 A 
ATOM     38  C   UNL     1      10.304  15.727   3.716  0.00  0.00    +0.120 A 
ATOM     39  N   UNL     1      10.206  15.670   2.329  0.00  0.00    -0.263 NA
ATOM     40  C   UNL     1       9.036  16.023   1.640  0.00  0.00    +0.111 A 
ENDBRANCH   4   3
ENDBRANCH  10   9
BRANCH  12  13
ATOM     13  N   UNL     1       7.579  20.115  12.767  0.00  0.00    -0.281 N 
ATOM     14  C   UNL     1       6.692  20.974  13.394  0.00  0.00    +0.248 C 
ATOM     30  O   UNL     1       5.476  20.911  13.287  0.00  0.00    -0.270 OA
ATOM     31  H   UNL     1       8.560  20.394  12.781  0.00  0.00    +0.155 HD
BRANCH  14  15
ATOM     15  C   UNL     1       7.233  22.070  14.253  0.00  0.00    +0.037 A 
ATOM     16  C   UNL     1       7.991  23.184  13.676  0.00  0.00    +0.013 A 
ATOM     17  C   UNL     1       8.517  24.220  14.529  0.00  0.00    +0.005 A 
ATOM     18  C   UNL     1       8.285  24.147  15.970  0.00  0.00    -0.033 A 
ATOM     28  C   UNL     1       7.526  23.034  16.515  0.00  0.00    +0.005 A 
ATOM     29  C   UNL     1       7.010  22.016  15.682  0.00  0.00    +0.013 A 
BRANCH  18  19
ATOM     19  C   UNL     1       8.828  25.197  16.958  0.00  0.00    +0.119 C 
BRANCH  19  20
ATOM     20  N   UNL     1       8.368  25.103  18.376  0.00  0.00    -0.302 NA
ATOM     21  C   UNL     1       7.092  25.914  18.621  0.00  0.00    +0.066 C 
ATOM     22  C   UNL     1       6.612  25.787  20.103  0.00  0.00    -0.064 C 
ATOM     23  N   UNL     1       7.732  26.243  21.040  0.00  0.00    +0.379 N 
ATOM     24  C   UNL     1       7.264  26.180  22.432  0.00  0.00    -0.096 C 
ATOM     25  H   UNL     1       7.955  27.310  20.806  0.00  0.00    -0.082 HD
ATOM     26  C   UNL     1       9.006  25.444  20.801  0.00  0.00    -0.064 C 
ATOM     27  C   UNL     1       9.457  25.553  19.318  0.00  0.00    +0.066 C 
ENDBRANCH  19  20
ENDBRANCH  18  19
ENDBRANCH  14  15
ENDBRANCH  12  13
TORSDOF 6
ENDMDL
MODEL 2
REMARK VINA RESULT:      -8.4      2.128      2.699
REMARK  Name = C:\Users\Docking\Desktop\test protocol\1iep_ligandH.pdb
REMARK  8 active torsions:
REMARK  status: ('A' for Active; 'I' for Inactive)
REMARK    1  A    between atoms: _5  and  _11
REMARK    2  A    between atoms: _19  and  _21
REMARK    3  A    between atoms: _22  and  _66
REMARK    4  A    between atoms: _27  and  _30
REMARK    5  A    between atoms: _32  and  _33
REMARK    6  A    between atoms: _38  and  _43
REMARK    7  A    between atoms: _43  and  _46
REMARK    8  A    between atoms: _53  and  _55
REMARK                            x       y       z     vdW  Elec       q    Type
REMARK                         _______ _______ _______ _____ _____    ______ ____
ROOT
ATOM     10  C   UNL     1      10.828  16.955   9.941  0.00  0.00    +0.038 A 
ATOM     11  C   UNL     1      10.670  18.239  10.522  0.00  0.00    +0.047 A 
ATOM     12  C   UNL     1      10.694  18.419  11.965  0.00  0.00    +0.035 A 
ATOM     32  C   UNL     1      10.882  17.270  12.787  0.00  0.00    +0.024 A 
ATOM     33  C   UNL     1      11.043  15.957  12.213  0.00  0.00    +0.007 A 
ATOM     34  C   UNL     1      11.018  15.773  10.790  0.00  0.00    -0.029 A 
ATOM     35  C   UNL     1      11.189  14.342  10.230  0.00  0.00    +0.045 C 
ENDROOT
BRANCH  10   9
ATOM      4  C   UNL     1       8.540  16.061   5.817  0.00  0.00    +0.077 A 
ATOM      5  C   UNL     1       7.308  15.773   6.494  0.00  0.00    +0.048 A 
ATOM      6  C   UNL     1       7.308  15.860   7.905  0.00  0.00    +0.116 A 
ATOM      7  N   UNL     1       8.458  16.209   8.577  0.00  0.00    -0.223 NA
ATOM      8  C   UNL     1       9.630  16.478   7.894  0.00  0.00    +0.220 A 
ATOM      9  N   UNL     1      10.797  16.839   8.549  0.00  0.00    -0.283 N 
ATOM     36  H   UNL     1      11.642  17.023   8.009  0.00  0.00    +0.155 HD
ATOM     37  N   UNL     1       9.657  16.401   6.547  0.00  0.00    -0.214 NA
BRANCH   4   3
ATOM      1  C   UNL     1       7.850  16.358   1.978  0.00  0.00    +0.020 A 
ATOM      2  C   UNL     1       7.646  16.421   3.407  0.00  0.00    +0.013 A 
ATOM      3  C   UNL     1       8.699  16.015   4.329  0.00  0.00    +0.019 A 
ATOM     38  C   UNL     1       9.957  15.547   3.769  0.00  0.00    +0.120 A 
ATOM     39  N   UNL     1      10.125  15.496   2.388  0.00  0.00    -0.263 NA
ATOM     40  C   UNL     1       9.118  15.882   1.491  0.00  0.00    +0.111 A 
ENDBRANCH   4   3
ENDBRANCH  10   9
BRANCH  12  13
ATOM     13  N   UNL     1      10.531  19.697  12.613  0.00  0.00    -0.281 N 
ATOM     14  C   UNL     1       9.662  20.721  12.272  0.00  0.00    +0.248 C 
ATOM     30  O   UNL     1       9.038  20.777  11.222  0.00  0.00    -0.270 OA
ATOM     31  H   UNL     1      11.130  19.869  13.421  0.00  0.00    +0.155 HD
BRANCH  14  15
ATOM     15  C   UNL     1       9.468  21.852  13.229  0.00  0.00    +0.037 A 
ATOM     16  C   UNL     1       8.405  22.841  13.030  0.00  0.00    +0.013 A 
ATOM     17  C   UNL     1       8.250  23.933  13.959  0.00  0.00    +0.005 A 
ATOM     18  C   UNL     1       9.161  24.040  15.096  0.00  0.00    -0.033 A 
ATOM     28  C   UNL     1      10.203  23.042  15.272  0.00  0.00    +0.005 A 
ATOM     29  C   UNL     1      10.359  21.972  14.363  0.00  0.00    +0.013 A 
BRANCH  18  19
ATOM     19  C   UNL     1       9.083  25.183  16.125  0.00  0.00    +0.119 C 
BRANCH  19  20
ATOM     20  N   UNL     1       7.925  25.178  17.067  0.00  0.00    -0.302 NA
ATOM     21  C   UNL     1       8.193  26.027  18.313  0.00  0.00    +0.066 C 
ATOM     22  C   UNL     1       6.962  26.028  19.277  0.00  0.00    -0.064 C 
ATOM     23  N   UNL     1       6.622  24.588  19.666  0.00  0.00    +0.379 N 
ATOM     24  C   UNL     1       5.501  24.590  20.618  0.00  0.00    -0.096 C 
ATOM     25  H   UNL     1       7.509  24.160  20.188  0.00  0.00    -0.082 HD
ATOM     26  C   UNL     1       6.356  23.736  18.433  0.00  0.00    -0.064 C 
ATOM     27  C   UNL     1       7.574  23.766  17.468  0.00  0.00    +0.066 C 
ENDBRANCH  19  20
ENDBRANCH  18  19
ENDBRANCH  14  15
ENDBRANCH  12  13
TORSDOF 6
ENDMDL
MODEL 3
REMARK VINA RESULT:      -8.3      5.342     12.421
REMARK  Name = C:\Users\Docking\Desktop\test protocol\1iep_ligandH.pdb
REMARK  8 active torsions:
REMARK  status: ('A' for Active; 'I' for Inactive)
REMARK    1  A    between atoms: _5  and  _11
REMARK    2  A    between atoms: _19  and  _21
REMARK    3  A    between atoms: _22  and  _66
REMARK    4  A    between atoms: _27  and  _30
REMARK    5  A    between atoms: _32  and  _33
REMARK    6  A    between atoms: _38  and  _43
REMARK    7  A    between atoms: _43  and  _46
REMARK    8  A    between atoms: _53  and  _55
REMARK                            x       y       z     vdW  Elec       q    Type
REMARK                         _______ _______ _______ _____ _____    ______ ____
ROOT
ATOM     10  C   UNL     1      10.010  23.246  12.067  0.00  0.00    +0.038 A 
ATOM     11  C   UNL     1       9.879  22.105  11.235  0.00  0.00    +0.047 A 
ATOM     12  C   UNL     1       9.393  20.840  11.763  0.00  0.00    +0.035 A 
ATOM     32  C   UNL     1       9.047  20.772  13.144  0.00  0.00    +0.024 A 
ATOM     33  C   UNL     1       9.175  21.922  14.005  0.00  0.00    +0.007 A 
ATOM     34  C   UNL     1       9.656  23.172  13.490  0.00  0.00    -0.029 A 
ATOM     35  C   UNL     1       9.779  24.370  14.461  0.00  0.00    +0.045 C 
ENDROOT
BRANCH  10   9
ATOM      4  C   UNL     1      13.520  26.379  11.121  0.00  0.00    +0.077 A 
ATOM      5  C   UNL     1      14.492  25.592  11.824  0.00  0.00    +0.048 A 
ATOM      6  C   UNL     1      14.047  24.392  12.421  0.00  0.00    +0.116 A 
ATOM      7  N   UNL     1      12.725  24.016  12.316  0.00  0.00    -0.223 NA
ATOM      8  C   UNL     1      11.813  24.798  11.632  0.00  0.00    +0.220 A 
ATOM      9  N   UNL     1      10.481  24.436  11.508  0.00  0.00    -0.283 N 
ATOM     36  H   UNL     1       9.838  25.044  11.001  0.00  0.00    +0.155 HD
ATOM     37  N   UNL     1      12.214  25.950  11.055  0.00  0.00    -0.214 NA
BRANCH   4   3
ATOM      1  C   UNL     1      14.830  29.990  10.381  0.00  0.00    +0.020 A 
ATOM      2  C   UNL     1      14.548  28.762  11.089  0.00  0.00    +0.013 A 
ATOM      3  C   UNL     1      13.838  27.671  10.435  0.00  0.00    +0.019 A 
ATOM     38  C   UNL     1      13.425  27.854   9.051  0.00  0.00    +0.120 A 
ATOM     39  N   UNL     1      13.710  29.048   8.395  0.00  0.00    -0.263 NA
ATOM     40  C   UNL     1      14.391  30.106   9.016  0.00  0.00    +0.111 A 
ENDBRANCH   4   3
ENDBRANCH  10   9
BRANCH  12  13
ATOM     13  N   UNL     1       9.247  19.646  10.967  0.00  0.00    -0.281 N 
ATOM     14  C   UNL     1       9.891  18.431  11.129  0.00  0.00    +0.248 C 
ATOM     30  O   UNL     1      10.856  18.252  11.857  0.00  0.00    -0.270 OA
ATOM     31  H   UNL     1       8.588  19.704  10.191  0.00  0.00    +0.155 HD
BRANCH  14  15
ATOM     15  C   UNL     1       9.403  17.246  10.359  0.00  0.00    +0.037 A 
ATOM     16  C   UNL     1       9.782  15.883  10.741  0.00  0.00    +0.013 A 
ATOM     17  C   UNL     1       9.310  14.759   9.971  0.00  0.00    +0.005 A 
ATOM     18  C   UNL     1       8.452  14.995   8.812  0.00  0.00    -0.033 A 
ATOM     28  C   UNL     1       8.087  16.357   8.459  0.00  0.00    +0.005 A 
ATOM     29  C   UNL     1       8.549  17.461   9.211  0.00  0.00    +0.013 A 
BRANCH  18  19
ATOM     19  C   UNL     1       7.920  13.857   7.921  0.00  0.00    +0.119 C 
BRANCH  19  20
ATOM     20  N   UNL     1       6.469  13.886   7.568  0.00  0.00    -0.302 NA
ATOM     21  C   UNL     1       5.632  13.015   8.508  0.00  0.00    +0.066 C 
ATOM     22  C   UNL     1       4.114  13.075   8.138  0.00  0.00    -0.064 C 
ATOM     23  N   UNL     1       3.928  12.637   6.684  0.00  0.00    +0.379 N 
ATOM     24  C   UNL     1       2.496  12.637   6.351  0.00  0.00    -0.096 C 
ATOM     25  H   UNL     1       4.296  11.588   6.598  0.00  0.00    -0.082 HD
ATOM     26  C   UNL     1       4.760  13.496   5.743  0.00  0.00    -0.064 C 
ATOM     27  C   UNL     1       6.263  13.453   6.137  0.00  0.00    +0.066 C 
ENDBRANCH  19  20
ENDBRANCH  18  19
ENDBRANCH  14  15
ENDBRANCH  12  13
TORSDOF 6
ENDMDL
MODEL 4
REMARK VINA RESULT:      -8.3      1.331      1.753
REMARK  Name = C:\Users\Docking\Desktop\test protocol\1iep_ligandH.pdb
REMARK  8 active torsions:
REMARK  status: ('A' for Active; 'I' for Inactive)
REMARK    1  A    between atoms: _5  and  _11
REMARK    2  A    between atoms: _19  and  _21
REMARK    3  A    between atoms: _22  and  _66
REMARK    4  A    between atoms: _27  and  _30
REMARK    5  A    between atoms: _32  and  _33
REMARK    6  A    between atoms: _38  and  _43
REMARK    7  A    between atoms: _43  and  _46
REMARK    8  A    between atoms: _53  and  _55
REMARK                            x       y       z     vdW  Elec       q    Type
REMARK                         _______ _______ _______ _____ _____    ______ ____
ROOT
ATOM     10  C   UNL     1       6.624  16.657   9.875  0.00  0.00    +0.038 A 
ATOM     11  C   UNL     1       7.083  17.811  10.560  0.00  0.00    +0.047 A 
ATOM     12  C   UNL     1       7.025  17.898  12.011  0.00  0.00    +0.035 A 
ATOM     32  C   UNL     1       6.495  16.789  12.734  0.00  0.00    +0.024 A 
ATOM     33  C   UNL     1       6.023  15.609  12.053  0.00  0.00    +0.007 A 
ATOM     34  C   UNL     1       6.076  15.519  10.622  0.00  0.00    -0.029 A 
ATOM     35  C   UNL     1       5.549  14.232   9.945  0.00  0.00    +0.045 C 
ENDROOT
BRANCH  10   9
ATOM      4  C   UNL     1       9.063  16.047   5.787  0.00  0.00    +0.077 A 
ATOM      5  C   UNL     1      10.289  15.791   6.487  0.00  0.00    +0.048 A 
ATOM      6  C   UNL     1      10.251  15.834   7.899  0.00  0.00    +0.116 A 
ATOM      7  N   UNL     1       9.069  16.111   8.551  0.00  0.00    -0.223 NA
ATOM      8  C   UNL     1       7.905  16.354   7.846  0.00  0.00    +0.220 A 
ATOM      9  N   UNL     1       6.704  16.628   8.481  0.00  0.00    -0.283 N 
ATOM     36  H   UNL     1       5.869  16.809   7.925  0.00  0.00    +0.155 HD
ATOM     37  N   UNL     1       7.916  16.321   6.497  0.00  0.00    -0.214 NA
BRANCH   4   3
ATOM      1  C   UNL     1       7.613  16.210   2.158  0.00  0.00    +0.020 A 
ATOM      2  C   UNL     1       7.675  16.231   3.601  0.00  0.00    +0.013 A 
ATOM      3  C   UNL     1       8.942  16.035   4.295  0.00  0.00    +0.019 A 
ATOM     38  C   UNL     1      10.137  15.820   3.492  0.00  0.00    +0.120 A 
ATOM     39  N   UNL     1      10.046  15.804   2.104  0.00  0.00    -0.263 NA
ATOM     40  C   UNL     1       8.832  15.989   1.425  0.00  0.00    +0.111 A 
ENDBRANCH   4   3
ENDBRANCH  10   9
BRANCH  12  13
ATOM     13  N   UNL     1       7.469  19.047  12.761  0.00  0.00    -0.281 N 
ATOM     14  C   UNL     1       8.149  20.159  12.292  0.00  0.00    +0.248 C 
ATOM     30  O   UNL     1       8.669  20.237  11.189  0.00  0.00    -0.270 OA
ATOM     31  H   UNL     1       7.256  19.039  13.759  0.00  0.00    +0.155 HD
BRANCH  14  15
ATOM     15  C   UNL     1       8.283  21.352  13.182  0.00  0.00    +0.037 A 
ATOM     16  C   UNL     1       7.708  21.363  14.530  0.00  0.00    +0.013 A 
ATOM     17  C   UNL     1       7.837  22.533  15.362  0.00  0.00    +0.005 A 
ATOM     18  C   UNL     1       8.545  23.703  14.848  0.00  0.00    -0.033 A 
ATOM     28  C   UNL     1       9.110  23.663  13.509  0.00  0.00    +0.005 A 
ATOM     29  C   UNL     1       8.985  22.518  12.691  0.00  0.00    +0.013 A 
BRANCH  18  19
ATOM     19  C   UNL     1       8.713  25.002  15.658  0.00  0.00    +0.119 C 
BRANCH  19  20
ATOM     20  N   UNL     1       9.061  24.866  17.104  0.00  0.00    -0.302 NA
ATOM     21  C   UNL     1       8.373  25.931  17.962  0.00  0.00    +0.066 C 
ATOM     22  C   UNL     1       8.731  25.761  19.475  0.00  0.00    -0.064 C 
ATOM     23  N   UNL     1      10.249  25.823  19.648  0.00  0.00    +0.379 N 
ATOM     24  C   UNL     1      10.585  25.722  21.075  0.00  0.00    -0.096 C 
ATOM     25  H   UNL     1      10.589  26.823  19.290  0.00  0.00    -0.082 HD
ATOM     26  C   UNL     1      10.941  24.769  18.795  0.00  0.00    -0.064 C 
ATOM     27  C   UNL     1      10.556  24.929  17.298  0.00  0.00    +0.066 C 
ENDBRANCH  19  20
ENDBRANCH  18  19
ENDBRANCH  14  15
ENDBRANCH  12  13
TORSDOF 6
ENDMDL
MODEL 5
REMARK VINA RESULT:      -8.2      5.140     12.638
REMARK  Name = C:\Users\Docking\Desktop\test protocol\1iep_ligandH.pdb
REMARK  8 active torsions:
REMARK  status: ('A' for Active; 'I' for Inactive)
REMARK    1  A    between atoms: _5  and  _11
REMARK    2  A    between atoms: _19  and  _21
REMARK    3  A    between atoms: _22  and  _66
REMARK    4  A    between atoms: _27  and  _30
REMARK    5  A    between atoms: _32  and  _33
REMARK    6  A    between atoms: _38  and  _43
REMARK    7  A    between atoms: _43  and  _46
REMARK    8  A    between atoms: _53  and  _55
REMARK                            x       y       z     vdW  Elec       q    Type
REMARK                         _______ _______ _______ _____ _____    ______ ____
ROOT
ATOM     10  C   UNL     1      10.320  23.394  12.116  0.00  0.00    +0.038 A 
ATOM     11  C   UNL     1      10.132  22.302  11.232  0.00  0.00    +0.047 A 
ATOM     12  C   UNL     1       9.710  20.999  11.723  0.00  0.00    +0.035 A 
ATOM     32  C   UNL     1       9.486  20.846  13.123  0.00  0.00    +0.024 A 
ATOM     33  C   UNL     1       9.674  21.945  14.036  0.00  0.00    +0.007 A 
ATOM     34  C   UNL     1      10.092  23.232  13.557  0.00  0.00    -0.029 A 
ATOM     35  C   UNL     1      10.283  24.373  14.583  0.00  0.00    +0.045 C 
ENDROOT
BRANCH  10   9
ATOM      4  C   UNL     1      13.689  26.657  11.098  0.00  0.00    +0.077 A 
ATOM      5  C   UNL     1      14.725  25.859  11.689  0.00  0.00    +0.048 A 
ATOM      6  C   UNL     1      14.347  24.619  12.250  0.00  0.00    +0.116 A 
ATOM      7  N   UNL     1      13.030  24.216  12.217  0.00  0.00    -0.223 NA
ATOM      8  C   UNL     1      12.056  25.011  11.641  0.00  0.00    +0.220 A 
ATOM      9  N   UNL     1      10.726  24.623  11.590  0.00  0.00    -0.283 N 
ATOM     36  H   UNL     1      10.036  25.241  11.163  0.00  0.00    +0.155 HD
ATOM     37  N   UNL     1      12.390  26.201  11.099  0.00  0.00    -0.214 NA
BRANCH   4   3
ATOM      1  C   UNL     1      13.646  29.660   8.591  0.00  0.00    +0.020 A 
ATOM      2  C   UNL     1      13.383  28.359   9.162  0.00  0.00    +0.013 A 
ATOM      3  C   UNL     1      13.931  27.991  10.461  0.00  0.00    +0.019 A 
ATOM     38  C   UNL     1      14.746  28.970  11.164  0.00  0.00    +0.120 A 
ATOM     39  N   UNL     1      14.984  30.215  10.589  0.00  0.00    -0.263 NA
ATOM     40  C   UNL     1      14.464  30.580   9.338  0.00  0.00    +0.111 A 
ENDBRANCH   4   3
ENDBRANCH  10   9
BRANCH  12  13
ATOM     13  N   UNL     1       9.511  19.851  10.874  0.00  0.00    -0.281 N 
ATOM     14  C   UNL     1      10.124  18.612  10.960  0.00  0.00    +0.248 C 
ATOM     30  O   UNL     1      11.099  18.370  11.655  0.00  0.00    -0.270 OA
ATOM     31  H   UNL     1       8.836  19.966  10.117  0.00  0.00    +0.155 HD
BRANCH  14  15
ATOM     15  C   UNL     1       9.583  17.481  10.145  0.00  0.00    +0.037 A 
ATOM     16  C   UNL     1      10.412  16.320   9.812  0.00  0.00    +0.013 A 
ATOM     17  C   UNL     1       9.871  15.251   9.010  0.00  0.00    +0.005 A 
ATOM     18  C   UNL     1       8.492  15.338   8.537  0.00  0.00    -0.033 A 
ATOM     28  C   UNL     1       7.690  16.499   8.887  0.00  0.00    +0.005 A 
ATOM     29  C   UNL     1       8.217  17.549   9.672  0.00  0.00    +0.013 A 
BRANCH  18  19
ATOM     19  C   UNL     1       7.839  14.255   7.659  0.00  0.00    +0.119 C 
BRANCH  19  20
ATOM     20  N   UNL     1       7.853  14.471   6.181  0.00  0.00    -0.302 NA
ATOM     21  C   UNL     1       9.098  15.239   5.725  0.00  0.00    +0.066 C 
ATOM     22  C   UNL     1       9.108  15.437   4.175  0.00  0.00    -0.064 C 
ATOM     23  N   UNL     1       7.834  16.169   3.749  0.00  0.00    +0.379 N 
ATOM     24  C   UNL     1       7.867  16.408   2.298  0.00  0.00    -0.096 C 
ATOM     25  H   UNL     1       7.829  17.162   4.255  0.00  0.00    -0.082 HD
ATOM     26  C   UNL     1       6.592  15.414   4.200  0.00  0.00    -0.064 C 
ATOM     27  C   UNL     1       6.606  15.197   5.739  0.00  0.00    +0.066 C 
ENDBRANCH  19  20
ENDBRANCH  18  19
ENDBRANCH  14  15
ENDBRANCH  12  13
TORSDOF 6
ENDMDL
