MODEL 1
REMARK VINA RESULT:      -8.2      0.000      0.000
REMARK  Name = C:\Users\Docking\Desktop\test protocol\1iep_ligandH.pdb
REMARK  8 active torsions:
REMARK  status: ('A' for Active; 'I' for Inactive)
REMARK    1  A    between atoms: _5  and  _11
REMARK    2  A    between atoms: _19  and  _21
REMARK    3  A    between atoms: _22  and  _66
REMARK    4  A    between atoms: _27  and  _30
REMARK    5  A    between atoms: _32  and  _33
REMARK    6  A    between atoms: _38  and  _43
REMARK    7  A    between atoms: _43  and  _46
REMARK    8  A    between atoms: _53  and  _55
REMARK                            x       y       z     vdW  Elec       q    Type
REMARK                         _______ _______ _______ _____ _____    ______ ____
ROOT
ATOM     10  C   UNL     1       7.056  16.303   8.452  0.00  0.00    +0.038 A 
ATOM     11  C   UNL     1       7.549  17.389   9.221  0.00  0.00    +0.047 A 
ATOM     12  C   UNL     1       6.647  18.253   9.967  0.00  0.00    +0.035 A 
ATOM     32  C   UNL     1       5.249  17.981   9.910  0.00  0.00    +0.024 A 
ATOM     33  C   UNL     1       4.731  16.883   9.133  0.00  0.00    +0.007 A 
ATOM     34  C   UNL     1       5.615  16.028   8.393  0.00  0.00    -0.029 A 
ATOM     35  C   UNL     1       5.004  14.870   7.572  0.00  0.00    +0.045 C 
ENDROOT
BRANCH  10   9
ATOM      4  C   UNL     1       9.553  15.188   4.508  0.00  0.00    +0.077 A 
ATOM      5  C   UNL     1       8.975  16.270   3.764  0.00  0.00    +0.048 A 
ATOM      6  C   UNL     1       8.033  17.085   4.431  0.00  0.00    +0.116 A 
ATOM      7  N   UNL     1       7.703  16.829   5.744  0.00  0.00    -0.223 NA
ATOM      8  C   UNL     1       8.278  15.777   6.432  0.00  0.00    +0.220 A 
ATOM      9  N   UNL     1       7.966  15.506   7.756  0.00  0.00    -0.283 N 
ATOM     36  H   UNL     1       8.407  14.715   8.226  0.00  0.00    +0.155 HD
ATOM     37  N   UNL     1       9.179  14.982   5.817  0.00  0.00    -0.214 NA
BRANCH   4   3
ATOM      1  C   UNL     1      11.344  12.562   2.228  0.00  0.00    +0.020 A 
ATOM      2  C   UNL     1      10.333  13.463   2.732  0.00  0.00    +0.013 A 
ATOM      3  C   UNL     1      10.565  14.240   3.943  0.00  0.00    +0.019 A 
ATOM     38  C   UNL     1      11.840  14.081   4.626  0.00  0.00    +0.120 A 
ATOM     39  N   UNL     1      12.794  13.204   4.118  0.00  0.00    -0.263 NA
ATOM     40  C   UNL     1      12.582  12.451   2.954  0.00  0.00    +0.111 A 
ENDBRANCH   4   3
ENDBRANCH  10   9
BRANCH  12  13
ATOM     13  N   UNL     1       7.089  19.374  10.758  0.00  0.00    -0.281 N 
ATOM     14  C   UNL     1       7.354  19.406  12.118  0.00  0.00    +0.248 C 
ATOM     30  O   UNL     1       7.045  18.522  12.903  0.00  0.00    -0.270 OA
ATOM     31  H   UNL     1       7.222  20.252  10.255  0.00  0.00    +0.155 HD
BRANCH  14  15
ATOM     15  C   UNL     1       8.051  20.598  12.690  0.00  0.00    +0.037 A 
ATOM     16  C   UNL     1       7.411  21.436  13.707  0.00  0.00    +0.013 A 
ATOM     17  C   UNL     1       8.099  22.590  14.230  0.00  0.00    +0.005 A 
ATOM     18  C   UNL     1       9.436  22.912  13.737  0.00  0.00    -0.033 A 
ATOM     28  C   UNL     1      10.049  22.060  12.731  0.00  0.00    +0.005 A 
ATOM     29  C   UNL     1       9.378  20.929  12.216  0.00  0.00    +0.013 A 
BRANCH  18  19
ATOM     19  C   UNL     1      10.234  24.136  14.223  0.00  0.00    +0.119 C 
BRANCH  19  20
ATOM     20  N   UNL     1      10.834  24.062  15.588  0.00  0.00    -0.302 NA
ATOM     21  C   UNL     1       9.879  24.585  16.665  0.00  0.00    +0.066 C 
ATOM     22  C   UNL     1      10.514  24.480  18.090  0.00  0.00    -0.064 C 
ATOM     23  N   UNL     1      11.833  25.253  18.115  0.00  0.00    +0.379 N 
ATOM     24  C   UNL     1      12.404  25.205  19.469  0.00  0.00    -0.096 C 
ATOM     25  H   UNL     1      11.605  26.319  17.882  0.00  0.00    -0.082 HD
ATOM     26  C   UNL     1      12.789  24.742  17.046  0.00  0.00    -0.064 C 
ATOM     27  C   UNL     1      12.137  24.823  15.637  0.00  0.00    +0.066 C 
ENDBRANCH  19  20
ENDBRANCH  18  19
ENDBRANCH  14  15
ENDBRANCH  12  13
TORSDOF 6
ENDMDL
MODEL 2
REMARK VINA RESULT:      -8.2      1.563      2.030
REMARK  Name = C:\Users\Docking\Desktop\test protocol\1iep_ligandH.pdb
REMARK  8 active torsions:
REMARK  status: ('A' for Active; 'I' for Inactive)
REMARK    1  A    between atoms: _5  and  _11
REMARK    2  A    between atoms: _19  and  _21
REMARK    3  A    between atoms: _22  and  _66
REMARK    4  A    between atoms: _27  and  _30
REMARK    5  A    between atoms: _32  and  _33
REMARK    6  A    between atoms: _38  and  _43
REMARK    7  A    between atoms: _43  and  _46
REMARK    8  A    between atoms: _53  and  _55
REMARK                            x       y       z     vdW  Elec       q    Type
REMARK                         _______ _______ _______ _____ _____    ______ ____
ROOT
ATOM     10  C   UNL     1       7.055  16.040   8.174  0.00  0.00    +0.038 A 
ATOM     11  C   UNL     1       7.567  17.107   8.956  0.00  0.00    +0.047 A 
ATOM     12  C   UNL     1       6.680  17.982   9.708  0.00  0.00    +0.035 A 
ATOM     32  C   UNL     1       5.277  17.740   9.642  0.00  0.00    +0.024 A 
ATOM     33  C   UNL     1       4.740  16.661   8.851  0.00  0.00    +0.007 A 
ATOM     34  C   UNL     1       5.610  15.796   8.106  0.00  0.00    -0.029 A 
ATOM     35  C   UNL     1       4.978  14.659   7.270  0.00  0.00    +0.045 C 
ENDROOT
BRANCH  10   9
ATOM      4  C   UNL     1       9.668  15.002   4.284  0.00  0.00    +0.077 A 
ATOM      5  C   UNL     1       9.184  16.154   3.579  0.00  0.00    +0.048 A 
ATOM      6  C   UNL     1       8.259  16.985   4.250  0.00  0.00    +0.116 A 
ATOM      7  N   UNL     1       7.855  16.676   5.531  0.00  0.00    -0.223 NA
ATOM      8  C   UNL     1       8.339  15.556   6.182  0.00  0.00    +0.220 A 
ATOM      9  N   UNL     1       7.952  15.231   7.473  0.00  0.00    -0.283 N 
ATOM     36  H   UNL     1       8.327  14.393   7.915  0.00  0.00    +0.155 HD
ATOM     37  N   UNL     1       9.222  14.747   5.562  0.00  0.00    -0.214 NA
BRANCH   4   3
ATOM      1  C   UNL     1      11.344  12.277   2.033  0.00  0.00    +0.020 A 
ATOM      2  C   UNL     1      10.359  13.199   2.548  0.00  0.00    +0.013 A 
ATOM      3  C   UNL     1      10.651  14.030   3.710  0.00  0.00    +0.019 A 
ATOM     38  C   UNL     1      11.961  13.903   4.330  0.00  0.00    +0.120 A 
ATOM     39  N   UNL     1      12.890  13.005   3.813  0.00  0.00    -0.263 NA
ATOM     40  C   UNL     1      12.619  12.199   2.697  0.00  0.00    +0.111 A 
ENDBRANCH   4   3
ENDBRANCH  10   9
BRANCH  12  13
ATOM     13  N   UNL     1       7.142  19.086  10.512  0.00  0.00    -0.281 N 
ATOM     14  C   UNL     1       7.323  19.122  11.885  0.00  0.00    +0.248 C 
ATOM     30  O   UNL     1       6.910  18.271  12.659  0.00  0.00    -0.270 OA
ATOM     31  H   UNL     1       7.361  19.945  10.009  0.00  0.00    +0.155 HD
BRANCH  14  15
ATOM     15  C   UNL     1       8.056  20.277  12.487  0.00  0.00    +0.037 A 
ATOM     16  C   UNL     1       7.376  21.238  13.359  0.00  0.00    +0.013 A 
ATOM     17  C   UNL     1       8.103  22.353  13.913  0.00  0.00    +0.005 A 
ATOM     18  C   UNL     1       9.521  22.511  13.596  0.00  0.00    -0.033 A 
ATOM     28  C   UNL     1      10.172  21.540  12.733  0.00  0.00    +0.005 A 
ATOM     29  C   UNL     1       9.462  20.447  12.187  0.00  0.00    +0.013 A 
BRANCH  18  19
ATOM     19  C   UNL     1      10.370  23.682  14.125  0.00  0.00    +0.119 C 
BRANCH  19  20
ATOM     20  N   UNL     1      11.797  23.743  13.691  0.00  0.00    -0.302 NA
ATOM     21  C   UNL     1      12.756  23.323  14.808  0.00  0.00    +0.066 C 
ATOM     22  C   UNL     1      14.244  23.371  14.330  0.00  0.00    -0.064 C 
ATOM     23  N   UNL     1      14.573  24.780  13.835  0.00  0.00    +0.379 N 
ATOM     24  C   UNL     1      15.987  24.844  13.439  0.00  0.00    -0.096 C 
ATOM     25  H   UNL     1      14.429  25.480  14.691  0.00  0.00    -0.082 HD
ATOM     26  C   UNL     1      13.622  25.207  12.726  0.00  0.00    -0.064 C 
ATOM     27  C   UNL     1      12.145  25.128  13.203  0.00  0.00    +0.066 C 
ENDBRANCH  19  20
ENDBRANCH  18  19
ENDBRANCH  14  15
ENDBRANCH  12  13
TORSDOF 6
ENDMDL
MODEL 3
REMARK VINA RESULT:      -8.0      3.790      6.546
REMARK  Name = C:\Users\Docking\Desktop\test protocol\1iep_ligandH.pdb
REMARK  8 active torsions:
REMARK  status: ('A' for Active; 'I' for Inactive)
REMARK    1  A    between atoms: _5  and  _11
REMARK    2  A    between atoms: _19  and  _21
REMARK    3  A    between atoms: _22  and  _66
REMARK    4  A    between atoms: _27  and  _30
REMARK    5  A    between atoms: _32  and  _33
REMARK    6  A    between atoms: _38  and  _43
REMARK    7  A    between atoms: _43  and  _46
REMARK    8  A    between atoms: _53  and  _55
REMARK                            x       y       z     vdW  Elec       q    Type
REMARK                         _______ _______ _______ _____ _____    ______ ____
ROOT
ATOM     10  C   UNL     1       5.077  15.633   7.565  0.00  0.00    +0.038 A 
ATOM     11  C   UNL     1       5.435  16.498   8.630  0.00  0.00    +0.047 A 
ATOM     12  C   UNL     1       6.570  17.401   8.518  0.00  0.00    +0.035 A 
ATOM     32  C   UNL     1       7.317  17.399   7.304  0.00  0.00    +0.024 A 
ATOM     33  C   UNL     1       6.968  16.526   6.211  0.00  0.00    +0.007 A 
ATOM     34  C   UNL     1       5.851  15.631   6.317  0.00  0.00    -0.029 A 
ATOM     35  C   UNL     1       5.526  14.713   5.116  0.00  0.00    +0.045 C 
ENDROOT
BRANCH  10   9
ATOM      4  C   UNL     1       3.133  11.377   8.632  0.00  0.00    +0.077 A 
ATOM      5  C   UNL     1       4.418  10.781   8.861  0.00  0.00    +0.048 A 
ATOM      6  C   UNL     1       5.555  11.602   8.686  0.00  0.00    +0.116 A 
ATOM      7  N   UNL     1       5.405  12.920   8.311  0.00  0.00    -0.223 NA
ATOM      8  C   UNL     1       4.152  13.462   8.097  0.00  0.00    +0.220 A 
ATOM      9  N   UNL     1       3.977  14.787   7.727  0.00  0.00    -0.283 N 
ATOM     36  H   UNL     1       3.036  15.148   7.571  0.00  0.00    +0.155 HD
ATOM     37  N   UNL     1       3.051  12.699   8.256  0.00  0.00    -0.214 NA
BRANCH   4   3
ATOM      1  C   UNL     1      -0.673  10.552   8.995  0.00  0.00    +0.020 A 
ATOM      2  C   UNL     1       0.548  11.311   8.853  0.00  0.00    +0.013 A 
ATOM      3  C   UNL     1       1.839  10.639   8.779  0.00  0.00    +0.019 A 
ATOM     38  C   UNL     1       1.860   9.186   8.852  0.00  0.00    +0.120 A 
ATOM     39  N   UNL     1       0.668   8.481   8.990  0.00  0.00    -0.263 NA
ATOM     40  C   UNL     1      -0.580   9.117   9.064  0.00  0.00    +0.111 A 
ENDBRANCH   4   3
ENDBRANCH  10   9
BRANCH  12  13
ATOM     13  N   UNL     1       6.986  18.295   9.570  0.00  0.00    -0.281 N 
ATOM     14  C   UNL     1       7.623  17.976  10.757  0.00  0.00    +0.248 C 
ATOM     30  O   UNL     1       7.742  16.840  11.194  0.00  0.00    -0.270 OA
ATOM     31  H   UNL     1       6.786  19.284   9.420  0.00  0.00    +0.155 HD
BRANCH  14  15
ATOM     15  C   UNL     1       8.199  19.077  11.587  0.00  0.00    +0.037 A 
ATOM     16  C   UNL     1       9.496  18.929  12.253  0.00  0.00    +0.013 A 
ATOM     17  C   UNL     1      10.021  20.000  13.061  0.00  0.00    +0.005 A 
ATOM     18  C   UNL     1       9.249  21.232  13.207  0.00  0.00    -0.033 A 
ATOM     28  C   UNL     1       7.968  21.355  12.531  0.00  0.00    +0.005 A 
ATOM     29  C   UNL     1       7.450  20.306  11.739  0.00  0.00    +0.013 A 
BRANCH  18  19
ATOM     19  C   UNL     1       9.722  22.419  14.066  0.00  0.00    +0.119 C 
BRANCH  19  20
ATOM     20  N   UNL     1      11.033  23.040  13.712  0.00  0.00    -0.302 NA
ATOM     21  C   UNL     1      11.331  24.278  14.564  0.00  0.00    +0.066 C 
ATOM     22  C   UNL     1      12.716  24.902  14.196  0.00  0.00    -0.064 C 
ATOM     23  N   UNL     1      12.736  25.251  12.707  0.00  0.00    +0.379 N 
ATOM     24  C   UNL     1      14.016  25.891  12.370  0.00  0.00    -0.096 C 
ATOM     25  H   UNL     1      11.926  25.996  12.524  0.00  0.00    -0.082 HD
ATOM     26  C   UNL     1      12.438  24.027  11.853  0.00  0.00    -0.064 C 
ATOM     27  C   UNL     1      11.072  23.398  12.247  0.00  0.00    +0.066 C 
ENDBRANCH  19  20
ENDBRANCH  18  19
ENDBRANCH  14  15
ENDBRANCH  12  13
TORSDOF 6
ENDMDL
MODEL 4
REMARK VINA RESULT:      -8.0      7.841     15.677
REMARK  Name = C:\Users\Docking\Desktop\test protocol\1iep_ligandH.pdb
REMARK  8 active torsions:
REMARK  status: ('A' for Active; 'I' for Inactive)
REMARK    1  A    between atoms: _5  and  _11
REMARK    2  A    between atoms: _19  and  _21
REMARK    3  A    between atoms: _22  and  _66
REMARK    4  A    between atoms: _27  and  _30
REMARK    5  A    between atoms: _32  and  _33
REMARK    6  A    between atoms: _38  and  _43
REMARK    7  A    between atoms: _43  and  _46
REMARK    8  A    between atoms: _53  and  _55
REMARK                            x       y       z     vdW  Elec       q    Type
REMARK                         _______ _______ _______ _____ _____    ______ ____
ROOT
ATOM     10  C   UNL     1       8.381  14.887   5.650  0.00  0.00    +0.038 A 
ATOM     11  C   UNL     1       8.929  13.958   4.729  0.00  0.00    +0.047 A 
ATOM     12  C   UNL     1       9.524  14.400   3.478  0.00  0.00    +0.035 A 
ATOM     32  C   UNL     1       9.548  15.798   3.198  0.00  0.00    +0.024 A 
ATOM     33  C   UNL     1       8.994  16.756   4.122  0.00  0.00    +0.007 A 
ATOM     34  C   UNL     1       8.403  16.325   5.357  0.00  0.00    -0.029 A 
ATOM     35  C   UNL     1       7.819  17.396   6.307  0.00  0.00    +0.045 C 
ENDROOT
BRANCH  10   9
ATOM      4  C   UNL     1       4.628  13.500   8.302  0.00  0.00    +0.077 A 
ATOM      5  C   UNL     1       3.701  13.781   7.244  0.00  0.00    +0.048 A 
ATOM      6  C   UNL     1       4.230  14.289   6.036  0.00  0.00    +0.116 A 
ATOM      7  N   UNL     1       5.586  14.495   5.906  0.00  0.00    -0.223 NA
ATOM      8  C   UNL     1       6.453  14.214   6.947  0.00  0.00    +0.220 A 
ATOM      9  N   UNL     1       7.821  14.406   6.836  0.00  0.00    -0.283 N 
ATOM     36  H   UNL     1       8.426  14.194   7.629  0.00  0.00    +0.155 HD
ATOM     37  N   UNL     1       5.973  13.730   8.111  0.00  0.00    -0.214 NA
BRANCH   4   3
ATOM      1  C   UNL     1       3.975  13.134  12.141  0.00  0.00    +0.020 A 
ATOM      2  C   UNL     1       4.382  13.705  10.878  0.00  0.00    +0.013 A 
ATOM      3  C   UNL     1       4.224  12.957   9.637  0.00  0.00    +0.019 A 
ATOM     38  C   UNL     1       3.645  11.624   9.710  0.00  0.00    +0.120 A 
ATOM     39  N   UNL     1       3.263  11.100  10.941  0.00  0.00    -0.263 NA
ATOM     40  C   UNL     1       3.412  11.810  12.142  0.00  0.00    +0.111 A 
ENDBRANCH   4   3
ENDBRANCH  10   9
BRANCH  12  13
ATOM     13  N   UNL     1      10.089  13.503   2.500  0.00  0.00    -0.281 N 
ATOM     14  C   UNL     1      11.265  12.776   2.591  0.00  0.00    +0.248 C 
ATOM     30  O   UNL     1      12.123  12.952   3.443  0.00  0.00    -0.270 OA
ATOM     31  H   UNL     1       9.557  13.390   1.637  0.00  0.00    +0.155 HD
BRANCH  14  15
ATOM     15  C   UNL     1      11.533  11.708   1.580  0.00  0.00    +0.037 A 
ATOM     16  C   UNL     1      12.234  10.475   1.945  0.00  0.00    +0.013 A 
ATOM     17  C   UNL     1      12.495   9.469   0.946  0.00  0.00    +0.005 A 
ATOM     18  C   UNL     1      12.052   9.691  -0.428  0.00  0.00    -0.033 A 
ATOM     28  C   UNL     1      11.354  10.922  -0.762  0.00  0.00    +0.005 A 
ATOM     29  C   UNL     1      11.097  11.911   0.214  0.00  0.00    +0.013 A 
BRANCH  18  19
ATOM     19  C   UNL     1      12.306   8.681  -1.563  0.00  0.00    +0.119 C 
BRANCH  19  20
ATOM     20  N   UNL     1      11.119   7.967  -2.121  0.00  0.00    -0.302 NA
ATOM     21  C   UNL     1      11.329   6.451  -2.164  0.00  0.00    +0.066 C 
ATOM     22  C   UNL     1      10.069   5.718  -2.730  0.00  0.00    -0.064 C 
ATOM     23  N   UNL     1       9.750   6.261  -4.124  0.00  0.00    +0.379 N 
ATOM     24  C   UNL     1       8.601   5.533  -4.682  0.00  0.00    -0.096 C 
ATOM     25  H   UNL     1      10.630   6.055  -4.776  0.00  0.00    -0.082 HD
ATOM     26  C   UNL     1       9.543   7.768  -4.091  0.00  0.00    -0.064 C 
ATOM     27  C   UNL     1      10.789   8.485  -3.499  0.00  0.00    +0.066 C 
ENDBRANCH  19  20
ENDBRANCH  18  19
ENDBRANCH  14  15
ENDBRANCH  12  13
TORSDOF 6
ENDMDL
MODEL 5
REMARK VINA RESULT:      -7.6      2.307     13.159
REMARK  Name = C:\Users\Docking\Desktop\test protocol\1iep_ligandH.pdb
REMARK  8 active torsions:
REMARK  status: ('A' for Active; 'I' for Inactive)
REMARK    1  A    between atoms: _5  and  _11
REMARK    2  A    between atoms: _19  and  _21
REMARK    3  A    between atoms: _22  and  _66
REMARK    4  A    between atoms: _27  and  _30
REMARK    5  A    between atoms: _32  and  _33
REMARK    6  A    between atoms: _38  and  _43
REMARK    7  A    between atoms: _43  and  _46
REMARK    8  A    between atoms: _53  and  _55
REMARK                            x       y       z     vdW  Elec       q    Type
REMARK                         _______ _______ _______ _____ _____    ______ ____
ROOT
ATOM     10  C   UNL     1       6.436  17.927   9.686  0.00  0.00    +0.038 A 
ATOM     11  C   UNL     1       7.268  17.367   8.683  0.00  0.00    +0.047 A 
ATOM     12  C   UNL     1       6.883  16.155   7.976  0.00  0.00    +0.035 A 
ATOM     32  C   UNL     1       5.643  15.540   8.315  0.00  0.00    +0.024 A 
ATOM     33  C   UNL     1       4.786  16.095   9.334  0.00  0.00    +0.007 A 
ATOM     34  C   UNL     1       5.161  17.289  10.036  0.00  0.00    -0.029 A 
ATOM     35  C   UNL     1       4.206  17.835  11.123  0.00  0.00    +0.045 C 
ENDROOT
BRANCH  10   9
ATOM      4  C   UNL     1       8.738  20.210  13.226  0.00  0.00    +0.077 A 
ATOM      5  C   UNL     1       9.116  18.977  13.855  0.00  0.00    +0.048 A 
ATOM      6  C   UNL     1       8.692  17.778  13.240  0.00  0.00    +0.116 A 
ATOM      7  N   UNL     1       7.946  17.820  12.082  0.00  0.00    -0.223 NA
ATOM      8  C   UNL     1       7.597  19.026  11.502  0.00  0.00    +0.220 A 
ATOM      9  N   UNL     1       6.855  19.092  10.333  0.00  0.00    -0.283 N 
ATOM     36  H   UNL     1       6.612  20.001   9.941  0.00  0.00    +0.155 HD
ATOM     37  N   UNL     1       7.989  20.185  12.071  0.00  0.00    -0.214 NA
BRANCH   4   3
ATOM      1  C   UNL     1       8.548  23.801  14.764  0.00  0.00    +0.020 A 
ATOM      2  C   UNL     1       8.133  22.510  14.265  0.00  0.00    +0.013 A 
ATOM      3  C   UNL     1       9.113  21.560  13.754  0.00  0.00    +0.019 A 
ATOM     38  C   UNL     1      10.515  21.949  13.762  0.00  0.00    +0.120 A 
ATOM     39  N   UNL     1      10.884  23.199  14.247  0.00  0.00    -0.263 NA
ATOM     40  C   UNL     1       9.951  24.123  14.740  0.00  0.00    +0.111 A 
ENDBRANCH   4   3
ENDBRANCH  10   9
BRANCH  12  13
ATOM     13  N   UNL     1       7.690  15.537   6.954  0.00  0.00    -0.281 N 
ATOM     14  C   UNL     1       8.118  16.088   5.757  0.00  0.00    +0.248 C 
ATOM     30  O   UNL     1       7.690  17.130   5.284  0.00  0.00    -0.270 OA
ATOM     31  H   UNL     1       7.982  14.576   7.134  0.00  0.00    +0.155 HD
BRANCH  14  15
ATOM     15  C   UNL     1       9.161  15.370   4.963  0.00  0.00    +0.037 A 
ATOM     16  C   UNL     1       8.945  15.033   3.553  0.00  0.00    +0.013 A 
ATOM     17  C   UNL     1       9.961  14.325   2.815  0.00  0.00    +0.005 A 
ATOM     18  C   UNL     1      11.203  13.950   3.487  0.00  0.00    -0.033 A 
ATOM     28  C   UNL     1      11.393  14.301   4.884  0.00  0.00    +0.005 A 
ATOM     29  C   UNL     1      10.399  14.994   5.611  0.00  0.00    +0.013 A 
BRANCH  18  19
ATOM     19  C   UNL     1      12.333  13.174   2.783  0.00  0.00    +0.119 C 
BRANCH  19  20
ATOM     20  N   UNL     1      12.065  12.681   1.399  0.00  0.00    -0.302 NA
ATOM     21  C   UNL     1      11.598  11.223   1.389  0.00  0.00    +0.066 C 
ATOM     22  C   UNL     1      11.300  10.731  -0.065  0.00  0.00    -0.064 C 
ATOM     23  N   UNL     1      12.553  10.905  -0.926  0.00  0.00    +0.379 N 
ATOM     24  C   UNL     1      12.294  10.389  -2.278  0.00  0.00    -0.096 C 
ATOM     25  H   UNL     1      13.361  10.283  -0.476  0.00  0.00    -0.082 HD
ATOM     26  C   UNL     1      13.025  12.352  -0.919  0.00  0.00    -0.064 C 
ATOM     27  C   UNL     1      13.290  12.840   0.533  0.00  0.00    +0.066 C 
ENDBRANCH  19  20
ENDBRANCH  18  19
ENDBRANCH  14  15
ENDBRANCH  12  13
TORSDOF 6
ENDMDL
