MODEL 1
REMARK VINA RESULT:      -8.3      0.000      0.000
REMARK  Name = C:\Users\Docking\Desktop\test protocol\1iep_ligandH.pdb
REMARK  8 active torsions:
REMARK  status: ('A' for Active; 'I' for Inactive)
REMARK    1  A    between atoms: _5  and  _11
REMARK    2  A    between atoms: _19  and  _21
REMARK    3  A    between atoms: _22  and  _66
REMARK    4  A    between atoms: _27  and  _30
REMARK    5  A    between atoms: _32  and  _33
REMARK    6  A    between atoms: _38  and  _43
REMARK    7  A    between atoms: _43  and  _46
REMARK    8  A    between atoms: _53  and  _55
REMARK                            x       y       z     vdW  Elec       q    Type
REMARK                         _______ _______ _______ _____ _____    ______ ____
ROOT
ATOM     10  C   UNL     1     -16.994  55.183  20.628  0.00  0.00    +0.038 A 
ATOM     11  C   UNL     1     -16.223  54.026  20.907  0.00  0.00    +0.047 A 
ATOM     12  C   UNL     1     -16.300  53.365  22.201  0.00  0.00    +0.035 A 
ATOM     32  C   UNL     1     -17.176  53.907  23.186  0.00  0.00    +0.024 A 
ATOM     33  C   UNL     1     -17.967  55.083  22.919  0.00  0.00    +0.007 A 
ATOM     34  C   UNL     1     -17.892  55.741  21.646  0.00  0.00    -0.029 A 
ATOM     35  C   UNL     1     -18.758  57.003  21.418  0.00  0.00    +0.045 C 
ENDROOT
BRANCH  10   9
ATOM      4  C   UNL     1     -18.390  55.744  16.070  0.00  0.00    +0.077 A 
ATOM      5  C   UNL     1     -19.414  54.748  16.199  0.00  0.00    +0.048 A 
ATOM      6  C   UNL     1     -19.544  54.110  17.453  0.00  0.00    +0.116 A 
ATOM      7  N   UNL     1     -18.707  54.450  18.493  0.00  0.00    -0.223 NA
ATOM      8  C   UNL     1     -17.729  55.414  18.335  0.00  0.00    +0.220 A 
ATOM      9  N   UNL     1     -16.881  55.778  19.369  0.00  0.00    -0.283 N 
ATOM     36  H   UNL     1     -16.167  56.489  19.210  0.00  0.00    +0.155 HD
ATOM     37  N   UNL     1     -17.583  56.037  17.147  0.00  0.00    -0.214 NA
BRANCH   4   3
ATOM      1  C   UNL     1     -16.826  56.964  12.699  0.00  0.00    +0.020 A 
ATOM      2  C   UNL     1     -17.032  56.195  13.904  0.00  0.00    +0.013 A 
ATOM      3  C   UNL     1     -18.131  56.509  14.809  0.00  0.00    +0.019 A 
ATOM     38  C   UNL     1     -19.009  57.615  14.463  0.00  0.00    +0.120 A 
ATOM     39  N   UNL     1     -18.785  58.340  13.296  0.00  0.00    -0.263 NA
ATOM     40  C   UNL     1     -17.730  58.048  12.418  0.00  0.00    +0.111 A 
ENDBRANCH   4   3
ENDBRANCH  10   9
BRANCH  12  13
ATOM     13  N   UNL     1     -15.535  52.192  22.544  0.00  0.00    -0.281 N 
ATOM     14  C   UNL     1     -15.860  50.865  22.312  0.00  0.00    +0.248 C 
ATOM     30  O   UNL     1     -16.963  50.475  21.961  0.00  0.00    -0.270 OA
ATOM     31  H   UNL     1     -14.647  52.360  23.017  0.00  0.00    +0.155 HD
BRANCH  14  15
ATOM     15  C   UNL     1     -14.810  49.820  22.511  0.00  0.00    +0.037 A 
ATOM     16  C   UNL     1     -15.041  48.427  22.120  0.00  0.00    +0.013 A 
ATOM     17  C   UNL     1     -14.018  47.435  22.339  0.00  0.00    +0.005 A 
ATOM     18  C   UNL     1     -12.754  47.834  22.952  0.00  0.00    -0.033 A 
ATOM     28  C   UNL     1     -12.549  49.224  23.326  0.00  0.00    +0.005 A 
ATOM     29  C   UNL     1     -13.550  50.198  23.114  0.00  0.00    +0.013 A 
BRANCH  18  19
ATOM     19  C   UNL     1     -11.615  46.839  23.243  0.00  0.00    +0.119 C 
BRANCH  19  20
ATOM     20  N   UNL     1     -11.087  46.792  24.639  0.00  0.00    -0.302 NA
ATOM     21  C   UNL     1      -9.556  46.788  24.675  0.00  0.00    +0.066 C 
ATOM     22  C   UNL     1      -9.021  46.762  26.144  0.00  0.00    -0.064 C 
ATOM     23  N   UNL     1      -9.583  45.537  26.867  0.00  0.00    +0.379 N 
ATOM     24  C   UNL     1      -9.036  45.478  28.230  0.00  0.00    -0.096 C 
ATOM     25  H   UNL     1      -9.229  44.631  26.321  0.00  0.00    -0.082 HD
ATOM     26  C   UNL     1     -11.104  45.531  26.833  0.00  0.00    -0.064 C 
ATOM     27  C   UNL     1     -11.626  45.587  25.370  0.00  0.00    +0.066 C 
ENDBRANCH  19  20
ENDBRANCH  18  19
ENDBRANCH  14  15
ENDBRANCH  12  13
TORSDOF 6
ENDMDL
MODEL 2
REMARK VINA RESULT:      -7.6      5.879      7.784
REMARK  Name = C:\Users\Docking\Desktop\test protocol\1iep_ligandH.pdb
REMARK  8 active torsions:
REMARK  status: ('A' for Active; 'I' for Inactive)
REMARK    1  A    between atoms: _5  and  _11
REMARK    2  A    between atoms: _19  and  _21
REMARK    3  A    between atoms: _22  and  _66
REMARK    4  A    between atoms: _27  and  _30
REMARK    5  A    between atoms: _32  and  _33
REMARK    6  A    between atoms: _38  and  _43
REMARK    7  A    between atoms: _43  and  _46
REMARK    8  A    between atoms: _53  and  _55
REMARK                            x       y       z     vdW  Elec       q    Type
REMARK                         _______ _______ _______ _____ _____    ______ ____
ROOT
ATOM     10  C   UNL     1     -19.973  54.959  15.810  0.00  0.00    +0.038 A 
ATOM     11  C   UNL     1     -19.314  55.147  17.051  0.00  0.00    +0.047 A 
ATOM     12  C   UNL     1     -19.076  54.032  17.954  0.00  0.00    +0.035 A 
ATOM     32  C   UNL     1     -19.520  52.736  17.559  0.00  0.00    +0.024 A 
ATOM     33  C   UNL     1     -20.193  52.527  16.301  0.00  0.00    +0.007 A 
ATOM     34  C   UNL     1     -20.433  53.624  15.408  0.00  0.00    -0.029 A 
ATOM     35  C   UNL     1     -21.164  53.342  14.075  0.00  0.00    +0.045 C 
ENDROOT
BRANCH  10   9
ATOM      4  C   UNL     1     -18.474  58.111  12.515  0.00  0.00    +0.077 A 
ATOM      5  C   UNL     1     -17.169  57.519  12.457  0.00  0.00    +0.048 A 
ATOM      6  C   UNL     1     -16.921  56.410  13.297  0.00  0.00    +0.116 A 
ATOM      7  N   UNL     1     -17.913  55.936  14.128  0.00  0.00    -0.223 NA
ATOM      8  C   UNL     1     -19.161  56.530  14.160  0.00  0.00    +0.220 A 
ATOM      9  N   UNL     1     -20.176  56.065  14.982  0.00  0.00    -0.283 N 
ATOM     36  H   UNL     1     -21.080  56.536  14.982  0.00  0.00    +0.155 HD
ATOM     37  N   UNL     1     -19.422  57.592  13.369  0.00  0.00    -0.214 NA
BRANCH   4   3
ATOM      1  C   UNL     1     -19.956  60.319   9.646  0.00  0.00    +0.020 A 
ATOM      2  C   UNL     1     -19.576  59.151  10.407  0.00  0.00    +0.013 A 
ATOM      3  C   UNL     1     -18.890  59.286  11.686  0.00  0.00    +0.019 A 
ATOM     38  C   UNL     1     -18.602  60.628  12.171  0.00  0.00    +0.120 A 
ATOM     39  N   UNL     1     -18.979  61.734  11.416  0.00  0.00    -0.263 NA
ATOM     40  C   UNL     1     -19.638  61.616  10.183  0.00  0.00    +0.111 A 
ENDBRANCH   4   3
ENDBRANCH  10   9
BRANCH  12  13
ATOM     13  N   UNL     1     -18.419  54.164  19.231  0.00  0.00    -0.281 N 
ATOM     14  C   UNL     1     -17.391  55.026  19.575  0.00  0.00    +0.248 C 
ATOM     30  O   UNL     1     -16.732  55.671  18.772  0.00  0.00    -0.270 OA
ATOM     31  H   UNL     1     -18.753  53.546  19.971  0.00  0.00    +0.155 HD
BRANCH  14  15
ATOM     15  C   UNL     1     -17.034  55.185  21.017  0.00  0.00    +0.037 A 
ATOM     16  C   UNL     1     -17.905  55.917  21.940  0.00  0.00    +0.013 A 
ATOM     17  C   UNL     1     -17.529  56.071  23.322  0.00  0.00    +0.005 A 
ATOM     18  C   UNL     1     -16.274  55.489  23.792  0.00  0.00    -0.033 A 
ATOM     28  C   UNL     1     -15.430  54.763  22.856  0.00  0.00    +0.005 A 
ATOM     29  C   UNL     1     -15.796  54.612  21.500  0.00  0.00    +0.013 A 
BRANCH  18  19
ATOM     19  C   UNL     1     -15.782  55.621  25.245  0.00  0.00    +0.119 C 
BRANCH  19  20
ATOM     20  N   UNL     1     -14.643  56.552  25.500  0.00  0.00    -0.302 NA
ATOM     21  C   UNL     1     -14.273  56.616  26.984  0.00  0.00    +0.066 C 
ATOM     22  C   UNL     1     -13.065  57.578  27.229  0.00  0.00    -0.064 C 
ATOM     23  N   UNL     1     -13.408  58.970  26.696  0.00  0.00    +0.379 N 
ATOM     24  C   UNL     1     -12.296  59.890  26.977  0.00  0.00    -0.096 C 
ATOM     25  H   UNL     1     -14.300  59.335  27.256  0.00  0.00    -0.082 HD
ATOM     26  C   UNL     1     -13.779  58.915  25.221  0.00  0.00    -0.064 C 
ATOM     27  C   UNL     1     -14.961  57.934  24.984  0.00  0.00    +0.066 C 
ENDBRANCH  19  20
ENDBRANCH  18  19
ENDBRANCH  14  15
ENDBRANCH  12  13
TORSDOF 6
ENDMDL
MODEL 3
REMARK VINA RESULT:      -7.4      1.634      2.349
REMARK  Name = C:\Users\Docking\Desktop\test protocol\1iep_ligandH.pdb
REMARK  8 active torsions:
REMARK  status: ('A' for Active; 'I' for Inactive)
REMARK    1  A    between atoms: _5  and  _11
REMARK    2  A    between atoms: _19  and  _21
REMARK    3  A    between atoms: _22  and  _66
REMARK    4  A    between atoms: _27  and  _30
REMARK    5  A    between atoms: _32  and  _33
REMARK    6  A    between atoms: _38  and  _43
REMARK    7  A    between atoms: _43  and  _46
REMARK    8  A    between atoms: _53  and  _55
REMARK                            x       y       z     vdW  Elec       q    Type
REMARK                         _______ _______ _______ _____ _____    ______ ____
ROOT
ATOM     10  C   UNL     1     -16.751  54.970  20.828  0.00  0.00    +0.038 A 
ATOM     11  C   UNL     1     -16.012  53.786  21.082  0.00  0.00    +0.047 A 
ATOM     12  C   UNL     1     -16.085  53.115  22.370  0.00  0.00    +0.035 A 
ATOM     32  C   UNL     1     -16.923  53.676  23.378  0.00  0.00    +0.024 A 
ATOM     33  C   UNL     1     -17.680  54.880  23.138  0.00  0.00    +0.007 A 
ATOM     34  C   UNL     1     -17.610  55.548  21.869  0.00  0.00    -0.029 A 
ATOM     35  C   UNL     1     -18.438  56.838  21.670  0.00  0.00    +0.045 C 
ENDROOT
BRANCH  10   9
ATOM      4  C   UNL     1     -18.291  55.714  16.344  0.00  0.00    +0.077 A 
ATOM      5  C   UNL     1     -19.388  54.803  16.506  0.00  0.00    +0.048 A 
ATOM      6  C   UNL     1     -19.516  54.158  17.757  0.00  0.00    +0.116 A 
ATOM      7  N   UNL     1     -18.609  54.413  18.763  0.00  0.00    -0.223 NA
ATOM      8  C   UNL     1     -17.562  55.296  18.573  0.00  0.00    +0.220 A 
ATOM      9  N   UNL     1     -16.643  55.574  19.573  0.00  0.00    -0.283 N 
ATOM     36  H   UNL     1     -15.881  56.225  19.391  0.00  0.00    +0.155 HD
ATOM     37  N   UNL     1     -17.417  55.923  17.387  0.00  0.00    -0.214 NA
BRANCH   4   3
ATOM      1  C   UNL     1     -18.517  58.325  13.440  0.00  0.00    +0.020 A 
ATOM      2  C   UNL     1     -18.817  57.625  14.668  0.00  0.00    +0.013 A 
ATOM      3  C   UNL     1     -18.024  56.474  15.082  0.00  0.00    +0.019 A 
ATOM     38  C   UNL     1     -16.927  56.053  14.224  0.00  0.00    +0.120 A 
ATOM     39  N   UNL     1     -16.662  56.746  13.047  0.00  0.00    -0.263 NA
ATOM     40  C   UNL     1     -17.419  57.854  12.637  0.00  0.00    +0.111 A 
ENDBRANCH   4   3
ENDBRANCH  10   9
BRANCH  12  13
ATOM     13  N   UNL     1     -15.352  51.915  22.688  0.00  0.00    -0.281 N 
ATOM     14  C   UNL     1     -15.634  50.616  22.297  0.00  0.00    +0.248 C 
ATOM     30  O   UNL     1     -16.686  50.261  21.787  0.00  0.00    -0.270 OA
ATOM     31  H   UNL     1     -14.525  52.038  23.272  0.00  0.00    +0.155 HD
BRANCH  14  15
ATOM     15  C   UNL     1     -14.603  49.556  22.516  0.00  0.00    +0.037 A 
ATOM     16  C   UNL     1     -13.297  49.875  23.099  0.00  0.00    +0.013 A 
ATOM     17  C   UNL     1     -12.315  48.837  23.284  0.00  0.00    +0.005 A 
ATOM     18  C   UNL     1     -12.636  47.468  22.887  0.00  0.00    -0.033 A 
ATOM     28  C   UNL     1     -13.941  47.179  22.316  0.00  0.00    +0.005 A 
ATOM     29  C   UNL     1     -14.906  48.194  22.132  0.00  0.00    +0.013 A 
BRANCH  18  19
ATOM     19  C   UNL     1     -11.641  46.301  23.028  0.00  0.00    +0.119 C 
BRANCH  19  20
ATOM     20  N   UNL     1     -12.200  44.968  23.403  0.00  0.00    -0.302 NA
ATOM     21  C   UNL     1     -11.860  44.588  24.847  0.00  0.00    +0.066 C 
ATOM     22  C   UNL     1     -12.472  43.200  25.229  0.00  0.00    -0.064 C 
ATOM     23  N   UNL     1     -11.963  42.136  24.255  0.00  0.00    +0.379 N 
ATOM     24  C   UNL     1     -12.490  40.821  24.646  0.00  0.00    -0.096 C 
ATOM     25  H   UNL     1     -10.852  42.097  24.347  0.00  0.00    -0.082 HD
ATOM     26  C   UNL     1     -12.294  42.508  22.816  0.00  0.00    -0.064 C 
ATOM     27  C   UNL     1     -11.707  43.901  22.456  0.00  0.00    +0.066 C 
ENDBRANCH  19  20
ENDBRANCH  18  19
ENDBRANCH  14  15
ENDBRANCH  12  13
TORSDOF 6
ENDMDL
MODEL 4
REMARK VINA RESULT:      -7.4      5.767      7.603
REMARK  Name = C:\Users\Docking\Desktop\test protocol\1iep_ligandH.pdb
REMARK  8 active torsions:
REMARK  status: ('A' for Active; 'I' for Inactive)
REMARK    1  A    between atoms: _5  and  _11
REMARK    2  A    between atoms: _19  and  _21
REMARK    3  A    between atoms: _22  and  _66
REMARK    4  A    between atoms: _27  and  _30
REMARK    5  A    between atoms: _32  and  _33
REMARK    6  A    between atoms: _38  and  _43
REMARK    7  A    between atoms: _43  and  _46
REMARK    8  A    between atoms: _53  and  _55
REMARK                            x       y       z     vdW  Elec       q    Type
REMARK                         _______ _______ _______ _____ _____    ______ ____
ROOT
ATOM     10  C   UNL     1     -17.738  54.346  20.296  0.00  0.00    +0.038 A 
ATOM     11  C   UNL     1     -16.996  55.032  21.290  0.00  0.00    +0.047 A 
ATOM     12  C   UNL     1     -17.168  54.728  22.702  0.00  0.00    +0.035 A 
ATOM     32  C   UNL     1     -18.105  53.717  23.066  0.00  0.00    +0.024 A 
ATOM     33  C   UNL     1     -18.869  53.011  22.068  0.00  0.00    +0.007 A 
ATOM     34  C   UNL     1     -18.705  53.308  20.674  0.00  0.00    -0.029 A 
ATOM     35  C   UNL     1     -19.555  52.524  19.648  0.00  0.00    +0.045 C 
ENDROOT
BRANCH  10   9
ATOM      4  C   UNL     1     -18.588  57.060  16.429  0.00  0.00    +0.077 A 
ATOM      5  C   UNL     1     -19.542  57.867  17.132  0.00  0.00    +0.048 A 
ATOM      6  C   UNL     1     -19.792  57.546  18.485  0.00  0.00    +0.116 A 
ATOM      7  N   UNL     1     -19.129  56.495  19.081  0.00  0.00    -0.223 NA
ATOM      8  C   UNL     1     -18.216  55.735  18.374  0.00  0.00    +0.220 A 
ATOM      9  N   UNL     1     -17.532  54.679  18.955  0.00  0.00    -0.283 N 
ATOM     36  H   UNL     1     -16.872  54.138  18.397  0.00  0.00    +0.155 HD
ATOM     37  N   UNL     1     -17.961  56.020  17.080  0.00  0.00    -0.214 NA
BRANCH   4   3
ATOM      1  C   UNL     1     -16.959  56.661  12.894  0.00  0.00    +0.020 A 
ATOM      2  C   UNL     1     -17.286  56.409  14.279  0.00  0.00    +0.013 A 
ATOM      3  C   UNL     1     -18.214  57.275  14.995  0.00  0.00    +0.019 A 
ATOM     38  C   UNL     1     -18.799  58.397  14.275  0.00  0.00    +0.120 A 
ATOM     39  N   UNL     1     -18.465  58.616  12.943  0.00  0.00    -0.263 NA
ATOM     40  C   UNL     1     -17.572  57.790  12.244  0.00  0.00    +0.111 A 
ENDBRANCH   4   3
ENDBRANCH  10   9
BRANCH  12  13
ATOM     13  N   UNL     1     -16.448  55.397  23.757  0.00  0.00    -0.281 N 
ATOM     14  C   UNL     1     -15.133  55.204  24.146  0.00  0.00    +0.248 C 
ATOM     30  O   UNL     1     -14.435  54.269  23.782  0.00  0.00    -0.270 OA
ATOM     31  H   UNL     1     -16.972  56.099  24.281  0.00  0.00    +0.155 HD
BRANCH  14  15
ATOM     15  C   UNL     1     -14.506  56.182  25.086  0.00  0.00    +0.037 A 
ATOM     16  C   UNL     1     -13.836  55.738  26.310  0.00  0.00    +0.013 A 
ATOM     17  C   UNL     1     -13.255  56.704  27.208  0.00  0.00    +0.005 A 
ATOM     18  C   UNL     1     -13.340  58.126  26.883  0.00  0.00    -0.033 A 
ATOM     28  C   UNL     1     -14.006  58.539  25.659  0.00  0.00    +0.005 A 
ATOM     29  C   UNL     1     -14.578  57.595  24.777  0.00  0.00    +0.013 A 
BRANCH  18  19
ATOM     19  C   UNL     1     -12.766  59.228  27.794  0.00  0.00    +0.119 C 
BRANCH  19  20
ATOM     20  N   UNL     1     -11.536  58.899  28.573  0.00  0.00    -0.302 NA
ATOM     21  C   UNL     1     -11.856  58.537  30.026  0.00  0.00    +0.066 C 
ATOM     22  C   UNL     1     -10.559  58.174  30.821  0.00  0.00    -0.064 C 
ATOM     23  N   UNL     1      -9.580  59.348  30.758  0.00  0.00    +0.379 N 
ATOM     24  C   UNL     1      -8.384  59.032  31.553  0.00  0.00    -0.096 C 
ATOM     25  H   UNL     1     -10.077  60.228  31.229  0.00  0.00    -0.082 HD
ATOM     26  C   UNL     1      -9.259  59.716  29.316  0.00  0.00    -0.064 C 
ATOM     27  C   UNL     1     -10.556  60.046  28.528  0.00  0.00    +0.066 C 
ENDBRANCH  19  20
ENDBRANCH  18  19
ENDBRANCH  14  15
ENDBRANCH  12  13
TORSDOF 6
ENDMDL
MODEL 5
REMARK VINA RESULT:      -7.1     11.293     14.527
REMARK  Name = C:\Users\Docking\Desktop\test protocol\1iep_ligandH.pdb
REMARK  8 active torsions:
REMARK  status: ('A' for Active; 'I' for Inactive)
REMARK    1  A    between atoms: _5  and  _11
REMARK    2  A    between atoms: _19  and  _21
REMARK    3  A    between atoms: _22  and  _66
REMARK    4  A    between atoms: _27  and  _30
REMARK    5  A    between atoms: _32  and  _33
REMARK    6  A    between atoms: _38  and  _43
REMARK    7  A    between atoms: _43  and  _46
REMARK    8  A    between atoms: _53  and  _55
REMARK                            x       y       z     vdW  Elec       q    Type
REMARK                         _______ _______ _______ _____ _____    ______ ____
ROOT
ATOM     10  C   UNL     1      -8.967  60.483  29.931  0.00  0.00    +0.038 A 
ATOM     11  C   UNL     1      -9.914  59.859  29.080  0.00  0.00    +0.047 A 
ATOM     12  C   UNL     1     -10.587  58.632  29.476  0.00  0.00    +0.035 A 
ATOM     32  C   UNL     1     -10.273  58.068  30.747  0.00  0.00    +0.024 A 
ATOM     33  C   UNL     1      -9.311  58.689  31.624  0.00  0.00    +0.007 A 
ATOM     34  C   UNL     1      -8.642  59.899  31.238  0.00  0.00    -0.029 A 
ATOM     35  C   UNL     1      -7.615  60.517  32.215  0.00  0.00    +0.045 C 
ENDROOT
BRANCH  10   9
ATOM      4  C   UNL     1      -5.687  62.841  27.338  0.00  0.00    +0.077 A 
ATOM      5  C   UNL     1      -5.137  61.623  26.817  0.00  0.00    +0.048 A 
ATOM      6  C   UNL     1      -5.722  60.411  27.247  0.00  0.00    +0.116 A 
ATOM      7  N   UNL     1      -6.778  60.427  28.132  0.00  0.00    -0.223 NA
ATOM      8  C   UNL     1      -7.284  61.620  28.616  0.00  0.00    +0.220 A 
ATOM      9  N   UNL     1      -8.351  61.661  29.501  0.00  0.00    -0.283 N 
ATOM     36  H   UNL     1      -8.690  62.560  29.841  0.00  0.00    +0.155 HD
ATOM     37  N   UNL     1      -6.742  62.791  28.222  0.00  0.00    -0.214 NA
BRANCH   4   3
ATOM      1  C   UNL     1      -4.738  66.057  25.324  0.00  0.00    +0.020 A 
ATOM      2  C   UNL     1      -5.242  64.736  25.621  0.00  0.00    +0.013 A 
ATOM      3  C   UNL     1      -5.179  64.202  26.976  0.00  0.00    +0.019 A 
ATOM     38  C   UNL     1      -4.597  65.037  28.015  0.00  0.00    +0.120 A 
ATOM     39  N   UNL     1      -4.119  66.305  27.700  0.00  0.00    -0.263 NA
ATOM     40  C   UNL     1      -4.172  66.829  26.400  0.00  0.00    +0.111 A 
ENDBRANCH   4   3
ENDBRANCH  10   9
BRANCH  12  13
ATOM     13  N   UNL     1     -11.553  57.949  28.651  0.00  0.00    -0.281 N 
ATOM     14  C   UNL     1     -12.560  58.505  27.880  0.00  0.00    +0.248 C 
ATOM     30  O   UNL     1     -12.921  59.671  27.952  0.00  0.00    -0.270 OA
ATOM     31  H   UNL     1     -11.485  56.931  28.633  0.00  0.00    +0.155 HD
BRANCH  14  15
ATOM     15  C   UNL     1     -13.281  57.639  26.899  0.00  0.00    +0.037 A 
ATOM     16  C   UNL     1     -13.953  58.212  25.730  0.00  0.00    +0.013 A 
ATOM     17  C   UNL     1     -14.656  57.355  24.808  0.00  0.00    +0.005 A 
ATOM     18  C   UNL     1     -14.688  55.915  25.051  0.00  0.00    -0.033 A 
ATOM     28  C   UNL     1     -14.008  55.372  26.215  0.00  0.00    +0.005 A 
ATOM     29  C   UNL     1     -13.319  56.209  27.122  0.00  0.00    +0.013 A 
BRANCH  18  19
ATOM     19  C   UNL     1     -15.431  54.928  24.131  0.00  0.00    +0.119 C 
BRANCH  19  20
ATOM     20  N   UNL     1     -16.095  55.491  22.918  0.00  0.00    -0.302 NA
ATOM     21  C   UNL     1     -17.552  55.877  23.187  0.00  0.00    +0.066 C 
ATOM     22  C   UNL     1     -18.224  56.486  21.913  0.00  0.00    -0.064 C 
ATOM     23  N   UNL     1     -18.134  55.481  20.763  0.00  0.00    +0.379 N 
ATOM     24  C   UNL     1     -18.816  56.027  19.580  0.00  0.00    -0.096 C 
ATOM     25  H   UNL     1     -18.680  54.561  21.074  0.00  0.00    -0.082 HD
ATOM     26  C   UNL     1     -16.688  55.090  20.490  0.00  0.00    -0.064 C 
ATOM     27  C   UNL     1     -16.021  54.514  21.770  0.00  0.00    +0.066 C 
ENDBRANCH  19  20
ENDBRANCH  18  19
ENDBRANCH  14  15
ENDBRANCH  12  13
TORSDOF 6
ENDMDL
