MODEL 1
REMARK VINA RESULT:      -8.1      0.000      0.000
REMARK  Name = C:\Users\Docking\Desktop\test protocol\1iep_ligandH.pdb
REMARK  8 active torsions:
REMARK  status: ('A' for Active; 'I' for Inactive)
REMARK    1  A    between atoms: _5  and  _11
REMARK    2  A    between atoms: _19  and  _21
REMARK    3  A    between atoms: _22  and  _66
REMARK    4  A    between atoms: _27  and  _30
REMARK    5  A    between atoms: _32  and  _33
REMARK    6  A    between atoms: _38  and  _43
REMARK    7  A    between atoms: _43  and  _46
REMARK    8  A    between atoms: _53  and  _55
REMARK                            x       y       z     vdW  Elec       q    Type
REMARK                         _______ _______ _______ _____ _____    ______ ____
ROOT
ATOM     10  C   UNL     1       9.591  25.624   8.548  0.00  0.00    +0.038 A 
ATOM     11  C   UNL     1       8.209  25.904   8.392  0.00  0.00    +0.047 A 
ATOM     12  C   UNL     1       7.719  27.273   8.352  0.00  0.00    +0.035 A 
ATOM     32  C   UNL     1       8.665  28.333   8.470  0.00  0.00    +0.024 A 
ATOM     33  C   UNL     1      10.073  28.066   8.630  0.00  0.00    +0.007 A 
ATOM     34  C   UNL     1      10.562  26.718   8.673  0.00  0.00    -0.029 A 
ATOM     35  C   UNL     1      12.081  26.491   8.853  0.00  0.00    +0.045 C 
ENDROOT
BRANCH  10   9
ATOM      4  C   UNL     1      11.039  21.698  10.898  0.00  0.00    +0.077 A 
ATOM      5  C   UNL     1      10.990  22.366  12.166  0.00  0.00    +0.048 A 
ATOM      6  C   UNL     1      10.594  23.723  12.169  0.00  0.00    +0.116 A 
ATOM      7  N   UNL     1      10.273  24.353  10.987  0.00  0.00    -0.223 NA
ATOM      8  C   UNL     1      10.332  23.679   9.780  0.00  0.00    +0.220 A 
ATOM      9  N   UNL     1      10.006  24.291   8.580  0.00  0.00    -0.283 N 
ATOM     36  H   UNL     1      10.070  23.762   7.711  0.00  0.00    +0.155 HD
ATOM     37  N   UNL     1      10.709  22.384   9.750  0.00  0.00    -0.214 NA
BRANCH   4   3
ATOM      1  C   UNL     1      11.218  17.807  11.261  0.00  0.00    +0.020 A 
ATOM      2  C   UNL     1      10.797  19.175  11.459  0.00  0.00    +0.013 A 
ATOM      3  C   UNL     1      11.436  20.264  10.731  0.00  0.00    +0.019 A 
ATOM     38  C   UNL     1      12.505  19.931   9.801  0.00  0.00    +0.120 A 
ATOM     39  N   UNL     1      12.889  18.605   9.631  0.00  0.00    -0.263 NA
ATOM     40  C   UNL     1      12.283  17.549  10.329  0.00  0.00    +0.111 A 
ENDBRANCH   4   3
ENDBRANCH  10   9
BRANCH  12  13
ATOM     13  N   UNL     1       6.327  27.619   8.204  0.00  0.00    -0.281 N 
ATOM     14  C   UNL     1       5.665  28.014   7.053  0.00  0.00    +0.248 C 
ATOM     30  O   UNL     1       6.220  28.337   6.013  0.00  0.00    -0.270 OA
ATOM     31  H   UNL     1       5.761  27.566   9.051  0.00  0.00    +0.155 HD
BRANCH  14  15
ATOM     15  C   UNL     1       4.172  28.072   7.062  0.00  0.00    +0.037 A 
ATOM     16  C   UNL     1       3.367  26.878   7.334  0.00  0.00    +0.013 A 
ATOM     17  C   UNL     1       1.928  26.958   7.320  0.00  0.00    +0.005 A 
ATOM     18  C   UNL     1       1.284  28.238   7.035  0.00  0.00    -0.033 A 
ATOM     28  C   UNL     1       2.107  29.407   6.774  0.00  0.00    +0.005 A 
ATOM     29  C   UNL     1       3.518  29.333   6.785  0.00  0.00    +0.013 A 
BRANCH  18  19
ATOM     19  C   UNL     1      -0.245  28.411   6.979  0.00  0.00    +0.119 C 
BRANCH  19  20
ATOM     20  N   UNL     1      -0.979  28.435   8.279  0.00  0.00    -0.302 NA
ATOM     21  C   UNL     1      -0.175  29.135   9.379  0.00  0.00    +0.066 C 
ATOM     22  C   UNL     1      -0.967  29.171  10.727  0.00  0.00    -0.064 C 
ATOM     23  N   UNL     1      -1.326  27.744  11.143  0.00  0.00    +0.379 N 
ATOM     24  C   UNL     1      -2.020  27.771  12.439  0.00  0.00    -0.096 C 
ATOM     25  H   UNL     1      -0.373  27.182  11.281  0.00  0.00    -0.082 HD
ATOM     26  C   UNL     1      -2.123  27.040  10.054  0.00  0.00    -0.064 C 
ATOM     27  C   UNL     1      -1.340  27.035   8.711  0.00  0.00    +0.066 C 
ENDBRANCH  19  20
ENDBRANCH  18  19
ENDBRANCH  14  15
ENDBRANCH  12  13
TORSDOF 6
ENDMDL
MODEL 2
REMARK VINA RESULT:      -8.1      7.594     12.983
REMARK  Name = C:\Users\Docking\Desktop\test protocol\1iep_ligandH.pdb
REMARK  8 active torsions:
REMARK  status: ('A' for Active; 'I' for Inactive)
REMARK    1  A    between atoms: _5  and  _11
REMARK    2  A    between atoms: _19  and  _21
REMARK    3  A    between atoms: _22  and  _66
REMARK    4  A    between atoms: _27  and  _30
REMARK    5  A    between atoms: _32  and  _33
REMARK    6  A    between atoms: _38  and  _43
REMARK    7  A    between atoms: _43  and  _46
REMARK    8  A    between atoms: _53  and  _55
REMARK                            x       y       z     vdW  Elec       q    Type
REMARK                         _______ _______ _______ _____ _____    ______ ____
ROOT
ATOM     10  C   UNL     1      12.300  23.273  10.390  0.00  0.00    +0.038 A 
ATOM     11  C   UNL     1      13.347  23.180   9.437  0.00  0.00    +0.047 A 
ATOM     12  C   UNL     1      13.626  24.271   8.517  0.00  0.00    +0.035 A 
ATOM     32  C   UNL     1      12.821  25.444   8.596  0.00  0.00    +0.024 A 
ATOM     33  C   UNL     1      11.752  25.556   9.558  0.00  0.00    +0.007 A 
ATOM     34  C   UNL     1      11.470  24.482  10.466  0.00  0.00    -0.029 A 
ATOM     35  C   UNL     1      10.308  24.653  11.472  0.00  0.00    +0.045 C 
ENDROOT
BRANCH  10   9
ATOM      4  C   UNL     1       9.946  19.285  11.653  0.00  0.00    +0.077 A 
ATOM      5  C   UNL     1       9.071  19.371  10.519  0.00  0.00    +0.048 A 
ATOM      6  C   UNL     1       9.256  20.461   9.638  0.00  0.00    +0.116 A 
ATOM      7  N   UNL     1      10.245  21.389   9.884  0.00  0.00    -0.223 NA
ATOM      8  C   UNL     1      11.070  21.278  10.987  0.00  0.00    +0.220 A 
ATOM      9  N   UNL     1      12.075  22.195  11.249  0.00  0.00    -0.283 N 
ATOM     36  H   UNL     1      12.658  22.082  12.078  0.00  0.00    +0.155 HD
ATOM     37  N   UNL     1      10.913  20.247  11.844  0.00  0.00    -0.214 NA
BRANCH   4   3
ATOM      1  C   UNL     1       8.845  16.106  13.649  0.00  0.00    +0.020 A 
ATOM      2  C   UNL     1       8.867  17.141  12.641  0.00  0.00    +0.013 A 
ATOM      3  C   UNL     1       9.878  18.190  12.671  0.00  0.00    +0.019 A 
ATOM     38  C   UNL     1      10.862  18.163  13.743  0.00  0.00    +0.120 A 
ATOM     39  N   UNL     1      10.816  17.154  14.701  0.00  0.00    -0.263 NA
ATOM     40  C   UNL     1       9.846  16.141  14.683  0.00  0.00    +0.111 A 
ENDBRANCH   4   3
ENDBRANCH  10   9
BRANCH  12  13
ATOM     13  N   UNL     1      14.670  24.230   7.524  0.00  0.00    -0.281 N 
ATOM     14  C   UNL     1      14.682  23.529   6.329  0.00  0.00    +0.248 C 
ATOM     30  O   UNL     1      13.880  22.656   6.032  0.00  0.00    -0.270 OA
ATOM     31  H   UNL     1      15.502  24.785   7.726  0.00  0.00    +0.155 HD
BRANCH  14  15
ATOM     15  C   UNL     1      15.748  23.830   5.325  0.00  0.00    +0.037 A 
ATOM     16  C   UNL     1      15.423  24.040   3.912  0.00  0.00    +0.013 A 
ATOM     17  C   UNL     1      16.472  24.313   2.962  0.00  0.00    +0.005 A 
ATOM     18  C   UNL     1      17.857  24.379   3.423  0.00  0.00    -0.033 A 
ATOM     28  C   UNL     1      18.150  24.172   4.831  0.00  0.00    +0.005 A 
ATOM     29  C   UNL     1      17.125  23.903   5.765  0.00  0.00    +0.013 A 
BRANCH  18  19
ATOM     19  C   UNL     1      19.042  24.643   2.475  0.00  0.00    +0.119 C 
BRANCH  19  20
ATOM     20  N   UNL     1      19.783  25.928   2.650  0.00  0.00    -0.302 NA
ATOM     21  C   UNL     1      18.921  27.142   2.295  0.00  0.00    +0.066 C 
ATOM     22  C   UNL     1      19.705  28.478   2.506  0.00  0.00    -0.064 C 
ATOM     23  N   UNL     1      20.982  28.455   1.663  0.00  0.00    +0.379 N 
ATOM     24  C   UNL     1      21.692  29.734   1.814  0.00  0.00    -0.096 C 
ATOM     25  H   UNL     1      20.679  28.360   0.594  0.00  0.00    -0.082 HD
ATOM     26  C   UNL     1      21.844  27.249   2.008  0.00  0.00    -0.064 C 
ATOM     27  C   UNL     1      21.046  25.929   1.824  0.00  0.00    +0.066 C 
ENDBRANCH  19  20
ENDBRANCH  18  19
ENDBRANCH  14  15
ENDBRANCH  12  13
TORSDOF 6
ENDMDL
MODEL 3
REMARK VINA RESULT:      -8.1      9.744     14.144
REMARK  Name = C:\Users\Docking\Desktop\test protocol\1iep_ligandH.pdb
REMARK  8 active torsions:
REMARK  status: ('A' for Active; 'I' for Inactive)
REMARK    1  A    between atoms: _5  and  _11
REMARK    2  A    between atoms: _19  and  _21
REMARK    3  A    between atoms: _22  and  _66
REMARK    4  A    between atoms: _27  and  _30
REMARK    5  A    between atoms: _32  and  _33
REMARK    6  A    between atoms: _38  and  _43
REMARK    7  A    between atoms: _43  and  _46
REMARK    8  A    between atoms: _53  and  _55
REMARK                            x       y       z     vdW  Elec       q    Type
REMARK                         _______ _______ _______ _____ _____    ______ ____
ROOT
ATOM     10  C   UNL     1      20.273  25.749   3.393  0.00  0.00    +0.038 A 
ATOM     11  C   UNL     1      19.096  25.604   4.172  0.00  0.00    +0.047 A 
ATOM     12  C   UNL     1      18.297  24.390   4.108  0.00  0.00    +0.035 A 
ATOM     32  C   UNL     1      18.726  23.343   3.241  0.00  0.00    +0.024 A 
ATOM     33  C   UNL     1      19.919  23.475   2.441  0.00  0.00    +0.007 A 
ATOM     34  C   UNL     1      20.710  24.671   2.499  0.00  0.00    -0.029 A 
ATOM     35  C   UNL     1      21.975  24.760   1.614  0.00  0.00    +0.045 C 
ENDROOT
BRANCH  10   9
ATOM      4  C   UNL     1      21.664  30.020   1.700  0.00  0.00    +0.077 A 
ATOM      5  C   UNL     1      20.893  29.862   0.501  0.00  0.00    +0.048 A 
ATOM      6  C   UNL     1      20.158  28.664   0.355  0.00  0.00    +0.116 A 
ATOM      7  N   UNL     1      20.199  27.703   1.342  0.00  0.00    -0.223 NA
ATOM      8  C   UNL     1      20.954  27.886   2.486  0.00  0.00    +0.220 A 
ATOM      9  N   UNL     1      21.002  26.936   3.494  0.00  0.00    -0.283 N 
ATOM     36  H   UNL     1      21.577  27.106   4.319  0.00  0.00    +0.155 HD
ATOM     37  N   UNL     1      21.666  29.020   2.648  0.00  0.00    -0.214 NA
BRANCH   4   3
ATOM      1  C   UNL     1      23.411  32.975   3.575  0.00  0.00    +0.020 A 
ATOM      2  C   UNL     1      22.599  31.804   3.337  0.00  0.00    +0.013 A 
ATOM      3  C   UNL     1      22.491  31.231   2.002  0.00  0.00    +0.019 A 
ATOM     38  C   UNL     1      23.225  31.870   0.920  0.00  0.00    +0.120 A 
ATOM     39  N   UNL     1      23.998  32.998   1.179  0.00  0.00    -0.263 NA
ATOM     40  C   UNL     1      24.108  33.560   2.459  0.00  0.00    +0.111 A 
ENDBRANCH   4   3
ENDBRANCH  10   9
BRANCH  12  13
ATOM     13  N   UNL     1      17.089  24.188   4.869  0.00  0.00    -0.281 N 
ATOM     14  C   UNL     1      16.845  23.232   5.841  0.00  0.00    +0.248 C 
ATOM     30  O   UNL     1      17.559  22.263   6.053  0.00  0.00    -0.270 OA
ATOM     31  H   UNL     1      16.321  24.829   4.667  0.00  0.00    +0.155 HD
BRANCH  14  15
ATOM     15  C   UNL     1      15.622  23.362   6.691  0.00  0.00    +0.037 A 
ATOM     16  C   UNL     1      15.644  23.010   8.113  0.00  0.00    +0.013 A 
ATOM     17  C   UNL     1      14.446  23.128   8.906  0.00  0.00    +0.005 A 
ATOM     18  C   UNL     1      13.215  23.603   8.277  0.00  0.00    -0.033 A 
ATOM     28  C   UNL     1      13.223  23.949   6.866  0.00  0.00    +0.005 A 
ATOM     29  C   UNL     1      14.395  23.834   6.085  0.00  0.00    +0.013 A 
BRANCH  18  19
ATOM     19  C   UNL     1      11.885  23.740   9.042  0.00  0.00    +0.119 C 
BRANCH  19  20
ATOM     20  N   UNL     1      10.960  24.832   8.614  0.00  0.00    -0.302 NA
ATOM     21  C   UNL     1      11.377  26.192   9.181  0.00  0.00    +0.066 C 
ATOM     22  C   UNL     1      10.412  27.327   8.705  0.00  0.00    -0.064 C 
ATOM     23  N   UNL     1       8.981  26.982   9.121  0.00  0.00    +0.379 N 
ATOM     24  C   UNL     1       8.079  28.074   8.727  0.00  0.00    -0.096 C 
ATOM     25  H   UNL     1       8.960  26.911  10.233  0.00  0.00    -0.082 HD
ATOM     26  C   UNL     1       8.559  25.630   8.564  0.00  0.00    -0.064 C 
ATOM     27  C   UNL     1       9.542  24.514   9.019  0.00  0.00    +0.066 C 
ENDBRANCH  19  20
ENDBRANCH  18  19
ENDBRANCH  14  15
ENDBRANCH  12  13
TORSDOF 6
ENDMDL
MODEL 4
REMARK VINA RESULT:      -8.0      9.884     14.225
REMARK  Name = C:\Users\Docking\Desktop\test protocol\1iep_ligandH.pdb
REMARK  8 active torsions:
REMARK  status: ('A' for Active; 'I' for Inactive)
REMARK    1  A    between atoms: _5  and  _11
REMARK    2  A    between atoms: _19  and  _21
REMARK    3  A    between atoms: _22  and  _66
REMARK    4  A    between atoms: _27  and  _30
REMARK    5  A    between atoms: _32  and  _33
REMARK    6  A    between atoms: _38  and  _43
REMARK    7  A    between atoms: _43  and  _46
REMARK    8  A    between atoms: _53  and  _55
REMARK                            x       y       z     vdW  Elec       q    Type
REMARK                         _______ _______ _______ _____ _____    ______ ____
ROOT
ATOM     10  C   UNL     1      20.293  25.982   3.228  0.00  0.00    +0.038 A 
ATOM     11  C   UNL     1      18.986  25.950   3.777  0.00  0.00    +0.047 A 
ATOM     12  C   UNL     1      18.148  24.768   3.657  0.00  0.00    +0.035 A 
ATOM     32  C   UNL     1      18.674  23.633   2.974  0.00  0.00    +0.024 A 
ATOM     33  C   UNL     1      20.000  23.648   2.409  0.00  0.00    +0.007 A 
ATOM     34  C   UNL     1      20.831  24.812   2.521  0.00  0.00    -0.029 A 
ATOM     35  C   UNL     1      22.242  24.774   1.890  0.00  0.00    +0.045 C 
ENDROOT
BRANCH  10   9
ATOM      4  C   UNL     1      21.889  30.220   1.639  0.00  0.00    +0.077 A 
ATOM      5  C   UNL     1      21.165  30.098   0.406  0.00  0.00    +0.048 A 
ATOM      6  C   UNL     1      20.400  28.925   0.217  0.00  0.00    +0.116 A 
ATOM      7  N   UNL     1      20.368  27.954   1.195  0.00  0.00    -0.223 NA
ATOM      8  C   UNL     1      21.079  28.103   2.371  0.00  0.00    +0.220 A 
ATOM      9  N   UNL     1      21.055  27.144   3.372  0.00  0.00    -0.283 N 
ATOM     36  H   UNL     1      21.599  27.288   4.222  0.00  0.00    +0.155 HD
ATOM     37  N   UNL     1      21.818  29.213   2.575  0.00  0.00    -0.214 NA
BRANCH   4   3
ATOM      1  C   UNL     1      23.735  33.032   3.635  0.00  0.00    +0.020 A 
ATOM      2  C   UNL     1      22.902  31.886   3.353  0.00  0.00    +0.013 A 
ATOM      3  C   UNL     1      22.739  31.402   1.987  0.00  0.00    +0.019 A 
ATOM     38  C   UNL     1      23.440  32.105   0.923  0.00  0.00    +0.120 A 
ATOM     39  N   UNL     1      24.235  33.206   1.225  0.00  0.00    -0.263 NA
ATOM     40  C   UNL     1      24.398  33.682   2.535  0.00  0.00    +0.111 A 
ENDBRANCH   4   3
ENDBRANCH  10   9
BRANCH  12  13
ATOM     13  N   UNL     1      16.810  24.681   4.188  0.00  0.00    -0.281 N 
ATOM     14  C   UNL     1      15.616  24.634   3.485  0.00  0.00    +0.248 C 
ATOM     30  O   UNL     1      15.507  24.877   2.293  0.00  0.00    -0.270 OA
ATOM     31  H   UNL     1      16.733  24.649   5.204  0.00  0.00    +0.155 HD
BRANCH  14  15
ATOM     15  C   UNL     1      14.361  24.281   4.216  0.00  0.00    +0.037 A 
ATOM     16  C   UNL     1      13.238  25.218   4.294  0.00  0.00    +0.013 A 
ATOM     17  C   UNL     1      12.045  24.859   5.020  0.00  0.00    +0.005 A 
ATOM     18  C   UNL     1      11.970  23.554   5.673  0.00  0.00    -0.033 A 
ATOM     28  C   UNL     1      13.098  22.642   5.576  0.00  0.00    +0.005 A 
ATOM     29  C   UNL     1      14.268  22.991   4.866  0.00  0.00    +0.013 A 
BRANCH  18  19
ATOM     19  C   UNL     1      10.746  23.096   6.487  0.00  0.00    +0.119 C 
BRANCH  19  20
ATOM     20  N   UNL     1      10.547  23.716   7.831  0.00  0.00    -0.302 NA
ATOM     21  C   UNL     1      11.877  24.018   8.527  0.00  0.00    +0.066 C 
ATOM     22  C   UNL     1      11.650  24.686   9.922  0.00  0.00    -0.064 C 
ATOM     23  N   UNL     1      10.781  23.772  10.787  0.00  0.00    +0.379 N 
ATOM     24  C   UNL     1      10.614  24.371  12.120  0.00  0.00    -0.096 C 
ATOM     25  H   UNL     1      11.327  22.809  10.915  0.00  0.00    -0.082 HD
ATOM     26  C   UNL     1       9.457  23.465  10.101  0.00  0.00    -0.064 C 
ATOM     27  C   UNL     1       9.694  22.828   8.704  0.00  0.00    +0.066 C 
ENDBRANCH  19  20
ENDBRANCH  18  19
ENDBRANCH  14  15
ENDBRANCH  12  13
TORSDOF 6
ENDMDL
MODEL 5
REMARK VINA RESULT:      -8.0      7.417     14.756
REMARK  Name = C:\Users\Docking\Desktop\test protocol\1iep_ligandH.pdb
REMARK  8 active torsions:
REMARK  status: ('A' for Active; 'I' for Inactive)
REMARK    1  A    between atoms: _5  and  _11
REMARK    2  A    between atoms: _19  and  _21
REMARK    3  A    between atoms: _22  and  _66
REMARK    4  A    between atoms: _27  and  _30
REMARK    5  A    between atoms: _32  and  _33
REMARK    6  A    between atoms: _38  and  _43
REMARK    7  A    between atoms: _43  and  _46
REMARK    8  A    between atoms: _53  and  _55
REMARK                            x       y       z     vdW  Elec       q    Type
REMARK                         _______ _______ _______ _____ _____    ______ ____
ROOT
ATOM     10  C   UNL     1      12.739  23.333   8.458  0.00  0.00    +0.038 A 
ATOM     11  C   UNL     1      13.925  23.655   7.751  0.00  0.00    +0.047 A 
ATOM     12  C   UNL     1      15.226  23.201   8.217  0.00  0.00    +0.035 A 
ATOM     32  C   UNL     1      15.282  22.418   9.407  0.00  0.00    +0.024 A 
ATOM     33  C   UNL     1      14.086  22.082  10.139  0.00  0.00    +0.007 A 
ATOM     34  C   UNL     1      12.800  22.529   9.685  0.00  0.00    -0.029 A 
ATOM     35  C   UNL     1      11.552  22.145  10.514  0.00  0.00    +0.045 C 
ENDROOT
BRANCH  10   9
ATOM      4  C   UNL     1       9.407  26.747   7.929  0.00  0.00    +0.077 A 
ATOM      5  C   UNL     1      10.152  27.680   8.723  0.00  0.00    +0.048 A 
ATOM      6  C   UNL     1      11.385  27.240   9.256  0.00  0.00    +0.116 A 
ATOM      7  N   UNL     1      11.829  25.960   9.006  0.00  0.00    -0.223 NA
ATOM      8  C   UNL     1      11.085  25.084   8.237  0.00  0.00    +0.220 A 
ATOM      9  N   UNL     1      11.516  23.795   7.966  0.00  0.00    -0.283 N 
ATOM     36  H   UNL     1      10.935  23.177   7.400  0.00  0.00    +0.155 HD
ATOM     37  N   UNL     1       9.904  25.480   7.718  0.00  0.00    -0.214 NA
BRANCH   4   3
ATOM      1  C   UNL     1       5.591  27.409   7.381  0.00  0.00    +0.020 A 
ATOM      2  C   UNL     1       6.837  27.097   8.041  0.00  0.00    +0.013 A 
ATOM      3  C   UNL     1       8.088  27.064   7.294  0.00  0.00    +0.019 A 
ATOM     38  C   UNL     1       8.044  27.356   5.870  0.00  0.00    +0.120 A 
ATOM     39  N   UNL     1       6.828  27.653   5.260  0.00  0.00    -0.263 NA
ATOM     40  C   UNL     1       5.618  27.685   5.969  0.00  0.00    +0.111 A 
ENDBRANCH   4   3
ENDBRANCH  10   9
BRANCH  12  13
ATOM     13  N   UNL     1      16.465  23.504   7.545  0.00  0.00    -0.281 N 
ATOM     14  C   UNL     1      17.103  22.766   6.561  0.00  0.00    +0.248 C 
ATOM     30  O   UNL     1      16.812  21.618   6.260  0.00  0.00    -0.270 OA
ATOM     31  H   UNL     1      16.929  24.368   7.829  0.00  0.00    +0.155 HD
BRANCH  14  15
ATOM     15  C   UNL     1      18.239  23.388   5.814  0.00  0.00    +0.037 A 
ATOM     16  C   UNL     1      19.572  22.779   5.813  0.00  0.00    +0.013 A 
ATOM     17  C   UNL     1      20.654  23.408   5.099  0.00  0.00    +0.005 A 
ATOM     18  C   UNL     1      20.406  24.654   4.377  0.00  0.00    -0.033 A 
ATOM     28  C   UNL     1      19.073  25.234   4.391  0.00  0.00    +0.005 A 
ATOM     29  C   UNL     1      18.011  24.620   5.091  0.00  0.00    +0.013 A 
BRANCH  18  19
ATOM     19  C   UNL     1      21.507  25.406   3.605  0.00  0.00    +0.119 C 
BRANCH  19  20
ATOM     20  N   UNL     1      21.077  26.245   2.447  0.00  0.00    -0.302 NA
ATOM     21  C   UNL     1      21.927  25.982   1.200  0.00  0.00    +0.066 C 
ATOM     22  C   UNL     1      21.450  26.852  -0.008  0.00  0.00    -0.064 C 
ATOM     23  N   UNL     1      21.502  28.330   0.380  0.00  0.00    +0.379 N 
ATOM     24  C   UNL     1      21.109  29.154  -0.773  0.00  0.00    -0.096 C 
ATOM     25  H   UNL     1      22.560  28.578   0.628  0.00  0.00    -0.082 HD
ATOM     26  C   UNL     1      20.661  28.601   1.620  0.00  0.00    -0.064 C 
ATOM     27  C   UNL     1      21.125  27.710   2.806  0.00  0.00    +0.066 C 
ENDBRANCH  19  20
ENDBRANCH  18  19
ENDBRANCH  14  15
ENDBRANCH  12  13
TORSDOF 6
ENDMDL
