MODEL 1
REMARK VINA RESULT:      -8.7      0.000      0.000
REMARK  Name = C:\Users\Docking\Desktop\test protocol\1iep_ligandH.pdb
REMARK  8 active torsions:
REMARK  status: ('A' for Active; 'I' for Inactive)
REMARK    1  A    between atoms: _5  and  _11
REMARK    2  A    between atoms: _19  and  _21
REMARK    3  A    between atoms: _22  and  _66
REMARK    4  A    between atoms: _27  and  _30
REMARK    5  A    between atoms: _32  and  _33
REMARK    6  A    between atoms: _38  and  _43
REMARK    7  A    between atoms: _43  and  _46
REMARK    8  A    between atoms: _53  and  _55
REMARK                            x       y       z     vdW  Elec       q    Type
REMARK                         _______ _______ _______ _____ _____    ______ ____
ROOT
ATOM     10  C   UNL     1      19.461  26.206   2.804  0.00  0.00    +0.038 A 
ATOM     11  C   UNL     1      20.188  27.404   3.019  0.00  0.00    +0.047 A 
ATOM     12  C   UNL     1      21.172  27.871   2.054  0.00  0.00    +0.035 A 
ATOM     32  C   UNL     1      21.388  27.092   0.880  0.00  0.00    +0.024 A 
ATOM     33  C   UNL     1      20.659  25.871   0.646  0.00  0.00    +0.007 A 
ATOM     34  C   UNL     1      19.689  25.405   1.595  0.00  0.00    -0.029 A 
ATOM     35  C   UNL     1      18.941  24.084   1.296  0.00  0.00    +0.045 C 
ENDROOT
BRANCH  10   9
ATOM      4  C   UNL     1      18.079  23.416   6.458  0.00  0.00    +0.077 A 
ATOM      5  C   UNL     1      19.309  22.678   6.436  0.00  0.00    +0.048 A 
ATOM      6  C   UNL     1      20.268  23.042   5.464  0.00  0.00    +0.116 A 
ATOM      7  N   UNL     1      20.006  24.071   4.586  0.00  0.00    -0.223 NA
ATOM      8  C   UNL     1      18.810  24.762   4.632  0.00  0.00    +0.220 A 
ATOM      9  N   UNL     1      18.528  25.805   3.763  0.00  0.00    -0.283 N 
ATOM     36  H   UNL     1      17.631  26.285   3.825  0.00  0.00    +0.155 HD
ATOM     37  N   UNL     1      17.877  24.432   5.550  0.00  0.00    -0.214 NA
BRANCH   4   3
ATOM      1  C   UNL     1      16.072  22.262   9.610  0.00  0.00    +0.020 A 
ATOM      2  C   UNL     1      17.178  22.493   8.710  0.00  0.00    +0.013 A 
ATOM      3  C   UNL     1      16.970  23.152   7.427  0.00  0.00    +0.019 A 
ATOM     38  C   UNL     1      15.619  23.570   7.083  0.00  0.00    +0.120 A 
ATOM     39  N   UNL     1      14.573  23.332   7.970  0.00  0.00    -0.263 NA
ATOM     40  C   UNL     1      14.762  22.697   9.206  0.00  0.00    +0.111 A 
ENDBRANCH   4   3
ENDBRANCH  10   9
BRANCH  12  13
ATOM     13  N   UNL     1      21.946  29.076   2.222  0.00  0.00    -0.281 N 
ATOM     14  C   UNL     1      21.838  30.263   1.516  0.00  0.00    +0.248 C 
ATOM     30  O   UNL     1      21.199  30.397   0.483  0.00  0.00    -0.270 OA
ATOM     31  H   UNL     1      22.660  29.050   2.950  0.00  0.00    +0.155 HD
BRANCH  14  15
ATOM     15  C   UNL     1      22.555  31.472   2.022  0.00  0.00    +0.037 A 
ATOM     16  C   UNL     1      23.265  31.453   3.304  0.00  0.00    +0.013 A 
ATOM     17  C   UNL     1      23.934  32.639   3.777  0.00  0.00    +0.005 A 
ATOM     18  C   UNL     1      23.898  33.854   2.967  0.00  0.00    -0.033 A 
ATOM     28  C   UNL     1      23.192  33.843   1.697  0.00  0.00    +0.005 A 
ATOM     29  C   UNL     1      22.533  32.683   1.230  0.00  0.00    +0.013 A 
BRANCH  18  19
ATOM     19  C   UNL     1      24.567  35.171   3.403  0.00  0.00    +0.119 C 
BRANCH  19  20
ATOM     20  N   UNL     1      24.775  36.213   2.354  0.00  0.00    -0.302 NA
ATOM     21  C   UNL     1      26.107  36.033   1.622  0.00  0.00    +0.066 C 
ATOM     22  C   UNL     1      26.298  37.118   0.512  0.00  0.00    -0.064 C 
ATOM     23  N   UNL     1      26.209  38.509   1.143  0.00  0.00    +0.379 N 
ATOM     24  C   UNL     1      26.446  39.531   0.112  0.00  0.00    -0.096 C 
ATOM     25  H   UNL     1      27.027  38.592   1.895  0.00  0.00    -0.082 HD
ATOM     26  C   UNL     1      24.888  38.695   1.875  0.00  0.00    -0.064 C 
ATOM     27  C   UNL     1      24.695  37.594   2.955  0.00  0.00    +0.066 C 
ENDBRANCH  19  20
ENDBRANCH  18  19
ENDBRANCH  14  15
ENDBRANCH  12  13
TORSDOF 6
ENDMDL
MODEL 2
REMARK VINA RESULT:      -8.3      2.649      5.774
REMARK  Name = C:\Users\Docking\Desktop\test protocol\1iep_ligandH.pdb
REMARK  8 active torsions:
REMARK  status: ('A' for Active; 'I' for Inactive)
REMARK    1  A    between atoms: _5  and  _11
REMARK    2  A    between atoms: _19  and  _21
REMARK    3  A    between atoms: _22  and  _66
REMARK    4  A    between atoms: _27  and  _30
REMARK    5  A    between atoms: _32  and  _33
REMARK    6  A    between atoms: _38  and  _43
REMARK    7  A    between atoms: _43  and  _46
REMARK    8  A    between atoms: _53  and  _55
REMARK                            x       y       z     vdW  Elec       q    Type
REMARK                         _______ _______ _______ _____ _____    ______ ____
ROOT
ATOM     10  C   UNL     1      15.874  22.793   5.443  0.00  0.00    +0.038 A 
ATOM     11  C   UNL     1      16.495  23.999   5.030  0.00  0.00    +0.047 A 
ATOM     12  C   UNL     1      17.633  23.988   4.125  0.00  0.00    +0.035 A 
ATOM     32  C   UNL     1      18.112  22.730   3.657  0.00  0.00    +0.024 A 
ATOM     33  C   UNL     1      17.494  21.494   4.068  0.00  0.00    +0.007 A 
ATOM     34  C   UNL     1      16.372  21.498   4.963  0.00  0.00    -0.029 A 
ATOM     35  C   UNL     1      15.753  20.142   5.374  0.00  0.00    +0.045 C 
ENDROOT
BRANCH  10   9
ATOM      4  C   UNL     1      13.969  22.790   9.849  0.00  0.00    +0.077 A 
ATOM      5  C   UNL     1      15.251  22.609  10.467  0.00  0.00    +0.048 A 
ATOM      6  C   UNL     1      16.374  22.514   9.616  0.00  0.00    +0.116 A 
ATOM      7  N   UNL     1      16.216  22.595   8.249  0.00  0.00    -0.223 NA
ATOM      8  C   UNL     1      14.966  22.769   7.685  0.00  0.00    +0.220 A 
ATOM      9  N   UNL     1      14.784  22.862   6.314  0.00  0.00    -0.283 N 
ATOM     36  H   UNL     1      13.844  22.982   5.937  0.00  0.00    +0.155 HD
ATOM     37  N   UNL     1      13.877  22.861   8.477  0.00  0.00    -0.214 NA
BRANCH   4   3
ATOM      1  C   UNL     1      10.846  24.256  11.693  0.00  0.00    +0.020 A 
ATOM      2  C   UNL     1      12.085  24.194  10.952  0.00  0.00    +0.013 A 
ATOM      3  C   UNL     1      12.688  22.911  10.615  0.00  0.00    +0.019 A 
ATOM     38  C   UNL     1      12.007  21.699  11.045  0.00  0.00    +0.120 A 
ATOM     39  N   UNL     1      10.816  21.790  11.758  0.00  0.00    -0.263 NA
ATOM     40  C   UNL     1      10.227  23.019  12.090  0.00  0.00    +0.111 A 
ENDBRANCH   4   3
ENDBRANCH  10   9
BRANCH  12  13
ATOM     13  N   UNL     1      18.309  25.181   3.678  0.00  0.00    -0.281 N 
ATOM     14  C   UNL     1      19.594  25.597   3.985  0.00  0.00    +0.248 C 
ATOM     30  O   UNL     1      20.285  25.112   4.868  0.00  0.00    -0.270 OA
ATOM     31  H   UNL     1      17.776  25.792   3.059  0.00  0.00    +0.155 HD
BRANCH  14  15
ATOM     15  C   UNL     1      20.192  26.726   3.210  0.00  0.00    +0.037 A 
ATOM     16  C   UNL     1      21.543  26.633   2.650  0.00  0.00    +0.013 A 
ATOM     17  C   UNL     1      22.102  27.743   1.921  0.00  0.00    +0.005 A 
ATOM     18  C   UNL     1      21.309  28.957   1.745  0.00  0.00    -0.033 A 
ATOM     28  C   UNL     1      19.969  29.021   2.306  0.00  0.00    +0.005 A 
ATOM     29  C   UNL     1      19.418  27.935   3.022  0.00  0.00    +0.013 A 
BRANCH  18  19
ATOM     19  C   UNL     1      21.833  30.198   0.999  0.00  0.00    +0.119 C 
BRANCH  19  20
ATOM     20  N   UNL     1      22.747  31.111   1.748  0.00  0.00    -0.302 NA
ATOM     21  C   UNL     1      22.047  31.776   2.937  0.00  0.00    +0.066 C 
ATOM     22  C   UNL     1      23.024  32.710   3.723  0.00  0.00    -0.064 C 
ATOM     23  N   UNL     1      23.594  33.763   2.772  0.00  0.00    +0.379 N 
ATOM     24  C   UNL     1      24.468  34.679   3.520  0.00  0.00    -0.096 C 
ATOM     25  H   UNL     1      22.739  34.360   2.376  0.00  0.00    -0.082 HD
ATOM     26  C   UNL     1      24.290  33.111   1.586  0.00  0.00    -0.064 C 
ATOM     27  C   UNL     1      23.319  32.162   0.829  0.00  0.00    +0.066 C 
ENDBRANCH  19  20
ENDBRANCH  18  19
ENDBRANCH  14  15
ENDBRANCH  12  13
TORSDOF 6
ENDMDL
MODEL 3
REMARK VINA RESULT:      -8.1      5.126     11.045
REMARK  Name = C:\Users\Docking\Desktop\test protocol\1iep_ligandH.pdb
REMARK  8 active torsions:
REMARK  status: ('A' for Active; 'I' for Inactive)
REMARK    1  A    between atoms: _5  and  _11
REMARK    2  A    between atoms: _19  and  _21
REMARK    3  A    between atoms: _22  and  _66
REMARK    4  A    between atoms: _27  and  _30
REMARK    5  A    between atoms: _32  and  _33
REMARK    6  A    between atoms: _38  and  _43
REMARK    7  A    between atoms: _43  and  _46
REMARK    8  A    between atoms: _53  and  _55
REMARK                            x       y       z     vdW  Elec       q    Type
REMARK                         _______ _______ _______ _____ _____    ______ ____
ROOT
ATOM     10  C   UNL     1      12.378  23.299  10.262  0.00  0.00    +0.038 A 
ATOM     11  C   UNL     1      13.396  23.200   9.279  0.00  0.00    +0.047 A 
ATOM     12  C   UNL     1      13.641  24.281   8.337  0.00  0.00    +0.035 A 
ATOM     32  C   UNL     1      12.831  25.451   8.427  0.00  0.00    +0.024 A 
ATOM     33  C   UNL     1      11.791  25.568   9.419  0.00  0.00    +0.007 A 
ATOM     34  C   UNL     1      11.544  24.504  10.348  0.00  0.00    -0.029 A 
ATOM     35  C   UNL     1      10.411  24.681  11.386  0.00  0.00    +0.045 C 
ENDROOT
BRANCH  10   9
ATOM      4  C   UNL     1      10.125  19.282  11.614  0.00  0.00    +0.077 A 
ATOM      5  C   UNL     1       9.237  19.331  10.488  0.00  0.00    +0.048 A 
ATOM      6  C   UNL     1       9.388  20.410   9.588  0.00  0.00    +0.116 A 
ATOM      7  N   UNL     1      10.359  21.364   9.808  0.00  0.00    -0.223 NA
ATOM      8  C   UNL     1      11.198  21.288  10.904  0.00  0.00    +0.220 A 
ATOM      9  N   UNL     1      12.186  22.231  11.140  0.00  0.00    -0.283 N 
ATOM     36  H   UNL     1      12.780  22.143  11.965  0.00  0.00    +0.155 HD
ATOM     37  N   UNL     1      11.073  20.268  11.779  0.00  0.00    -0.214 NA
BRANCH   4   3
ATOM      1  C   UNL     1      10.771  17.211  14.868  0.00  0.00    +0.020 A 
ATOM      2  C   UNL     1      10.838  18.281  13.900  0.00  0.00    +0.013 A 
ATOM      3  C   UNL     1      10.092  18.203  12.650  0.00  0.00    +0.019 A 
ATOM     38  C   UNL     1       9.281  17.019  12.410  0.00  0.00    +0.120 A 
ATOM     39  N   UNL     1       9.237  16.004  13.360  0.00  0.00    -0.263 NA
ATOM     40  C   UNL     1       9.952  16.067  14.565  0.00  0.00    +0.111 A 
ENDBRANCH   4   3
ENDBRANCH  10   9
BRANCH  12  13
ATOM     13  N   UNL     1      14.655  24.234   7.313  0.00  0.00    -0.281 N 
ATOM     14  C   UNL     1      14.594  23.599   6.083  0.00  0.00    +0.248 C 
ATOM     30  O   UNL     1      13.734  22.792   5.764  0.00  0.00    -0.270 OA
ATOM     31  H   UNL     1      15.523  24.729   7.520  0.00  0.00    +0.155 HD
BRANCH  14  15
ATOM     15  C   UNL     1      15.649  23.893   5.067  0.00  0.00    +0.037 A 
ATOM     16  C   UNL     1      15.308  24.114   3.659  0.00  0.00    +0.013 A 
ATOM     17  C   UNL     1      16.347  24.378   2.696  0.00  0.00    +0.005 A 
ATOM     18  C   UNL     1      17.739  24.425   3.138  0.00  0.00    -0.033 A 
ATOM     28  C   UNL     1      18.049  24.208   4.541  0.00  0.00    +0.005 A 
ATOM     29  C   UNL     1      17.033  23.947   5.488  0.00  0.00    +0.013 A 
BRANCH  18  19
ATOM     19  C   UNL     1      18.914  24.680   2.176  0.00  0.00    +0.119 C 
BRANCH  19  20
ATOM     20  N   UNL     1      19.743  25.898   2.417  0.00  0.00    -0.302 NA
ATOM     21  C   UNL     1      18.936  27.187   2.240  0.00  0.00    +0.066 C 
ATOM     22  C   UNL     1      19.813  28.451   2.518  0.00  0.00    -0.064 C 
ATOM     23  N   UNL     1      21.028  28.440   1.588  0.00  0.00    +0.379 N 
ATOM     24  C   UNL     1      21.824  29.657   1.807  0.00  0.00    -0.096 C 
ATOM     25  H   UNL     1      20.651  28.467   0.539  0.00  0.00    -0.082 HD
ATOM     26  C   UNL     1      21.835  27.160   1.756  0.00  0.00    -0.064 C 
ATOM     27  C   UNL     1      20.946  25.910   1.506  0.00  0.00    +0.066 C 
ENDBRANCH  19  20
ENDBRANCH  18  19
ENDBRANCH  14  15
ENDBRANCH  12  13
TORSDOF 6
ENDMDL
MODEL 4
REMARK VINA RESULT:      -7.9      5.589     10.215
REMARK  Name = C:\Users\Docking\Desktop\test protocol\1iep_ligandH.pdb
REMARK  8 active torsions:
REMARK  status: ('A' for Active; 'I' for Inactive)
REMARK    1  A    between atoms: _5  and  _11
REMARK    2  A    between atoms: _19  and  _21
REMARK    3  A    between atoms: _22  and  _66
REMARK    4  A    between atoms: _27  and  _30
REMARK    5  A    between atoms: _32  and  _33
REMARK    6  A    between atoms: _38  and  _43
REMARK    7  A    between atoms: _43  and  _46
REMARK    8  A    between atoms: _53  and  _55
REMARK                            x       y       z     vdW  Elec       q    Type
REMARK                         _______ _______ _______ _____ _____    ______ ____
ROOT
ATOM     10  C   UNL     1      12.955  23.345   8.490  0.00  0.00    +0.038 A 
ATOM     11  C   UNL     1      14.117  23.648   7.734  0.00  0.00    +0.047 A 
ATOM     12  C   UNL     1      15.437  23.242   8.189  0.00  0.00    +0.035 A 
ATOM     32  C   UNL     1      15.538  22.525   9.417  0.00  0.00    +0.024 A 
ATOM     33  C   UNL     1      14.368  22.209  10.198  0.00  0.00    +0.007 A 
ATOM     34  C   UNL     1      13.063  22.609   9.755  0.00  0.00    -0.029 A 
ATOM     35  C   UNL     1      11.844  22.249  10.636  0.00  0.00    +0.045 C 
ENDROOT
BRANCH  10   9
ATOM      4  C   UNL     1       9.515  26.646   7.937  0.00  0.00    +0.077 A 
ATOM      5  C   UNL     1      10.244  27.619   8.699  0.00  0.00    +0.048 A 
ATOM      6  C   UNL     1      11.497  27.227   9.222  0.00  0.00    +0.116 A 
ATOM      7  N   UNL     1      11.975  25.956   8.993  0.00  0.00    -0.223 NA
ATOM      8  C   UNL     1      11.246  25.041   8.255  0.00  0.00    +0.220 A 
ATOM      9  N   UNL     1      11.712  23.759   8.006  0.00  0.00    -0.283 N 
ATOM     36  H   UNL     1      11.141  23.112   7.463  0.00  0.00    +0.155 HD
ATOM     37  N   UNL     1      10.046  25.390   7.746  0.00  0.00    -0.214 NA
BRANCH   4   3
ATOM      1  C   UNL     1       5.746  27.567   7.441  0.00  0.00    +0.020 A 
ATOM      2  C   UNL     1       7.014  27.324   8.089  0.00  0.00    +0.013 A 
ATOM      3  C   UNL     1       8.178  26.910   7.316  0.00  0.00    +0.019 A 
ATOM     38  C   UNL     1       8.024  26.749   5.878  0.00  0.00    +0.120 A 
ATOM     39  N   UNL     1       6.790  26.988   5.282  0.00  0.00    -0.263 NA
ATOM     40  C   UNL     1       5.662  27.386   6.016  0.00  0.00    +0.111 A 
ENDBRANCH   4   3
ENDBRANCH  10   9
BRANCH  12  13
ATOM     13  N   UNL     1      16.653  23.529   7.469  0.00  0.00    -0.281 N 
ATOM     14  C   UNL     1      17.160  22.873   6.359  0.00  0.00    +0.248 C 
ATOM     30  O   UNL     1      16.751  21.799   5.944  0.00  0.00    -0.270 OA
ATOM     31  H   UNL     1      17.207  24.311   7.819  0.00  0.00    +0.155 HD
BRANCH  14  15
ATOM     15  C   UNL     1      18.296  23.493   5.611  0.00  0.00    +0.037 A 
ATOM     16  C   UNL     1      19.652  22.946   5.698  0.00  0.00    +0.013 A 
ATOM     17  C   UNL     1      20.733  23.573   4.979  0.00  0.00    +0.005 A 
ATOM     18  C   UNL     1      20.461  24.755   4.165  0.00  0.00    -0.033 A 
ATOM     28  C   UNL     1      19.105  25.274   4.092  0.00  0.00    +0.005 A 
ATOM     29  C   UNL     1      18.043  24.662   4.796  0.00  0.00    +0.013 A 
BRANCH  18  19
ATOM     19  C   UNL     1      21.557  25.502   3.381  0.00  0.00    +0.119 C 
BRANCH  19  20
ATOM     20  N   UNL     1      21.122  26.320   2.210  0.00  0.00    -0.302 NA
ATOM     21  C   UNL     1      21.600  25.722   0.883  0.00  0.00    +0.066 C 
ATOM     22  C   UNL     1      21.118  26.579  -0.333  0.00  0.00    -0.064 C 
ATOM     23  N   UNL     1      21.621  28.014  -0.173  0.00  0.00    +0.379 N 
ATOM     24  C   UNL     1      21.218  28.808  -1.344  0.00  0.00    -0.096 C 
ATOM     25  H   UNL     1      22.735  27.982  -0.153  0.00  0.00    -0.082 HD
ATOM     26  C   UNL     1      21.153  28.615   1.144  0.00  0.00    -0.064 C 
ATOM     27  C   UNL     1      21.612  27.741   2.345  0.00  0.00    +0.066 C 
ENDBRANCH  19  20
ENDBRANCH  18  19
ENDBRANCH  14  15
ENDBRANCH  12  13
TORSDOF 6
ENDMDL
MODEL 5
REMARK VINA RESULT:      -7.9      3.909     13.033
REMARK  Name = C:\Users\Docking\Desktop\test protocol\1iep_ligandH.pdb
REMARK  8 active torsions:
REMARK  status: ('A' for Active; 'I' for Inactive)
REMARK    1  A    between atoms: _5  and  _11
REMARK    2  A    between atoms: _19  and  _21
REMARK    3  A    between atoms: _22  and  _66
REMARK    4  A    between atoms: _27  and  _30
REMARK    5  A    between atoms: _32  and  _33
REMARK    6  A    between atoms: _38  and  _43
REMARK    7  A    between atoms: _43  and  _46
REMARK    8  A    between atoms: _53  and  _55
REMARK                            x       y       z     vdW  Elec       q    Type
REMARK                         _______ _______ _______ _____ _____    ______ ____
ROOT
ATOM     10  C   UNL     1      20.578  26.389   3.017  0.00  0.00    +0.038 A 
ATOM     11  C   UNL     1      19.191  26.268   3.288  0.00  0.00    +0.047 A 
ATOM     12  C   UNL     1      18.488  25.013   3.068  0.00  0.00    +0.035 A 
ATOM     32  C   UNL     1      19.230  23.901   2.574  0.00  0.00    +0.024 A 
ATOM     33  C   UNL     1      20.640  24.007   2.292  0.00  0.00    +0.007 A 
ATOM     34  C   UNL     1      21.338  25.242   2.505  0.00  0.00    -0.029 A 
ATOM     35  C   UNL     1      22.849  25.300   2.180  0.00  0.00    +0.045 C 
ENDROOT
BRANCH  10   9
ATOM      4  C   UNL     1      22.122  30.691   1.552  0.00  0.00    +0.077 A 
ATOM      5  C   UNL     1      21.671  30.461   0.210  0.00  0.00    +0.048 A 
ATOM      6  C   UNL     1      21.053  29.221  -0.064  0.00  0.00    +0.116 A 
ATOM      7  N   UNL     1      20.902  28.286   0.938  0.00  0.00    -0.223 NA
ATOM      8  C   UNL     1      21.351  28.539   2.221  0.00  0.00    +0.220 A 
ATOM      9  N   UNL     1      21.203  27.617   3.246  0.00  0.00    -0.283 N 
ATOM     36  H   UNL     1      21.553  27.838   4.178  0.00  0.00    +0.155 HD
ATOM     37  N   UNL     1      21.945  29.716   2.508  0.00  0.00    -0.214 NA
BRANCH   4   3
ATOM      1  C   UNL     1      23.864  33.417   3.750  0.00  0.00    +0.020 A 
ATOM      2  C   UNL     1      23.222  32.179   3.372  0.00  0.00    +0.013 A 
ATOM      3  C   UNL     1      22.791  31.954   1.998  0.00  0.00    +0.019 A 
ATOM     38  C   UNL     1      23.028  33.008   1.023  0.00  0.00    +0.120 A 
ATOM     39  N   UNL     1      23.647  34.190   1.417  0.00  0.00    -0.263 NA
ATOM     40  C   UNL     1      24.064  34.419   2.737  0.00  0.00    +0.111 A 
ENDBRANCH   4   3
ENDBRANCH  10   9
BRANCH  12  13
ATOM     13  N   UNL     1      17.080  24.833   3.317  0.00  0.00    -0.281 N 
ATOM     14  C   UNL     1      16.478  23.972   4.220  0.00  0.00    +0.248 C 
ATOM     30  O   UNL     1      17.057  23.067   4.804  0.00  0.00    -0.270 OA
ATOM     31  H   UNL     1      16.450  25.410   2.760  0.00  0.00    +0.155 HD
BRANCH  14  15
ATOM     15  C   UNL     1      15.020  24.129   4.506  0.00  0.00    +0.037 A 
ATOM     16  C   UNL     1      14.168  24.976   3.667  0.00  0.00    +0.013 A 
ATOM     17  C   UNL     1      12.767  25.124   3.975  0.00  0.00    +0.005 A 
ATOM     18  C   UNL     1      12.210  24.422   5.129  0.00  0.00    -0.033 A 
ATOM     28  C   UNL     1      13.076  23.584   5.941  0.00  0.00    +0.005 A 
ATOM     29  C   UNL     1      14.450  23.437   5.643  0.00  0.00    +0.013 A 
BRANCH  18  19
ATOM     19  C   UNL     1      10.731  24.538   5.544  0.00  0.00    +0.119 C 
BRANCH  19  20
ATOM     20  N   UNL     1      10.385  25.583   6.554  0.00  0.00    -0.302 NA
ATOM     21  C   UNL     1       9.911  24.970   7.875  0.00  0.00    +0.066 C 
ATOM     22  C   UNL     1       9.575  26.077   8.927  0.00  0.00    -0.064 C 
ATOM     23  N   UNL     1       8.512  27.016   8.353  0.00  0.00    +0.379 N 
ATOM     24  C   UNL     1       8.152  28.023   9.362  0.00  0.00    -0.096 C 
ATOM     25  H   UNL     1       7.602  26.408   8.142  0.00  0.00    -0.082 HD
ATOM     26  C   UNL     1       8.975  27.628   7.038  0.00  0.00    -0.064 C 
ATOM     27  C   UNL     1       9.335  26.519   6.010  0.00  0.00    +0.066 C 
ENDBRANCH  19  20
ENDBRANCH  18  19
ENDBRANCH  14  15
ENDBRANCH  12  13
TORSDOF 6
ENDMDL
