MODEL 1
REMARK VINA RESULT:      -7.1      0.000      0.000
REMARK  Name = C:\Users\Docking\Desktop\test protocol\1iep_ligandH.pdb
REMARK  8 active torsions:
REMARK  status: ('A' for Active; 'I' for Inactive)
REMARK    1  A    between atoms: _5  and  _11
REMARK    2  A    between atoms: _19  and  _21
REMARK    3  A    between atoms: _22  and  _66
REMARK    4  A    between atoms: _27  and  _30
REMARK    5  A    between atoms: _32  and  _33
REMARK    6  A    between atoms: _38  and  _43
REMARK    7  A    between atoms: _43  and  _46
REMARK    8  A    between atoms: _53  and  _55
REMARK                            x       y       z     vdW  Elec       q    Type
REMARK                         _______ _______ _______ _____ _____    ______ ____
ROOT
ATOM     10  C   UNL     1     -51.555  -5.760 -14.050  0.00  0.00    +0.038 A 
ATOM     11  C   UNL     1     -50.647  -6.584 -13.336  0.00  0.00    +0.047 A 
ATOM     12  C   UNL     1     -49.335  -6.093 -12.942  0.00  0.00    +0.035 A 
ATOM     32  C   UNL     1     -48.983  -4.756 -13.288  0.00  0.00    +0.024 A 
ATOM     33  C   UNL     1     -49.893  -3.905 -14.014  0.00  0.00    +0.007 A 
ATOM     34  C   UNL     1     -51.186  -4.385 -14.408  0.00  0.00    -0.029 A 
ATOM     35  C   UNL     1     -52.119  -3.431 -15.190  0.00  0.00    +0.045 C 
ENDROOT
BRANCH  10   9
ATOM      4  C   UNL     1     -54.465  -8.083 -17.078  0.00  0.00    +0.077 A 
ATOM      5  C   UNL     1     -53.422  -8.244 -18.050  0.00  0.00    +0.048 A 
ATOM      6  C   UNL     1     -52.153  -7.709 -17.735  0.00  0.00    +0.116 A 
ATOM      7  N   UNL     1     -51.953  -7.063 -16.534  0.00  0.00    -0.223 NA
ATOM      8  C   UNL     1     -52.981  -6.923 -15.620  0.00  0.00    +0.220 A 
ATOM      9  N   UNL     1     -52.800  -6.283 -14.403  0.00  0.00    -0.283 N 
ATOM     36  H   UNL     1     -53.586  -6.194 -13.759  0.00  0.00    +0.155 HD
ATOM     37  N   UNL     1     -54.203  -7.424 -15.898  0.00  0.00    -0.214 NA
BRANCH   4   3
ATOM      1  C   UNL     1     -57.646  -9.785 -18.590  0.00  0.00    +0.020 A 
ATOM      2  C   UNL     1     -56.288  -9.309 -18.461  0.00  0.00    +0.013 A 
ATOM      3  C   UNL     1     -55.859  -8.596 -17.264  0.00  0.00    +0.019 A 
ATOM     38  C   UNL     1     -56.837  -8.379 -16.209  0.00  0.00    +0.120 A 
ATOM     39  N   UNL     1     -58.138  -8.847 -16.362  0.00  0.00    -0.263 NA
ATOM     40  C   UNL     1     -58.563  -9.533 -17.510  0.00  0.00    +0.111 A 
ENDBRANCH   4   3
ENDBRANCH  10   9
BRANCH  12  13
ATOM     13  N   UNL     1     -48.369  -6.886 -12.224  0.00  0.00    -0.281 N 
ATOM     14  C   UNL     1     -47.653  -7.979 -12.684  0.00  0.00    +0.248 C 
ATOM     30  O   UNL     1     -47.894  -8.575 -13.723  0.00  0.00    -0.270 OA
ATOM     31  H   UNL     1     -48.191  -6.608 -11.259  0.00  0.00    +0.155 HD
BRANCH  14  15
ATOM     15  C   UNL     1     -46.513  -8.493 -11.865  0.00  0.00    +0.037 A 
ATOM     16  C   UNL     1     -46.497  -8.343 -10.408  0.00  0.00    +0.013 A 
ATOM     17  C   UNL     1     -45.377  -8.833  -9.643  0.00  0.00    +0.005 A 
ATOM     18  C   UNL     1     -44.265  -9.479 -10.335  0.00  0.00    -0.033 A 
ATOM     28  C   UNL     1     -44.309  -9.619 -11.781  0.00  0.00    +0.005 A 
ATOM     29  C   UNL     1     -45.404  -9.139 -12.534  0.00  0.00    +0.013 A 
BRANCH  18  19
ATOM     19  C   UNL     1     -43.020 -10.012  -9.602  0.00  0.00    +0.119 C 
BRANCH  19  20
ATOM     20  N   UNL     1     -42.707 -11.464  -9.752  0.00  0.00    -0.302 NA
ATOM     21  C   UNL     1     -42.018 -11.769 -11.085  0.00  0.00    +0.066 C 
ATOM     22  C   UNL     1     -41.678 -13.289 -11.216  0.00  0.00    -0.064 C 
ATOM     23  N   UNL     1     -42.961 -14.110 -11.070  0.00  0.00    +0.379 N 
ATOM     24  C   UNL     1     -42.654 -15.537 -11.250  0.00  0.00    -0.096 C 
ATOM     25  H   UNL     1     -43.652 -13.806 -11.890  0.00  0.00    -0.082 HD
ATOM     26  C   UNL     1     -43.654 -13.811  -9.748  0.00  0.00    -0.064 C 
ATOM     27  C   UNL     1     -43.961 -12.293  -9.615  0.00  0.00    +0.066 C 
ENDBRANCH  19  20
ENDBRANCH  18  19
ENDBRANCH  14  15
ENDBRANCH  12  13
TORSDOF 6
ENDMDL
MODEL 2
REMARK VINA RESULT:      -7.0      7.349     12.147
REMARK  Name = C:\Users\Docking\Desktop\test protocol\1iep_ligandH.pdb
REMARK  8 active torsions:
REMARK  status: ('A' for Active; 'I' for Inactive)
REMARK    1  A    between atoms: _5  and  _11
REMARK    2  A    between atoms: _19  and  _21
REMARK    3  A    between atoms: _22  and  _66
REMARK    4  A    between atoms: _27  and  _30
REMARK    5  A    between atoms: _32  and  _33
REMARK    6  A    between atoms: _38  and  _43
REMARK    7  A    between atoms: _43  and  _46
REMARK    8  A    between atoms: _53  and  _55
REMARK                            x       y       z     vdW  Elec       q    Type
REMARK                         _______ _______ _______ _____ _____    ______ ____
ROOT
ATOM     10  C   UNL     1     -44.959  -1.776  -7.347  0.00  0.00    +0.038 A 
ATOM     11  C   UNL     1     -45.635  -2.597  -8.285  0.00  0.00    +0.047 A 
ATOM     12  C   UNL     1     -45.595  -4.048  -8.181  0.00  0.00    +0.035 A 
ATOM     32  C   UNL     1     -44.859  -4.628  -7.107  0.00  0.00    +0.024 A 
ATOM     33  C   UNL     1     -44.165  -3.808  -6.146  0.00  0.00    +0.007 A 
ATOM     34  C   UNL     1     -44.199  -2.377  -6.245  0.00  0.00    -0.029 A 
ATOM     35  C   UNL     1     -43.431  -1.547  -5.190  0.00  0.00    +0.045 C 
ENDROOT
BRANCH  10   9
ATOM      4  C   UNL     1     -43.574   2.341  -9.389  0.00  0.00    +0.077 A 
ATOM      5  C   UNL     1     -42.606   1.676 -10.213  0.00  0.00    +0.048 A 
ATOM      6  C   UNL     1     -42.491   0.274 -10.075  0.00  0.00    +0.116 A 
ATOM      7  N   UNL     1     -43.289  -0.401  -9.178  0.00  0.00    -0.223 NA
ATOM      8  C   UNL     1     -44.212   0.271  -8.398  0.00  0.00    +0.220 A 
ATOM      9  N   UNL     1     -45.031  -0.389  -7.495  0.00  0.00    -0.283 N 
ATOM     36  H   UNL     1     -45.694   0.144  -6.932  0.00  0.00    +0.155 HD
ATOM     37  N   UNL     1     -44.340   1.610  -8.509  0.00  0.00    -0.214 NA
BRANCH   4   3
ATOM      1  C   UNL     1     -43.621   6.138  -8.449  0.00  0.00    +0.020 A 
ATOM      2  C   UNL     1     -43.362   4.719  -8.369  0.00  0.00    +0.013 A 
ATOM      3  C   UNL     1     -43.816   3.818  -9.422  0.00  0.00    +0.019 A 
ATOM     38  C   UNL     1     -44.533   4.391 -10.551  0.00  0.00    +0.120 A 
ATOM     39  N   UNL     1     -44.769   5.761 -10.600  0.00  0.00    -0.263 NA
ATOM     40  C   UNL     1     -44.339   6.637  -9.592  0.00  0.00    +0.111 A 
ENDBRANCH   4   3
ENDBRANCH  10   9
BRANCH  12  13
ATOM     13  N   UNL     1     -46.255  -4.933  -9.108  0.00  0.00    -0.281 N 
ATOM     14  C   UNL     1     -47.508  -4.786  -9.681  0.00  0.00    +0.248 C 
ATOM     30  O   UNL     1     -48.343  -3.972  -9.317  0.00  0.00    -0.270 OA
ATOM     31  H   UNL     1     -45.736  -5.770  -9.374  0.00  0.00    +0.155 HD
BRANCH  14  15
ATOM     15  C   UNL     1     -47.893  -5.682 -10.814  0.00  0.00    +0.037 A 
ATOM     16  C   UNL     1     -48.363  -7.049 -10.576  0.00  0.00    +0.013 A 
ATOM     17  C   UNL     1     -48.712  -7.898 -11.687  0.00  0.00    +0.005 A 
ATOM     18  C   UNL     1     -48.594  -7.381 -13.048  0.00  0.00    -0.033 A 
ATOM     28  C   UNL     1     -48.130  -6.019 -13.256  0.00  0.00    +0.005 A 
ATOM     29  C   UNL     1     -47.786  -5.184 -12.169  0.00  0.00    +0.013 A 
BRANCH  18  19
ATOM     19  C   UNL     1     -48.924  -8.223 -14.295  0.00  0.00    +0.119 C 
BRANCH  19  20
ATOM     20  N   UNL     1     -47.994  -9.342 -14.630  0.00  0.00    -0.302 NA
ATOM     21  C   UNL     1     -46.526  -8.935 -14.478  0.00  0.00    +0.066 C 
ATOM     22  C   UNL     1     -45.568 -10.124 -14.811  0.00  0.00    -0.064 C 
ATOM     23  N   UNL     1     -45.848 -10.620 -16.230  0.00  0.00    +0.379 N 
ATOM     24  C   UNL     1     -44.910 -11.701 -16.567  0.00  0.00    -0.096 C 
ATOM     25  H   UNL     1     -45.654  -9.773 -16.929  0.00  0.00    -0.082 HD
ATOM     26  C   UNL     1     -47.307 -11.025 -16.390  0.00  0.00    -0.064 C 
ATOM     27  C   UNL     1     -48.251  -9.845 -16.029  0.00  0.00    +0.066 C 
ENDBRANCH  19  20
ENDBRANCH  18  19
ENDBRANCH  14  15
ENDBRANCH  12  13
TORSDOF 6
ENDMDL
MODEL 3
REMARK VINA RESULT:      -6.9      5.910     13.506
REMARK  Name = C:\Users\Docking\Desktop\test protocol\1iep_ligandH.pdb
REMARK  8 active torsions:
REMARK  status: ('A' for Active; 'I' for Inactive)
REMARK    1  A    between atoms: _5  and  _11
REMARK    2  A    between atoms: _19  and  _21
REMARK    3  A    between atoms: _22  and  _66
REMARK    4  A    between atoms: _27  and  _30
REMARK    5  A    between atoms: _32  and  _33
REMARK    6  A    between atoms: _38  and  _43
REMARK    7  A    between atoms: _43  and  _46
REMARK    8  A    between atoms: _53  and  _55
REMARK                            x       y       z     vdW  Elec       q    Type
REMARK                         _______ _______ _______ _____ _____    ______ ____
ROOT
ATOM     10  C   UNL     1     -49.746  -4.986 -14.373  0.00  0.00    +0.038 A 
ATOM     11  C   UNL     1     -49.978  -3.657 -13.936  0.00  0.00    +0.047 A 
ATOM     12  C   UNL     1     -51.116  -2.892 -14.423  0.00  0.00    +0.035 A 
ATOM     32  C   UNL     1     -51.999  -3.514 -15.354  0.00  0.00    +0.024 A 
ATOM     33  C   UNL     1     -51.777  -4.864 -15.810  0.00  0.00    +0.007 A 
ATOM     34  C   UNL     1     -50.655  -5.622 -15.335  0.00  0.00    -0.029 A 
ATOM     35  C   UNL     1     -50.462  -7.062 -15.863  0.00  0.00    +0.045 C 
ENDROOT
BRANCH  10   9
ATOM      4  C   UNL     1     -47.621  -7.771 -11.092  0.00  0.00    +0.077 A 
ATOM      5  C   UNL     1     -48.811  -7.840 -10.294  0.00  0.00    +0.048 A 
ATOM      6  C   UNL     1     -49.946  -7.139 -10.760  0.00  0.00    +0.116 A 
ATOM      7  N   UNL     1     -49.885  -6.426 -11.937  0.00  0.00    -0.223 NA
ATOM      8  C   UNL     1     -48.721  -6.378 -12.682  0.00  0.00    +0.220 A 
ATOM      9  N   UNL     1     -48.638  -5.674 -13.873  0.00  0.00    -0.283 N 
ATOM     36  H   UNL     1     -47.759  -5.657 -14.389  0.00  0.00    +0.155 HD
ATOM     37  N   UNL     1     -47.623  -7.038 -12.258  0.00  0.00    -0.214 NA
BRANCH   4   3
ATOM      1  C   UNL     1     -44.632  -9.281  -9.071  0.00  0.00    +0.020 A 
ATOM      2  C   UNL     1     -45.876  -8.605  -9.362  0.00  0.00    +0.013 A 
ATOM      3  C   UNL     1     -46.342  -8.461 -10.735  0.00  0.00    +0.019 A 
ATOM     38  C   UNL     1     -45.520  -9.018 -11.799  0.00  0.00    +0.120 A 
ATOM     39  N   UNL     1     -44.326  -9.662 -11.489  0.00  0.00    -0.263 NA
ATOM     40  C   UNL     1     -43.867  -9.805 -10.171  0.00  0.00    +0.111 A 
ENDBRANCH   4   3
ENDBRANCH  10   9
BRANCH  12  13
ATOM     13  N   UNL     1     -51.398  -1.537 -14.021  0.00  0.00    -0.281 N 
ATOM     14  C   UNL     1     -51.426  -0.402 -14.815  0.00  0.00    +0.248 C 
ATOM     30  O   UNL     1     -51.000  -0.347 -15.959  0.00  0.00    -0.270 OA
ATOM     31  H   UNL     1     -51.603  -1.397 -13.032  0.00  0.00    +0.155 HD
BRANCH  14  15
ATOM     15  C   UNL     1     -51.996   0.860 -14.250  0.00  0.00    +0.037 A 
ATOM     16  C   UNL     1     -51.390   2.162 -14.537  0.00  0.00    +0.013 A 
ATOM     17  C   UNL     1     -51.950   3.362 -13.966  0.00  0.00    +0.005 A 
ATOM     18  C   UNL     1     -53.125   3.263 -13.103  0.00  0.00    -0.033 A 
ATOM     28  C   UNL     1     -53.709   1.959 -12.840  0.00  0.00    +0.005 A 
ATOM     29  C   UNL     1     -53.162   0.781 -13.397  0.00  0.00    +0.013 A 
BRANCH  18  19
ATOM     19  C   UNL     1     -53.776   4.488 -12.434  0.00  0.00    +0.119 C 
BRANCH  19  20
ATOM     20  N   UNL     1     -54.878   4.230 -11.460  0.00  0.00    -0.302 NA
ATOM     21  C   UNL     1     -55.907   5.364 -11.443  0.00  0.00    +0.066 C 
ATOM     22  C   UNL     1     -57.065   5.067 -10.435  0.00  0.00    -0.064 C 
ATOM     23  N   UNL     1     -56.478   4.847  -9.040  0.00  0.00    +0.379 N 
ATOM     24  C   UNL     1     -57.569   4.625  -8.079  0.00  0.00    -0.096 C 
ATOM     25  H   UNL     1     -55.951   5.783  -8.743  0.00  0.00    -0.082 HD
ATOM     26  C   UNL     1     -55.452   3.723  -9.048  0.00  0.00    -0.064 C 
ATOM     27  C   UNL     1     -54.322   4.014 -10.075  0.00  0.00    +0.066 C 
ENDBRANCH  19  20
ENDBRANCH  18  19
ENDBRANCH  14  15
ENDBRANCH  12  13
TORSDOF 6
ENDMDL
MODEL 4
REMARK VINA RESULT:      -6.9     13.600     21.704
REMARK  Name = C:\Users\Docking\Desktop\test protocol\1iep_ligandH.pdb
REMARK  8 active torsions:
REMARK  status: ('A' for Active; 'I' for Inactive)
REMARK    1  A    between atoms: _5  and  _11
REMARK    2  A    between atoms: _19  and  _21
REMARK    3  A    between atoms: _22  and  _66
REMARK    4  A    between atoms: _27  and  _30
REMARK    5  A    between atoms: _32  and  _33
REMARK    6  A    between atoms: _38  and  _43
REMARK    7  A    between atoms: _43  and  _46
REMARK    8  A    between atoms: _53  and  _55
REMARK                            x       y       z     vdW  Elec       q    Type
REMARK                         _______ _______ _______ _____ _____    ______ ____
ROOT
ATOM     10  C   UNL     1     -37.971 -23.504 -13.366  0.00  0.00    +0.038 A 
ATOM     11  C   UNL     1     -37.483 -24.328 -12.320  0.00  0.00    +0.047 A 
ATOM     12  C   UNL     1     -36.598 -25.450 -12.595  0.00  0.00    +0.035 A 
ATOM     32  C   UNL     1     -36.228 -25.701 -13.948  0.00  0.00    +0.024 A 
ATOM     33  C   UNL     1     -36.715 -24.874 -15.024  0.00  0.00    +0.007 A 
ATOM     34  C   UNL     1     -37.590 -23.768 -14.759  0.00  0.00    -0.029 A 
ATOM     35  C   UNL     1     -38.086 -22.919 -15.952  0.00  0.00    +0.045 C 
ENDROOT
BRANCH  10   9
ATOM      4  C   UNL     1     -38.738 -18.945 -12.076  0.00  0.00    +0.077 A 
ATOM      5  C   UNL     1     -37.333 -18.665 -12.011  0.00  0.00    +0.048 A 
ATOM      6  C   UNL     1     -36.446 -19.723 -12.309  0.00  0.00    +0.116 A 
ATOM      7  N   UNL     1     -36.938 -20.965 -12.647  0.00  0.00    -0.223 NA
ATOM      8  C   UNL     1     -38.300 -21.202 -12.699  0.00  0.00    +0.220 A 
ATOM      9  N   UNL     1     -38.817 -22.441 -13.045  0.00  0.00    -0.283 N 
ATOM     36  H   UNL     1     -39.828 -22.578 -13.064  0.00  0.00    +0.155 HD
ATOM     37  N   UNL     1     -39.168 -20.208 -12.417  0.00  0.00    -0.214 NA
BRANCH   4   3
ATOM      1  C   UNL     1     -41.075 -16.402 -10.240  0.00  0.00    +0.020 A 
ATOM      2  C   UNL     1     -40.036 -17.381 -10.461  0.00  0.00    +0.013 A 
ATOM      3  C   UNL     1     -39.801 -17.930 -11.791  0.00  0.00    +0.019 A 
ATOM     38  C   UNL     1     -40.641 -17.462 -12.883  0.00  0.00    +0.120 A 
ATOM     39  N   UNL     1     -41.635 -16.520 -12.640  0.00  0.00    -0.263 NA
ATOM     40  C   UNL     1     -41.871 -15.986 -11.364  0.00  0.00    +0.111 A 
ENDBRANCH   4   3
ENDBRANCH  10   9
BRANCH  12  13
ATOM     13  N   UNL     1     -36.079 -26.326 -11.575  0.00  0.00    -0.281 N 
ATOM     14  C   UNL     1     -35.034 -26.086 -10.698  0.00  0.00    +0.248 C 
ATOM     30  O   UNL     1     -34.244 -25.159 -10.800  0.00  0.00    -0.270 OA
ATOM     31  H   UNL     1     -36.537 -27.233 -11.489  0.00  0.00    +0.155 HD
BRANCH  14  15
ATOM     15  C   UNL     1     -34.827 -27.019  -9.548  0.00  0.00    +0.037 A 
ATOM     16  C   UNL     1     -33.575 -27.763  -9.389  0.00  0.00    +0.013 A 
ATOM     17  C   UNL     1     -33.408 -28.669  -8.281  0.00  0.00    +0.005 A 
ATOM     18  C   UNL     1     -34.497 -28.835  -7.321  0.00  0.00    -0.033 A 
ATOM     28  C   UNL     1     -35.727 -28.081  -7.500  0.00  0.00    +0.005 A 
ATOM     29  C   UNL     1     -35.894 -27.192  -8.586  0.00  0.00    +0.013 A 
BRANCH  18  19
ATOM     19  C   UNL     1     -34.415 -29.797  -6.121  0.00  0.00    +0.119 C 
BRANCH  19  20
ATOM     20  N   UNL     1     -33.239 -30.716  -6.060  0.00  0.00    -0.302 NA
ATOM     21  C   UNL     1     -33.449 -31.973  -6.909  0.00  0.00    +0.066 C 
ATOM     22  C   UNL     1     -32.200 -32.912  -6.852  0.00  0.00    -0.064 C 
ATOM     23  N   UNL     1     -31.911 -33.284  -5.397  0.00  0.00    +0.379 N 
ATOM     24  C   UNL     1     -30.774 -34.214  -5.345  0.00  0.00    -0.096 C 
ATOM     25  H   UNL     1     -32.805 -33.820  -5.001  0.00  0.00    -0.082 HD
ATOM     26  C   UNL     1     -31.705 -32.040  -4.545  0.00  0.00    -0.064 C 
ATOM     27  C   UNL     1     -32.939 -31.099  -4.632  0.00  0.00    +0.066 C 
ENDBRANCH  19  20
ENDBRANCH  18  19
ENDBRANCH  14  15
ENDBRANCH  12  13
TORSDOF 6
ENDMDL
MODEL 5
REMARK VINA RESULT:      -6.8      8.890     16.038
REMARK  Name = C:\Users\Docking\Desktop\test protocol\1iep_ligandH.pdb
REMARK  8 active torsions:
REMARK  status: ('A' for Active; 'I' for Inactive)
REMARK    1  A    between atoms: _5  and  _11
REMARK    2  A    between atoms: _19  and  _21
REMARK    3  A    between atoms: _22  and  _66
REMARK    4  A    between atoms: _27  and  _30
REMARK    5  A    between atoms: _32  and  _33
REMARK    6  A    between atoms: _38  and  _43
REMARK    7  A    between atoms: _43  and  _46
REMARK    8  A    between atoms: _53  and  _55
REMARK                            x       y       z     vdW  Elec       q    Type
REMARK                         _______ _______ _______ _____ _____    ______ ____
ROOT
ATOM     10  C   UNL     1     -39.415 -15.010  -6.457  0.00  0.00    +0.038 A 
ATOM     11  C   UNL     1     -39.375 -16.351  -6.917  0.00  0.00    +0.047 A 
ATOM     12  C   UNL     1     -38.374 -17.285  -6.427  0.00  0.00    +0.035 A 
ATOM     32  C   UNL     1     -37.430 -16.820  -5.465  0.00  0.00    +0.024 A 
ATOM     33  C   UNL     1     -37.455 -15.460  -4.988  0.00  0.00    +0.007 A 
ATOM     34  C   UNL     1     -38.438 -14.533  -5.470  0.00  0.00    -0.029 A 
ATOM     35  C   UNL     1     -38.414 -13.085  -4.928  0.00  0.00    +0.045 C 
ENDROOT
BRANCH  10   9
ATOM      4  C   UNL     1     -41.065 -11.938  -9.755  0.00  0.00    +0.077 A 
ATOM      5  C   UNL     1     -39.857 -12.021 -10.524  0.00  0.00    +0.048 A 
ATOM      6  C   UNL     1     -38.832 -12.861 -10.032  0.00  0.00    +0.116 A 
ATOM      7  N   UNL     1     -39.013 -13.560  -8.858  0.00  0.00    -0.223 NA
ATOM      8  C   UNL     1     -40.190 -13.455  -8.141  0.00  0.00    +0.220 A 
ATOM      9  N   UNL     1     -40.397 -14.155  -6.962  0.00  0.00    -0.283 N 
ATOM     36  H   UNL     1     -41.277 -14.045  -6.458  0.00  0.00    +0.155 HD
ATOM     37  N   UNL     1     -41.184 -12.659  -8.588  0.00  0.00    -0.214 NA
BRANCH   4   3
ATOM      1  C   UNL     1     -44.232  -9.647  -9.602  0.00  0.00    +0.020 A 
ATOM      2  C   UNL     1     -43.111 -10.450  -9.172  0.00  0.00    +0.013 A 
ATOM      3  C   UNL     1     -42.240 -11.096 -10.146  0.00  0.00    +0.019 A 
ATOM     38  C   UNL     1     -42.534 -10.908 -11.559  0.00  0.00    +0.120 A 
ATOM     39  N   UNL     1     -43.622 -10.131 -11.943  0.00  0.00    -0.263 NA
ATOM     40  C   UNL     1     -44.468  -9.505 -11.014  0.00  0.00    +0.111 A 
ENDBRANCH   4   3
ENDBRANCH  10   9
BRANCH  12  13
ATOM     13  N   UNL     1     -38.280 -18.656  -6.863  0.00  0.00    -0.281 N 
ATOM     14  C   UNL     1     -39.051 -19.734  -6.458  0.00  0.00    +0.248 C 
ATOM     30  O   UNL     1     -39.803 -19.722  -5.495  0.00  0.00    -0.270 OA
ATOM     31  H   UNL     1     -37.557 -18.857  -7.554  0.00  0.00    +0.155 HD
BRANCH  14  15
ATOM     15  C   UNL     1     -38.963 -21.013  -7.225  0.00  0.00    +0.037 A 
ATOM     16  C   UNL     1     -39.747 -22.188  -6.837  0.00  0.00    +0.013 A 
ATOM     17  C   UNL     1     -39.630 -23.415  -7.584  0.00  0.00    +0.005 A 
ATOM     18  C   UNL     1     -38.726 -23.473  -8.730  0.00  0.00    -0.033 A 
ATOM     28  C   UNL     1     -37.963 -22.291  -9.096  0.00  0.00    +0.005 A 
ATOM     29  C   UNL     1     -38.074 -21.087  -8.366  0.00  0.00    +0.013 A 
BRANCH  18  19
ATOM     19  C   UNL     1     -38.522 -24.746  -9.571  0.00  0.00    +0.119 C 
BRANCH  19  20
ATOM     20  N   UNL     1     -37.143 -25.020 -10.076  0.00  0.00    -0.302 NA
ATOM     21  C   UNL     1     -37.158 -25.803 -11.392  0.00  0.00    +0.066 C 
ATOM     22  C   UNL     1     -35.708 -26.060 -11.917  0.00  0.00    -0.064 C 
ATOM     23  N   UNL     1     -34.908 -26.809 -10.850  0.00  0.00    +0.379 N 
ATOM     24  C   UNL     1     -33.562 -27.104 -11.363  0.00  0.00    -0.096 C 
ATOM     25  H   UNL     1     -35.419 -27.782 -10.664  0.00  0.00    -0.082 HD
ATOM     26  C   UNL     1     -34.890 -26.039  -9.537  0.00  0.00    -0.064 C 
ATOM     27  C   UNL     1     -36.337 -25.762  -9.039  0.00  0.00    +0.066 C 
ENDBRANCH  19  20
ENDBRANCH  18  19
ENDBRANCH  14  15
ENDBRANCH  12  13
TORSDOF 6
ENDMDL
