MODEL 1
REMARK VINA RESULT:      -8.7      0.000      0.000
REMARK  Name = C:\Users\Docking\Desktop\test protocol\1iep_ligandH.pdb
REMARK  8 active torsions:
REMARK  status: ('A' for Active; 'I' for Inactive)
REMARK    1  A    between atoms: _5  and  _11
REMARK    2  A    between atoms: _19  and  _21
REMARK    3  A    between atoms: _22  and  _66
REMARK    4  A    between atoms: _27  and  _30
REMARK    5  A    between atoms: _32  and  _33
REMARK    6  A    between atoms: _38  and  _43
REMARK    7  A    between atoms: _43  and  _46
REMARK    8  A    between atoms: _53  and  _55
REMARK                            x       y       z     vdW  Elec       q    Type
REMARK                         _______ _______ _______ _____ _____    ______ ____
ROOT
ATOM     10  C   UNL     1      19.302 -12.814   4.685  0.00  0.00    +0.038 A 
ATOM     11  C   UNL     1      19.452 -13.829   5.664  0.00  0.00    +0.047 A 
ATOM     12  C   UNL     1      18.724 -15.084   5.565  0.00  0.00    +0.035 A 
ATOM     32  C   UNL     1      17.853 -15.274   4.453  0.00  0.00    +0.024 A 
ATOM     33  C   UNL     1      17.687 -14.253   3.449  0.00  0.00    +0.007 A 
ATOM     34  C   UNL     1      18.401 -13.011   3.543  0.00  0.00    -0.029 A 
ATOM     35  C   UNL     1      18.180 -11.949   2.441  0.00  0.00    +0.045 C 
ENDROOT
BRANCH  10   9
ATOM      4  C   UNL     1      23.397 -10.313   4.561  0.00  0.00    +0.077 A 
ATOM      5  C   UNL     1      24.163 -11.472   4.204  0.00  0.00    +0.048 A 
ATOM      6  C   UNL     1      23.467 -12.694   4.069  0.00  0.00    +0.116 A 
ATOM      7  N   UNL     1      22.105 -12.742   4.278  0.00  0.00    -0.223 NA
ATOM      8  C   UNL     1      21.397 -11.606   4.623  0.00  0.00    +0.220 A 
ATOM      9  N   UNL     1      20.026 -11.629   4.830  0.00  0.00    -0.283 N 
ATOM     36  H   UNL     1      19.541 -10.771   5.090  0.00  0.00    +0.155 HD
ATOM     37  N   UNL     1      22.039 -10.427   4.759  0.00  0.00    -0.214 NA
BRANCH   4   3
ATOM      1  C   UNL     1      24.086  -6.679   5.834  0.00  0.00    +0.020 A 
ATOM      2  C   UNL     1      23.478  -7.983   5.702  0.00  0.00    +0.013 A 
ATOM      3  C   UNL     1      23.988  -8.949   4.738  0.00  0.00    +0.019 A 
ATOM     38  C   UNL     1      25.125  -8.562   3.916  0.00  0.00    +0.120 A 
ATOM     39  N   UNL     1      25.689  -7.299   4.064  0.00  0.00    -0.263 NA
ATOM     40  C   UNL     1      25.205  -6.360   4.987  0.00  0.00    +0.111 A 
ENDBRANCH   4   3
ENDBRANCH  10   9
BRANCH  12  13
ATOM     13  N   UNL     1      18.830 -16.148   6.533  0.00  0.00    -0.281 N 
ATOM     14  C   UNL     1      19.972 -16.817   6.941  0.00  0.00    +0.248 C 
ATOM     30  O   UNL     1      21.053 -16.748   6.376  0.00  0.00    -0.270 OA
ATOM     31  H   UNL     1      17.957 -16.443   6.971  0.00  0.00    +0.155 HD
BRANCH  14  15
ATOM     15  C   UNL     1      19.900 -17.703   8.143  0.00  0.00    +0.037 A 
ATOM     16  C   UNL     1      18.777 -17.622   9.080  0.00  0.00    +0.013 A 
ATOM     17  C   UNL     1      18.740 -18.476  10.241  0.00  0.00    +0.005 A 
ATOM     18  C   UNL     1      19.830 -19.421  10.469  0.00  0.00    -0.033 A 
ATOM     28  C   UNL     1      20.929 -19.485   9.520  0.00  0.00    +0.005 A 
ATOM     29  C   UNL     1      20.969 -18.648   8.382  0.00  0.00    +0.013 A 
BRANCH  18  19
ATOM     19  C   UNL     1      19.884 -20.356  11.692  0.00  0.00    +0.119 C 
BRANCH  19  20
ATOM     20  N   UNL     1      21.225 -20.617  12.295  0.00  0.00    -0.302 NA
ATOM     21  C   UNL     1      21.554 -22.112  12.340  0.00  0.00    +0.066 C 
ATOM     22  C   UNL     1      22.970 -22.365  12.953  0.00  0.00    -0.064 C 
ATOM     23  N   UNL     1      23.032 -21.754  14.354  0.00  0.00    +0.379 N 
ATOM     24  C   UNL     1      24.343 -22.041  14.956  0.00  0.00    -0.096 C 
ATOM     25  H   UNL     1      22.257 -22.257  14.976  0.00  0.00    -0.082 HD
ATOM     26  C   UNL     1      22.704 -20.268  14.319  0.00  0.00    -0.064 C 
ATOM     27  C   UNL     1      21.307 -20.026  13.681  0.00  0.00    +0.066 C 
ENDBRANCH  19  20
ENDBRANCH  18  19
ENDBRANCH  14  15
ENDBRANCH  12  13
TORSDOF 6
ENDMDL
MODEL 2
REMARK VINA RESULT:      -8.6     20.721     22.736
REMARK  Name = C:\Users\Docking\Desktop\test protocol\1iep_ligandH.pdb
REMARK  8 active torsions:
REMARK  status: ('A' for Active; 'I' for Inactive)
REMARK    1  A    between atoms: _5  and  _11
REMARK    2  A    between atoms: _19  and  _21
REMARK    3  A    between atoms: _22  and  _66
REMARK    4  A    between atoms: _27  and  _30
REMARK    5  A    between atoms: _32  and  _33
REMARK    6  A    between atoms: _38  and  _43
REMARK    7  A    between atoms: _43  and  _46
REMARK    8  A    between atoms: _53  and  _55
REMARK                            x       y       z     vdW  Elec       q    Type
REMARK                         _______ _______ _______ _____ _____    ______ ____
ROOT
ATOM     10  C   UNL     1       2.345 -20.388  20.634  0.00  0.00    +0.038 A 
ATOM     11  C   UNL     1       3.607 -21.032  20.711  0.00  0.00    +0.047 A 
ATOM     12  C   UNL     1       3.746 -22.346  21.320  0.00  0.00    +0.035 A 
ATOM     32  C   UNL     1       2.577 -22.977  21.838  0.00  0.00    +0.024 A 
ATOM     33  C   UNL     1       1.287 -22.337  21.769  0.00  0.00    +0.007 A 
ATOM     34  C   UNL     1       1.145 -21.040  21.172  0.00  0.00    -0.029 A 
ATOM     35  C   UNL     1      -0.262 -20.398  21.131  0.00  0.00    +0.045 C 
ENDROOT
BRANCH  10   9
ATOM      4  C   UNL     1       1.295 -17.506  16.943  0.00  0.00    +0.077 A 
ATOM      5  C   UNL     1       0.887 -18.609  16.121  0.00  0.00    +0.048 A 
ATOM      6  C   UNL     1       0.970 -19.902  16.683  0.00  0.00    +0.116 A 
ATOM      7  N   UNL     1       1.427 -20.069  17.972  0.00  0.00    -0.223 NA
ATOM      8  C   UNL     1       1.814 -18.984  18.737  0.00  0.00    +0.220 A 
ATOM      9  N   UNL     1       2.270 -19.127  20.039  0.00  0.00    -0.283 N 
ATOM     36  H   UNL     1       2.553 -18.302  20.567  0.00  0.00    +0.155 HD
ATOM     37  N   UNL     1       1.746 -17.738  18.223  0.00  0.00    -0.214 NA
BRANCH   4   3
ATOM      1  C   UNL     1       0.986 -13.607  16.912  0.00  0.00    +0.020 A 
ATOM      2  C   UNL     1       1.006 -14.967  17.398  0.00  0.00    +0.013 A 
ATOM      3  C   UNL     1       1.262 -16.079  16.492  0.00  0.00    +0.019 A 
ATOM     38  C   UNL     1       1.497 -15.777  15.087  0.00  0.00    +0.120 A 
ATOM     39  N   UNL     1       1.470 -14.458  14.647  0.00  0.00    -0.263 NA
ATOM     40  C   UNL     1       1.223 -13.380  15.510  0.00  0.00    +0.111 A 
ENDBRANCH   4   3
ENDBRANCH  10   9
BRANCH  12  13
ATOM     13  N   UNL     1       5.002 -23.044  21.433  0.00  0.00    -0.281 N 
ATOM     14  C   UNL     1       5.830 -23.132  22.540  0.00  0.00    +0.248 C 
ATOM     30  O   UNL     1       5.720 -22.442  23.543  0.00  0.00    -0.270 OA
ATOM     31  H   UNL     1       5.319 -23.533  20.596  0.00  0.00    +0.155 HD
BRANCH  14  15
ATOM     15  C   UNL     1       6.952 -24.120  22.526  0.00  0.00    +0.037 A 
ATOM     16  C   UNL     1       7.269 -24.926  23.707  0.00  0.00    +0.013 A 
ATOM     17  C   UNL     1       8.368 -25.860  23.672  0.00  0.00    +0.005 A 
ATOM     18  C   UNL     1       9.156 -25.992  22.449  0.00  0.00    -0.033 A 
ATOM     28  C   UNL     1       8.816 -25.183  21.290  0.00  0.00    +0.005 A 
ATOM     29  C   UNL     1       7.741 -24.267  21.321  0.00  0.00    +0.013 A 
BRANCH  18  19
ATOM     19  C   UNL     1      10.358 -26.947  22.328  0.00  0.00    +0.119 C 
BRANCH  19  20
ATOM     20  N   UNL     1      10.182 -28.165  21.482  0.00  0.00    -0.302 NA
ATOM     21  C   UNL     1      10.456 -29.452  22.264  0.00  0.00    +0.066 C 
ATOM     22  C   UNL     1      10.245 -30.717  21.369  0.00  0.00    -0.064 C 
ATOM     23  N   UNL     1      11.152 -30.626  20.141  0.00  0.00    +0.379 N 
ATOM     24  C   UNL     1      10.998 -31.841  19.327  0.00  0.00    -0.096 C 
ATOM     25  H   UNL     1      12.206 -30.591  20.501  0.00  0.00    -0.082 HD
ATOM     26  C   UNL     1      10.888 -29.347  19.359  0.00  0.00    -0.064 C 
ATOM     27  C   UNL     1      11.071 -28.098  20.265  0.00  0.00    +0.066 C 
ENDBRANCH  19  20
ENDBRANCH  18  19
ENDBRANCH  14  15
ENDBRANCH  12  13
TORSDOF 6
ENDMDL
MODEL 3
REMARK VINA RESULT:      -8.4      2.765      3.530
REMARK  Name = C:\Users\Docking\Desktop\test protocol\1iep_ligandH.pdb
REMARK  8 active torsions:
REMARK  status: ('A' for Active; 'I' for Inactive)
REMARK    1  A    between atoms: _5  and  _11
REMARK    2  A    between atoms: _19  and  _21
REMARK    3  A    between atoms: _22  and  _66
REMARK    4  A    between atoms: _27  and  _30
REMARK    5  A    between atoms: _32  and  _33
REMARK    6  A    between atoms: _38  and  _43
REMARK    7  A    between atoms: _43  and  _46
REMARK    8  A    between atoms: _53  and  _55
REMARK                            x       y       z     vdW  Elec       q    Type
REMARK                         _______ _______ _______ _____ _____    ______ ____
ROOT
ATOM     10  C   UNL     1      19.726 -11.921   4.200  0.00  0.00    +0.038 A 
ATOM     11  C   UNL     1      19.580 -12.997   5.112  0.00  0.00    +0.047 A 
ATOM     12  C   UNL     1      18.913 -14.229   4.722  0.00  0.00    +0.035 A 
ATOM     32  C   UNL     1      18.408 -14.333   3.394  0.00  0.00    +0.024 A 
ATOM     33  C   UNL     1      18.546 -13.248   2.453  0.00  0.00    +0.007 A 
ATOM     34  C   UNL     1      19.201 -12.030   2.833  0.00  0.00    -0.029 A 
ATOM     35  C   UNL     1      19.316 -10.898   1.785  0.00  0.00    +0.045 C 
ENDROOT
BRANCH  10   9
ATOM      4  C   UNL     1      23.697  -9.364   5.054  0.00  0.00    +0.077 A 
ATOM      5  C   UNL     1      24.550 -10.440   4.639  0.00  0.00    +0.048 A 
ATOM      6  C   UNL     1      23.928 -11.637   4.220  0.00  0.00    +0.116 A 
ATOM      7  N   UNL     1      22.554 -11.739   4.219  0.00  0.00    -0.223 NA
ATOM      8  C   UNL     1      21.760 -10.683   4.627  0.00  0.00    +0.220 A 
ATOM      9  N   UNL     1      20.376 -10.761   4.627  0.00  0.00    -0.283 N 
ATOM     36  H   UNL     1      19.826  -9.962   4.942  0.00  0.00    +0.155 HD
ATOM     37  N   UNL     1      22.330  -9.530   5.034  0.00  0.00    -0.214 NA
BRANCH   4   3
ATOM      1  C   UNL     1      23.865  -5.665   6.315  0.00  0.00    +0.020 A 
ATOM      2  C   UNL     1      23.323  -6.928   5.869  0.00  0.00    +0.013 A 
ATOM      3  C   UNL     1      24.205  -8.035   5.521  0.00  0.00    +0.019 A 
ATOM     38  C   UNL     1      25.641  -7.830   5.638  0.00  0.00    +0.120 A 
ATOM     39  N   UNL     1      26.133  -6.603   6.069  0.00  0.00    -0.263 NA
ATOM     40  C   UNL     1      25.295  -5.529   6.405  0.00  0.00    +0.111 A 
ENDBRANCH   4   3
ENDBRANCH  10   9
BRANCH  12  13
ATOM     13  N   UNL     1      18.728 -15.352   5.608  0.00  0.00    -0.281 N 
ATOM     14  C   UNL     1      19.701 -16.086   6.267  0.00  0.00    +0.248 C 
ATOM     30  O   UNL     1      20.897 -16.022   6.026  0.00  0.00    -0.270 OA
ATOM     31  H   UNL     1      17.763 -15.641   5.769  0.00  0.00    +0.155 HD
BRANCH  14  15
ATOM     15  C   UNL     1      19.283 -17.039   7.340  0.00  0.00    +0.037 A 
ATOM     16  C   UNL     1      17.874 -17.386   7.542  0.00  0.00    +0.013 A 
ATOM     17  C   UNL     1      17.497 -18.295   8.595  0.00  0.00    +0.005 A 
ATOM     18  C   UNL     1      18.532 -18.865   9.454  0.00  0.00    -0.033 A 
ATOM     28  C   UNL     1      19.923 -18.508   9.228  0.00  0.00    +0.005 A 
ATOM     29  C   UNL     1      20.296 -17.616   8.198  0.00  0.00    +0.013 A 
BRANCH  18  19
ATOM     19  C   UNL     1      18.219 -19.827  10.615  0.00  0.00    +0.119 C 
BRANCH  19  20
ATOM     20  N   UNL     1      16.918 -19.641  11.325  0.00  0.00    -0.302 NA
ATOM     21  C   UNL     1      17.111 -19.110  12.748  0.00  0.00    +0.066 C 
ATOM     22  C   UNL     1      15.739 -18.900  13.468  0.00  0.00    -0.064 C 
ATOM     23  N   UNL     1      14.967 -20.220  13.483  0.00  0.00    +0.379 N 
ATOM     24  C   UNL     1      13.702 -20.041  14.211  0.00  0.00    -0.096 C 
ATOM     25  H   UNL     1      15.579 -20.963  14.047  0.00  0.00    -0.082 HD
ATOM     26  C   UNL     1      14.773 -20.757  12.072  0.00  0.00    -0.064 C 
ATOM     27  C   UNL     1      16.141 -20.934  11.355  0.00  0.00    +0.066 C 
ENDBRANCH  19  20
ENDBRANCH  18  19
ENDBRANCH  14  15
ENDBRANCH  12  13
TORSDOF 6
ENDMDL
MODEL 4
REMARK VINA RESULT:      -8.2      8.154     10.714
REMARK  Name = C:\Users\Docking\Desktop\test protocol\1iep_ligandH.pdb
REMARK  8 active torsions:
REMARK  status: ('A' for Active; 'I' for Inactive)
REMARK    1  A    between atoms: _5  and  _11
REMARK    2  A    between atoms: _19  and  _21
REMARK    3  A    between atoms: _22  and  _66
REMARK    4  A    between atoms: _27  and  _30
REMARK    5  A    between atoms: _32  and  _33
REMARK    6  A    between atoms: _38  and  _43
REMARK    7  A    between atoms: _43  and  _46
REMARK    8  A    between atoms: _53  and  _55
REMARK                            x       y       z     vdW  Elec       q    Type
REMARK                         _______ _______ _______ _____ _____    ______ ____
ROOT
ATOM     10  C   UNL     1      24.379 -20.023  13.953  0.00  0.00    +0.038 A 
ATOM     11  C   UNL     1      23.064 -19.518  13.795  0.00  0.00    +0.047 A 
ATOM     12  C   UNL     1      21.938 -20.410  13.565  0.00  0.00    +0.035 A 
ATOM     32  C   UNL     1      22.188 -21.812  13.504  0.00  0.00    +0.024 A 
ATOM     33  C   UNL     1      23.519 -22.342  13.661  0.00  0.00    +0.007 A 
ATOM     34  C   UNL     1      24.634 -21.467  13.886  0.00  0.00    -0.029 A 
ATOM     35  C   UNL     1      26.041 -22.091  14.041  0.00  0.00    +0.045 C 
ENDROOT
BRANCH  10   9
ATOM      4  C   UNL     1      27.866 -17.123  12.381  0.00  0.00    +0.077 A 
ATOM      5  C   UNL     1      27.604 -17.452  11.010  0.00  0.00    +0.048 A 
ATOM      6  C   UNL     1      26.568 -18.378  10.752  0.00  0.00    +0.116 A 
ATOM      7  N   UNL     1      25.854 -18.926  11.796  0.00  0.00    -0.223 NA
ATOM      8  C   UNL     1      26.134 -18.588  13.107  0.00  0.00    +0.220 A 
ATOM      9  N   UNL     1      25.423 -19.121  14.171  0.00  0.00    -0.283 N 
ATOM     36  H   UNL     1      25.665 -18.852  15.125  0.00  0.00    +0.155 HD
ATOM     37  N   UNL     1      27.119 -17.708  13.380  0.00  0.00    -0.214 NA
BRANCH   4   3
ATOM      1  C   UNL     1      31.323 -15.544  13.310  0.00  0.00    +0.020 A 
ATOM      2  C   UNL     1      30.339 -16.513  12.885  0.00  0.00    +0.013 A 
ATOM      3  C   UNL     1      28.927 -16.159  12.815  0.00  0.00    +0.019 A 
ATOM     38  C   UNL     1      28.541 -14.805  13.182  0.00  0.00    +0.120 A 
ATOM     39  N   UNL     1      29.510 -13.893  13.589  0.00  0.00    -0.263 NA
ATOM     40  C   UNL     1      30.872 -14.224  13.662  0.00  0.00    +0.111 A 
ENDBRANCH   4   3
ENDBRANCH  10   9
BRANCH  12  13
ATOM     13  N   UNL     1      20.581 -19.954  13.390  0.00  0.00    -0.281 N 
ATOM     14  C   UNL     1      19.883 -19.793  12.204  0.00  0.00    +0.248 C 
ATOM     30  O   UNL     1      20.394 -19.813  11.093  0.00  0.00    -0.270 OA
ATOM     31  H   UNL     1      20.073 -19.723  14.243  0.00  0.00    +0.155 HD
BRANCH  14  15
ATOM     15  C   UNL     1      18.408 -19.562  12.259  0.00  0.00    +0.037 A 
ATOM     16  C   UNL     1      17.788 -18.878  13.397  0.00  0.00    +0.013 A 
ATOM     17  C   UNL     1      16.361 -18.683  13.434  0.00  0.00    +0.005 A 
ATOM     18  C   UNL     1      15.542 -19.172  12.327  0.00  0.00    -0.033 A 
ATOM     28  C   UNL     1      16.184 -19.842  11.208  0.00  0.00    +0.005 A 
ATOM     29  C   UNL     1      17.583 -20.036  11.169  0.00  0.00    +0.013 A 
BRANCH  18  19
ATOM     19  C   UNL     1      14.009 -19.026  12.292  0.00  0.00    +0.119 C 
BRANCH  19  20
ATOM     20  N   UNL     1      13.213 -20.254  11.997  0.00  0.00    -0.302 NA
ATOM     21  C   UNL     1      11.888 -19.926  11.301  0.00  0.00    +0.066 C 
ATOM     22  C   UNL     1      11.078 -21.223  10.979  0.00  0.00    -0.064 C 
ATOM     23  N   UNL     1      10.832 -22.002  12.273  0.00  0.00    +0.379 N 
ATOM     24  C   UNL     1      10.020 -23.193  11.981  0.00  0.00    -0.096 C 
ATOM     25  H   UNL     1      10.240 -21.348  12.954  0.00  0.00    -0.082 HD
ATOM     26  C   UNL     1      12.144 -22.330  12.972  0.00  0.00    -0.064 C 
ATOM     27  C   UNL     1      12.955 -21.036  13.261  0.00  0.00    +0.066 C 
ENDBRANCH  19  20
ENDBRANCH  18  19
ENDBRANCH  14  15
ENDBRANCH  12  13
TORSDOF 6
ENDMDL
MODEL 5
REMARK VINA RESULT:      -8.2     29.092     31.134
REMARK  Name = C:\Users\Docking\Desktop\test protocol\1iep_ligandH.pdb
REMARK  8 active torsions:
REMARK  status: ('A' for Active; 'I' for Inactive)
REMARK    1  A    between atoms: _5  and  _11
REMARK    2  A    between atoms: _19  and  _21
REMARK    3  A    between atoms: _22  and  _66
REMARK    4  A    between atoms: _27  and  _30
REMARK    5  A    between atoms: _32  and  _33
REMARK    6  A    between atoms: _38  and  _43
REMARK    7  A    between atoms: _43  and  _46
REMARK    8  A    between atoms: _53  and  _55
REMARK                            x       y       z     vdW  Elec       q    Type
REMARK                         _______ _______ _______ _____ _____    ______ ____
ROOT
ATOM     10  C   UNL     1      15.923   6.770  30.837  0.00  0.00    +0.038 A 
ATOM     11  C   UNL     1      15.324   5.557  31.261  0.00  0.00    +0.047 A 
ATOM     12  C   UNL     1      15.392   5.129  32.650  0.00  0.00    +0.035 A 
ATOM     32  C   UNL     1      16.076   5.964  33.581  0.00  0.00    +0.024 A 
ATOM     33  C   UNL     1      16.691   7.201  33.167  0.00  0.00    +0.007 A 
ATOM     34  C   UNL     1      16.630   7.626  31.798  0.00  0.00    -0.029 A 
ATOM     35  C   UNL     1      17.313   8.958  31.409  0.00  0.00    +0.045 C 
ENDROOT
BRANCH  10   9
ATOM      4  C   UNL     1      16.611   5.914  26.165  0.00  0.00    +0.077 A 
ATOM      5  C   UNL     1      17.239   4.651  26.428  0.00  0.00    +0.048 A 
ATOM      6  C   UNL     1      17.372   4.262  27.780  0.00  0.00    +0.116 A 
ATOM      7  N   UNL     1      16.908   5.082  28.785  0.00  0.00    -0.223 NA
ATOM      8  C   UNL     1      16.309   6.295  28.497  0.00  0.00    +0.220 A 
ATOM      9  N   UNL     1      15.827   7.132  29.492  0.00  0.00    -0.283 N 
ATOM     36  H   UNL     1      15.399   8.022  29.238  0.00  0.00    +0.155 HD
ATOM     37  N   UNL     1      16.171   6.690  27.214  0.00  0.00    -0.214 NA
BRANCH   4   3
ATOM      1  C   UNL     1      15.422   6.350  22.464  0.00  0.00    +0.020 A 
ATOM      2  C   UNL     1      15.600   5.777  23.778  0.00  0.00    +0.013 A 
ATOM      3  C   UNL     1      16.396   6.463  24.788  0.00  0.00    +0.019 A 
ATOM     38  C   UNL     1      17.002   7.737  24.434  0.00  0.00    +0.120 A 
ATOM     39  N   UNL     1      16.815   8.264  23.160  0.00  0.00    -0.263 NA
ATOM     40  C   UNL     1      16.052   7.612  22.179  0.00  0.00    +0.111 A 
ENDBRANCH   4   3
ENDBRANCH  10   9
BRANCH  12  13
ATOM     13  N   UNL     1      14.810   3.904  33.138  0.00  0.00    -0.281 N 
ATOM     14  C   UNL     1      13.503   3.682  33.539  0.00  0.00    +0.248 C 
ATOM     30  O   UNL     1      12.683   4.566  33.743  0.00  0.00    -0.270 OA
ATOM     31  H   UNL     1      15.438   3.102  33.194  0.00  0.00    +0.155 HD
BRANCH  14  15
ATOM     15  C   UNL     1      13.044   2.277  33.761  0.00  0.00    +0.037 A 
ATOM     16  C   UNL     1      11.622   1.927  33.718  0.00  0.00    +0.013 A 
ATOM     17  C   UNL     1      11.205   0.567  33.952  0.00  0.00    +0.005 A 
ATOM     18  C   UNL     1      12.213  -0.454  34.230  0.00  0.00    -0.033 A 
ATOM     28  C   UNL     1      13.617  -0.079  34.261  0.00  0.00    +0.005 A 
ATOM     29  C   UNL     1      14.029   1.253  34.033  0.00  0.00    +0.013 A 
BRANCH  18  19
ATOM     19  C   UNL     1      11.857  -1.925  34.512  0.00  0.00    +0.119 C 
BRANCH  19  20
ATOM     20  N   UNL     1      10.407  -2.276  34.587  0.00  0.00    -0.302 NA
ATOM     21  C   UNL     1      10.023  -2.843  35.956  0.00  0.00    +0.066 C 
ATOM     22  C   UNL     1       8.499  -3.184  36.024  0.00  0.00    -0.064 C 
ATOM     23  N   UNL     1       8.150  -4.174  34.911  0.00  0.00    +0.379 N 
ATOM     24  C   UNL     1       6.730  -4.540  35.008  0.00  0.00    -0.096 C 
ATOM     25  H   UNL     1       8.751  -5.097  35.080  0.00  0.00    -0.082 HD
ATOM     26  C   UNL     1       8.531  -3.619  33.546  0.00  0.00    -0.064 C 
ATOM     27  C   UNL     1      10.042  -3.256  33.499  0.00  0.00    +0.066 C 
ENDBRANCH  19  20
ENDBRANCH  18  19
ENDBRANCH  14  15
ENDBRANCH  12  13
TORSDOF 6
ENDMDL
