MODEL 1
REMARK VINA RESULT:      -7.6      0.000      0.000
REMARK  Name = C:\Users\Docking\Desktop\test protocol\1iep_ligandH.pdb
REMARK  8 active torsions:
REMARK  status: ('A' for Active; 'I' for Inactive)
REMARK    1  A    between atoms: _5  and  _11
REMARK    2  A    between atoms: _19  and  _21
REMARK    3  A    between atoms: _22  and  _66
REMARK    4  A    between atoms: _27  and  _30
REMARK    5  A    between atoms: _32  and  _33
REMARK    6  A    between atoms: _38  and  _43
REMARK    7  A    between atoms: _43  and  _46
REMARK    8  A    between atoms: _53  and  _55
REMARK                            x       y       z     vdW  Elec       q    Type
REMARK                         _______ _______ _______ _____ _____    ______ ____
ROOT
ATOM     10  C   UNL     1      26.706 -24.535  15.357  0.00  0.00    +0.038 A 
ATOM     11  C   UNL     1      25.609 -23.831  14.797  0.00  0.00    +0.047 A 
ATOM     12  C   UNL     1      25.804 -22.577  14.086  0.00  0.00    +0.035 A 
ATOM     32  C   UNL     1      27.130 -22.070  13.961  0.00  0.00    +0.024 A 
ATOM     33  C   UNL     1      28.256 -22.772  14.525  0.00  0.00    +0.007 A 
ATOM     34  C   UNL     1      28.070 -24.008  15.230  0.00  0.00    -0.029 A 
ATOM     35  C   UNL     1      29.313 -24.714  15.820  0.00  0.00    +0.045 C 
ENDROOT
BRANCH  10   9
ATOM      4  C   UNL     1      26.367 -29.320  15.488  0.00  0.00    +0.077 A 
ATOM      5  C   UNL     1      26.677 -29.440  14.093  0.00  0.00    +0.048 A 
ATOM      6  C   UNL     1      26.910 -28.245  13.376  0.00  0.00    +0.116 A 
ATOM      7  N   UNL     1      26.836 -27.027  14.016  0.00  0.00    -0.223 NA
ATOM      8  C   UNL     1      26.533 -26.947  15.363  0.00  0.00    +0.220 A 
ATOM      9  N   UNL     1      26.461 -25.734  16.030  0.00  0.00    -0.283 N 
ATOM     36  H   UNL     1      26.227 -25.717  17.022  0.00  0.00    +0.155 HD
ATOM     37  N   UNL     1      26.304 -28.074  16.070  0.00  0.00    -0.214 NA
BRANCH   4   3
ATOM      1  C   UNL     1      24.744 -32.498  17.092  0.00  0.00    +0.020 A 
ATOM      2  C   UNL     1      24.958 -31.381  16.201  0.00  0.00    +0.013 A 
ATOM      3  C   UNL     1      26.098 -30.491  16.382  0.00  0.00    +0.019 A 
ATOM     38  C   UNL     1      27.011 -30.763  17.482  0.00  0.00    +0.120 A 
ATOM     39  N   UNL     1      26.780 -31.846  18.324  0.00  0.00    -0.263 NA
ATOM     40  C   UNL     1      25.685 -32.707  18.161  0.00  0.00    +0.111 A 
ENDBRANCH   4   3
ENDBRANCH  10   9
BRANCH  12  13
ATOM     13  N   UNL     1      24.728 -21.814  13.503  0.00  0.00    -0.281 N 
ATOM     14  C   UNL     1      23.918 -22.162  12.435  0.00  0.00    +0.248 C 
ATOM     30  O   UNL     1      24.137 -23.096  11.677  0.00  0.00    -0.270 OA
ATOM     31  H   UNL     1      24.541 -20.906  13.930  0.00  0.00    +0.155 HD
BRANCH  14  15
ATOM     15  C   UNL     1      22.697 -21.346  12.159  0.00  0.00    +0.037 A 
ATOM     16  C   UNL     1      22.210 -20.356  13.123  0.00  0.00    +0.013 A 
ATOM     17  C   UNL     1      21.019 -19.595  12.839  0.00  0.00    +0.005 A 
ATOM     18  C   UNL     1      20.308 -19.820  11.583  0.00  0.00    -0.033 A 
ATOM     28  C   UNL     1      20.816 -20.805  10.642  0.00  0.00    +0.005 A 
ATOM     29  C   UNL     1      21.982 -21.553  10.917  0.00  0.00    +0.013 A 
BRANCH  18  19
ATOM     19  C   UNL     1      19.017 -19.068  11.207  0.00  0.00    +0.119 C 
BRANCH  19  20
ATOM     20  N   UNL     1      17.728 -19.809  11.348  0.00  0.00    -0.302 NA
ATOM     21  C   UNL     1      16.906 -19.782  10.057  0.00  0.00    +0.066 C 
ATOM     22  C   UNL     1      15.571 -20.581  10.216  0.00  0.00    -0.064 C 
ATOM     23  N   UNL     1      14.768 -20.001  11.381  0.00  0.00    +0.379 N 
ATOM     24  C   UNL     1      13.487 -20.712  11.497  0.00  0.00    -0.096 C 
ATOM     25  H   UNL     1      14.544 -18.936  11.141  0.00  0.00    -0.082 HD
ATOM     26  C   UNL     1      15.580 -20.021  12.669  0.00  0.00    -0.064 C 
ATOM     27  C   UNL     1      16.918 -19.250  12.491  0.00  0.00    +0.066 C 
ENDBRANCH  19  20
ENDBRANCH  18  19
ENDBRANCH  14  15
ENDBRANCH  12  13
TORSDOF 6
ENDMDL
MODEL 2
REMARK VINA RESULT:      -7.6     15.406     20.088
REMARK  Name = C:\Users\Docking\Desktop\test protocol\1iep_ligandH.pdb
REMARK  8 active torsions:
REMARK  status: ('A' for Active; 'I' for Inactive)
REMARK    1  A    between atoms: _5  and  _11
REMARK    2  A    between atoms: _19  and  _21
REMARK    3  A    between atoms: _22  and  _66
REMARK    4  A    between atoms: _27  and  _30
REMARK    5  A    between atoms: _32  and  _33
REMARK    6  A    between atoms: _38  and  _43
REMARK    7  A    between atoms: _43  and  _46
REMARK    8  A    between atoms: _53  and  _55
REMARK                            x       y       z     vdW  Elec       q    Type
REMARK                         _______ _______ _______ _____ _____    ______ ____
ROOT
ATOM     10  C   UNL     1       5.009 -22.541  21.691  0.00  0.00    +0.038 A 
ATOM     11  C   UNL     1       4.781 -21.531  20.721  0.00  0.00    +0.047 A 
ATOM     12  C   UNL     1       3.540 -20.772  20.702  0.00  0.00    +0.035 A 
ATOM     32  C   UNL     1       2.554 -21.066  21.688  0.00  0.00    +0.024 A 
ATOM     33  C   UNL     1       2.768 -22.089  22.680  0.00  0.00    +0.007 A 
ATOM     34  C   UNL     1       3.989 -22.843  22.702  0.00  0.00    -0.029 A 
ATOM     35  C   UNL     1       4.162 -23.933  23.785  0.00  0.00    +0.045 C 
ENDROOT
BRANCH  10   9
ATOM      4  C   UNL     1       7.894 -25.939  19.912  0.00  0.00    +0.077 A 
ATOM      5  C   UNL     1       6.898 -26.379  18.978  0.00  0.00    +0.048 A 
ATOM      6  C   UNL     1       5.654 -25.709  18.992  0.00  0.00    +0.116 A 
ATOM      7  N   UNL     1       5.434 -24.677  19.879  0.00  0.00    -0.223 NA
ATOM      8  C   UNL     1       6.415 -24.279  20.768  0.00  0.00    +0.220 A 
ATOM      9  N   UNL     1       6.218 -23.239  21.663  0.00  0.00    -0.283 N 
ATOM     36  H   UNL     1       6.965 -22.980  22.307  0.00  0.00    +0.155 HD
ATOM     37  N   UNL     1       7.611 -24.904  20.775  0.00  0.00    -0.214 NA
BRANCH   4   3
ATOM      1  C   UNL     1      11.639 -26.564  20.852  0.00  0.00    +0.020 A 
ATOM      2  C   UNL     1      10.339 -25.938  20.783  0.00  0.00    +0.013 A 
ATOM      3  C   UNL     1       9.259 -26.545  20.016  0.00  0.00    +0.019 A 
ATOM     38  C   UNL     1       9.529 -27.797  19.326  0.00  0.00    +0.120 A 
ATOM     39  N   UNL     1      10.791 -28.377  19.409  0.00  0.00    -0.263 NA
ATOM     40  C   UNL     1      11.839 -27.800  20.142  0.00  0.00    +0.111 A 
ENDBRANCH   4   3
ENDBRANCH  10   9
BRANCH  12  13
ATOM     13  N   UNL     1       3.250 -19.741  19.737  0.00  0.00    -0.281 N 
ATOM     14  C   UNL     1       2.712 -19.888  18.469  0.00  0.00    +0.248 C 
ATOM     30  O   UNL     1       2.596 -20.957  17.887  0.00  0.00    -0.270 OA
ATOM     31  H   UNL     1       3.467 -18.786  20.023  0.00  0.00    +0.155 HD
BRANCH  14  15
ATOM     15  C   UNL     1       2.248 -18.672  17.735  0.00  0.00    +0.037 A 
ATOM     16  C   UNL     1       1.044 -18.700  16.901  0.00  0.00    +0.013 A 
ATOM     17  C   UNL     1       0.629 -17.517  16.190  0.00  0.00    +0.005 A 
ATOM     18  C   UNL     1       1.418 -16.294  16.312  0.00  0.00    -0.033 A 
ATOM     28  C   UNL     1       2.606 -16.292  17.151  0.00  0.00    +0.005 A 
ATOM     29  C   UNL     1       3.016 -17.450  17.848  0.00  0.00    +0.013 A 
BRANCH  18  19
ATOM     19  C   UNL     1       1.061 -14.990  15.573  0.00  0.00    +0.119 C 
BRANCH  19  20
ATOM     20  N   UNL     1       2.097 -14.414  14.664  0.00  0.00    -0.302 NA
ATOM     21  C   UNL     1       2.153 -12.887  14.753  0.00  0.00    +0.066 C 
ATOM     22  C   UNL     1       3.257 -12.302  13.812  0.00  0.00    -0.064 C 
ATOM     23  N   UNL     1       2.989 -12.752  12.375  0.00  0.00    +0.379 N 
ATOM     24  C   UNL     1       3.991 -12.157  11.480  0.00  0.00    -0.096 C 
ATOM     25  H   UNL     1       1.991 -12.355  12.077  0.00  0.00    -0.082 HD
ATOM     26  C   UNL     1       2.929 -14.270  12.279  0.00  0.00    -0.064 C 
ATOM     27  C   UNL     1       1.849 -14.842  13.239  0.00  0.00    +0.066 C 
ENDBRANCH  19  20
ENDBRANCH  18  19
ENDBRANCH  14  15
ENDBRANCH  12  13
TORSDOF 6
ENDMDL
MODEL 3
REMARK VINA RESULT:      -7.5      9.622     16.928
REMARK  Name = C:\Users\Docking\Desktop\test protocol\1iep_ligandH.pdb
REMARK  8 active torsions:
REMARK  status: ('A' for Active; 'I' for Inactive)
REMARK    1  A    between atoms: _5  and  _11
REMARK    2  A    between atoms: _19  and  _21
REMARK    3  A    between atoms: _22  and  _66
REMARK    4  A    between atoms: _27  and  _30
REMARK    5  A    between atoms: _32  and  _33
REMARK    6  A    between atoms: _38  and  _43
REMARK    7  A    between atoms: _43  and  _46
REMARK    8  A    between atoms: _53  and  _55
REMARK                            x       y       z     vdW  Elec       q    Type
REMARK                         _______ _______ _______ _____ _____    ______ ____
ROOT
ATOM     10  C   UNL     1      20.344 -11.826   4.448  0.00  0.00    +0.038 A 
ATOM     11  C   UNL     1      20.397 -12.945   5.318  0.00  0.00    +0.047 A 
ATOM     12  C   UNL     1      19.738 -14.196   4.976  0.00  0.00    +0.035 A 
ATOM     32  C   UNL     1      19.037 -14.274   3.737  0.00  0.00    +0.024 A 
ATOM     33  C   UNL     1      18.973 -13.146   2.841  0.00  0.00    +0.007 A 
ATOM     34  C   UNL     1      19.618 -11.909   3.175  0.00  0.00    -0.029 A 
ATOM     35  C   UNL     1      19.511 -10.730   2.179  0.00  0.00    +0.045 C 
ENDROOT
BRANCH  10   9
ATOM      4  C   UNL     1      24.289  -9.133   4.917  0.00  0.00    +0.077 A 
ATOM      5  C   UNL     1      25.130 -10.168   4.387  0.00  0.00    +0.048 A 
ATOM      6  C   UNL     1      24.509 -11.380   4.013  0.00  0.00    +0.116 A 
ATOM      7  N   UNL     1      23.148 -11.536   4.161  0.00  0.00    -0.223 NA
ATOM      8  C   UNL     1      22.366 -10.518   4.677  0.00  0.00    +0.220 A 
ATOM      9  N   UNL     1      20.994 -10.650   4.827  0.00  0.00    -0.283 N 
ATOM     36  H   UNL     1      20.454  -9.879   5.218  0.00  0.00    +0.155 HD
ATOM     37  N   UNL     1      22.935  -9.351   5.043  0.00  0.00    -0.214 NA
BRANCH   4   3
ATOM      1  C   UNL     1      26.642  -6.217   6.039  0.00  0.00    +0.020 A 
ATOM      2  C   UNL     1      26.205  -7.528   5.619  0.00  0.00    +0.013 A 
ATOM      3  C   UNL     1      24.796  -7.794   5.354  0.00  0.00    +0.019 A 
ATOM     38  C   UNL     1      23.849  -6.703   5.525  0.00  0.00    +0.120 A 
ATOM     39  N   UNL     1      24.300  -5.451   5.932  0.00  0.00    -0.263 NA
ATOM     40  C   UNL     1      25.652  -5.183   6.191  0.00  0.00    +0.111 A 
ENDBRANCH   4   3
ENDBRANCH  10   9
BRANCH  12  13
ATOM     13  N   UNL     1      19.751 -15.363   5.823  0.00  0.00    -0.281 N 
ATOM     14  C   UNL     1      20.827 -16.178   6.135  0.00  0.00    +0.248 C 
ATOM     30  O   UNL     1      21.904 -16.151   5.559  0.00  0.00    -0.270 OA
ATOM     31  H   UNL     1      18.858 -15.619   6.244  0.00  0.00    +0.155 HD
BRANCH  14  15
ATOM     15  C   UNL     1      20.680 -17.177   7.237  0.00  0.00    +0.037 A 
ATOM     16  C   UNL     1      19.467 -17.232   8.056  0.00  0.00    +0.013 A 
ATOM     17  C   UNL     1      19.359 -18.195   9.124  0.00  0.00    +0.005 A 
ATOM     18  C   UNL     1      20.468 -19.112   9.377  0.00  0.00    -0.033 A 
ATOM     28  C   UNL     1      21.657 -19.039   8.545  0.00  0.00    +0.005 A 
ATOM     29  C   UNL     1      21.768 -18.096   7.498  0.00  0.00    +0.013 A 
BRANCH  18  19
ATOM     19  C   UNL     1      20.447 -20.157  10.508  0.00  0.00    +0.119 C 
BRANCH  19  20
ATOM     20  N   UNL     1      21.714 -20.363  11.271  0.00  0.00    -0.302 NA
ATOM     21  C   UNL     1      22.197 -21.814  11.201  0.00  0.00    +0.066 C 
ATOM     22  C   UNL     1      23.536 -22.007  11.986  0.00  0.00    -0.064 C 
ATOM     23  N   UNL     1      23.339 -21.571  13.439  0.00  0.00    +0.379 N 
ATOM     24  C   UNL     1      24.578 -21.805  14.194  0.00  0.00    -0.096 C 
ATOM     25  H   UNL     1      22.546 -22.218  13.882  0.00  0.00    -0.082 HD
ATOM     26  C   UNL     1      22.856 -20.130  13.518  0.00  0.00    -0.064 C 
ATOM     27  C   UNL     1      21.541 -19.943  12.710  0.00  0.00    +0.066 C 
ENDBRANCH  19  20
ENDBRANCH  18  19
ENDBRANCH  14  15
ENDBRANCH  12  13
TORSDOF 6
ENDMDL
MODEL 4
REMARK VINA RESULT:      -7.4      6.561     13.257
REMARK  Name = C:\Users\Docking\Desktop\test protocol\1iep_ligandH.pdb
REMARK  8 active torsions:
REMARK  status: ('A' for Active; 'I' for Inactive)
REMARK    1  A    between atoms: _5  and  _11
REMARK    2  A    between atoms: _19  and  _21
REMARK    3  A    between atoms: _22  and  _66
REMARK    4  A    between atoms: _27  and  _30
REMARK    5  A    between atoms: _32  and  _33
REMARK    6  A    between atoms: _38  and  _43
REMARK    7  A    between atoms: _43  and  _46
REMARK    8  A    between atoms: _53  and  _55
REMARK                            x       y       z     vdW  Elec       q    Type
REMARK                         _______ _______ _______ _____ _____    ______ ____
ROOT
ATOM     10  C   UNL     1      18.324 -21.849   9.904  0.00  0.00    +0.038 A 
ATOM     11  C   UNL     1      19.562 -21.206  10.161  0.00  0.00    +0.047 A 
ATOM     12  C   UNL     1      20.705 -21.949  10.667  0.00  0.00    +0.035 A 
ATOM     32  C   UNL     1      20.554 -23.348  10.897  0.00  0.00    +0.024 A 
ATOM     33  C   UNL     1      19.303 -24.018  10.642  0.00  0.00    +0.007 A 
ATOM     34  C   UNL     1      18.170 -23.289  10.146  0.00  0.00    -0.029 A 
ATOM     35  C   UNL     1      16.852 -24.057   9.897  0.00  0.00    +0.045 C 
ENDROOT
BRANCH  10   9
ATOM      4  C   UNL     1      14.583 -18.912  10.548  0.00  0.00    +0.077 A 
ATOM      5  C   UNL     1      14.747 -18.918  11.973  0.00  0.00    +0.048 A 
ATOM      6  C   UNL     1      15.803 -19.696  12.501  0.00  0.00    +0.116 A 
ATOM      7  N   UNL     1      16.626 -20.409  11.657  0.00  0.00    -0.223 NA
ATOM      8  C   UNL     1      16.438 -20.383  10.287  0.00  0.00    +0.220 A 
ATOM      9  N   UNL     1      17.259 -21.087   9.419  0.00  0.00    -0.283 N 
ATOM     36  H   UNL     1      17.083 -21.047   8.416  0.00  0.00    +0.155 HD
ATOM     37  N   UNL     1      15.437 -19.650   9.758  0.00  0.00    -0.214 NA
BRANCH   4   3
ATOM      1  C   UNL     1      11.242 -17.050   9.728  0.00  0.00    +0.020 A 
ATOM      2  C   UNL     1      12.238 -17.802  10.456  0.00  0.00    +0.013 A 
ATOM      3  C   UNL     1      13.516 -18.137   9.839  0.00  0.00    +0.019 A 
ATOM     38  C   UNL     1      13.756 -17.692   8.475  0.00  0.00    +0.120 A 
ATOM     39  N   UNL     1      12.777 -16.971   7.798  0.00  0.00    -0.263 NA
ATOM     40  C   UNL     1      11.543 -16.645   8.380  0.00  0.00    +0.111 A 
ENDBRANCH   4   3
ENDBRANCH  10   9
BRANCH  12  13
ATOM     13  N   UNL     1      21.984 -21.349  10.954  0.00  0.00    -0.281 N 
ATOM     14  C   UNL     1      22.354 -20.628  12.078  0.00  0.00    +0.248 C 
ATOM     30  O   UNL     1      21.571 -20.206  12.917  0.00  0.00    -0.270 OA
ATOM     31  H   UNL     1      22.705 -21.470  10.242  0.00  0.00    +0.155 HD
BRANCH  14  15
ATOM     15  C   UNL     1      23.800 -20.320  12.295  0.00  0.00    +0.037 A 
ATOM     16  C   UNL     1      24.291 -19.855  13.594  0.00  0.00    +0.013 A 
ATOM     17  C   UNL     1      25.689 -19.547  13.772  0.00  0.00    +0.005 A 
ATOM     18  C   UNL     1      26.605 -19.706  12.645  0.00  0.00    -0.033 A 
ATOM     28  C   UNL     1      26.092 -20.174  11.368  0.00  0.00    +0.005 A 
ATOM     29  C   UNL     1      24.723 -20.475  11.190  0.00  0.00    +0.013 A 
BRANCH  18  19
ATOM     19  C   UNL     1      28.108 -19.381  12.737  0.00  0.00    +0.119 C 
BRANCH  19  20
ATOM     20  N   UNL     1      28.576 -18.118  12.092  0.00  0.00    -0.302 NA
ATOM     21  C   UNL     1      30.097 -18.092  11.917  0.00  0.00    +0.066 C 
ATOM     22  C   UNL     1      30.566 -16.773  11.220  0.00  0.00    -0.064 C 
ATOM     23  N   UNL     1      30.094 -15.571  12.039  0.00  0.00    +0.379 N 
ATOM     24  C   UNL     1      30.584 -14.332  11.418  0.00  0.00    -0.096 C 
ATOM     25  H   UNL     1      30.557 -15.648  13.051  0.00  0.00    -0.082 HD
ATOM     26  C   UNL     1      28.583 -15.591  12.220  0.00  0.00    -0.064 C 
ATOM     27  C   UNL     1      28.124 -16.918  12.887  0.00  0.00    +0.066 C 
ENDBRANCH  19  20
ENDBRANCH  18  19
ENDBRANCH  14  15
ENDBRANCH  12  13
TORSDOF 6
ENDMDL
MODEL 5
REMARK VINA RESULT:      -7.4     15.033     22.504
REMARK  Name = C:\Users\Docking\Desktop\test protocol\1iep_ligandH.pdb
REMARK  8 active torsions:
REMARK  status: ('A' for Active; 'I' for Inactive)
REMARK    1  A    between atoms: _5  and  _11
REMARK    2  A    between atoms: _19  and  _21
REMARK    3  A    between atoms: _22  and  _66
REMARK    4  A    between atoms: _27  and  _30
REMARK    5  A    between atoms: _32  and  _33
REMARK    6  A    between atoms: _38  and  _43
REMARK    7  A    between atoms: _43  and  _46
REMARK    8  A    between atoms: _53  and  _55
REMARK                            x       y       z     vdW  Elec       q    Type
REMARK                         _______ _______ _______ _____ _____    ______ ____
ROOT
ATOM     10  C   UNL     1       3.449 -21.219  20.256  0.00  0.00    +0.038 A 
ATOM     11  C   UNL     1       4.744 -21.789  20.165  0.00  0.00    +0.047 A 
ATOM     12  C   UNL     1       5.004 -23.145  20.625  0.00  0.00    +0.035 A 
ATOM     32  C   UNL     1       3.920 -23.892  21.169  0.00  0.00    +0.024 A 
ATOM     33  C   UNL     1       2.597 -23.328  21.270  0.00  0.00    +0.007 A 
ATOM     34  C   UNL     1       2.335 -21.990  20.821  0.00  0.00    -0.029 A 
ATOM     35  C   UNL     1       0.899 -21.434  20.959  0.00  0.00    +0.045 C 
ENDROOT
BRANCH  10   9
ATOM      4  C   UNL     1       2.122 -18.064  16.891  0.00  0.00    +0.077 A 
ATOM      5  C   UNL     1       1.812 -19.105  15.953  0.00  0.00    +0.048 A 
ATOM      6  C   UNL     1       2.014 -20.438  16.374  0.00  0.00    +0.116 A 
ATOM      7  N   UNL     1       2.492 -20.700  17.640  0.00  0.00    -0.223 NA
ATOM      8  C   UNL     1       2.783 -19.673  18.519  0.00  0.00    +0.220 A 
ATOM      9  N   UNL     1       3.257 -19.913  19.799  0.00  0.00    -0.283 N 
ATOM     36  H   UNL     1       3.466 -19.128  20.415  0.00  0.00    +0.155 HD
ATOM     37  N   UNL     1       2.600 -18.391  18.140  0.00  0.00    -0.214 NA
BRANCH   4   3
ATOM      1  C   UNL     1       1.901 -14.178  17.280  0.00  0.00    +0.020 A 
ATOM      2  C   UNL     1       2.068 -15.573  17.618  0.00  0.00    +0.013 A 
ATOM      3  C   UNL     1       1.958 -16.606  16.595  0.00  0.00    +0.019 A 
ATOM     38  C   UNL     1       1.678 -16.190  15.229  0.00  0.00    +0.120 A 
ATOM     39  N   UNL     1       1.521 -14.840  14.934  0.00  0.00    -0.263 NA
ATOM     40  C   UNL     1       1.623 -13.837  15.910  0.00  0.00    +0.111 A 
ENDBRANCH   4   3
ENDBRANCH  10   9
BRANCH  12  13
ATOM     13  N   UNL     1       6.300 -23.774  20.565  0.00  0.00    -0.281 N 
ATOM     14  C   UNL     1       7.128 -24.120  21.620  0.00  0.00    +0.248 C 
ATOM     30  O   UNL     1       6.972 -23.744  22.773  0.00  0.00    -0.270 OA
ATOM     31  H   UNL     1       6.649 -23.990  19.632  0.00  0.00    +0.155 HD
BRANCH  14  15
ATOM     15  C   UNL     1       8.308 -24.997  21.355  0.00  0.00    +0.037 A 
ATOM     16  C   UNL     1       9.340 -25.213  22.372  0.00  0.00    +0.013 A 
ATOM     17  C   UNL     1      10.477 -26.051  22.084  0.00  0.00    +0.005 A 
ATOM     18  C   UNL     1      10.586 -26.682  20.771  0.00  0.00    -0.033 A 
ATOM     28  C   UNL     1       9.546 -26.455  19.781  0.00  0.00    +0.005 A 
ATOM     29  C   UNL     1       8.431 -25.634  20.060  0.00  0.00    +0.013 A 
BRANCH  18  19
ATOM     19  C   UNL     1      11.775 -27.574  20.369  0.00  0.00    +0.119 C 
BRANCH  19  20
ATOM     20  N   UNL     1      11.663 -29.035  20.659  0.00  0.00    -0.302 NA
ATOM     21  C   UNL     1      11.991 -29.357  22.120  0.00  0.00    +0.066 C 
ATOM     22  C   UNL     1      11.847 -30.886  22.412  0.00  0.00    -0.064 C 
ATOM     23  N   UNL     1      12.757 -31.671  21.466  0.00  0.00    +0.379 N 
ATOM     24  C   UNL     1      12.667 -33.105  21.777  0.00  0.00    -0.096 C 
ATOM     25  H   UNL     1      13.806 -31.348  21.661  0.00  0.00    -0.082 HD
ATOM     26  C   UNL     1      12.439 -31.355  20.012  0.00  0.00    -0.064 C 
ATOM     27  C   UNL     1      12.557 -29.829  19.739  0.00  0.00    +0.066 C 
ENDBRANCH  19  20
ENDBRANCH  18  19
ENDBRANCH  14  15
ENDBRANCH  12  13
TORSDOF 6
ENDMDL
