MODEL 1
REMARK VINA RESULT:      -8.9      0.000      0.000
REMARK  Name = C:\Users\Docking\Desktop\test protocol\1iep_ligandH.pdb
REMARK  8 active torsions:
REMARK  status: ('A' for Active; 'I' for Inactive)
REMARK    1  A    between atoms: _5  and  _11
REMARK    2  A    between atoms: _19  and  _21
REMARK    3  A    between atoms: _22  and  _66
REMARK    4  A    between atoms: _27  and  _30
REMARK    5  A    between atoms: _32  and  _33
REMARK    6  A    between atoms: _38  and  _43
REMARK    7  A    between atoms: _43  and  _46
REMARK    8  A    between atoms: _53  and  _55
REMARK                            x       y       z     vdW  Elec       q    Type
REMARK                         _______ _______ _______ _____ _____    ______ ____
ROOT
ATOM     10  C   UNL     1      27.217 -14.091  32.270  0.00  0.00    +0.038 A 
ATOM     11  C   UNL     1      25.919 -14.319  31.747  0.00  0.00    +0.047 A 
ATOM     12  C   UNL     1      24.732 -13.856  32.450  0.00  0.00    +0.035 A 
ATOM     32  C   UNL     1      24.905 -13.160  33.682  0.00  0.00    +0.024 A 
ATOM     33  C   UNL     1      26.218 -12.920  34.228  0.00  0.00    +0.007 A 
ATOM     34  C   UNL     1      27.392 -13.377  33.541  0.00  0.00    -0.029 A 
ATOM     35  C   UNL     1      28.773 -13.098  34.177  0.00  0.00    +0.045 C 
ENDROOT
BRANCH  10   9
ATOM      4  C   UNL     1      29.859 -17.635  30.400  0.00  0.00    +0.077 A 
ATOM      5  C   UNL     1      28.978 -18.643  30.916  0.00  0.00    +0.048 A 
ATOM      6  C   UNL     1      27.861 -18.208  31.664  0.00  0.00    +0.116 A 
ATOM      7  N   UNL     1      27.650 -16.863  31.873  0.00  0.00    -0.223 NA
ATOM      8  C   UNL     1      28.519 -15.916  31.362  0.00  0.00    +0.220 A 
ATOM      9  N   UNL     1      28.322 -14.558  31.554  0.00  0.00    -0.283 N 
ATOM     36  H   UNL     1      28.990 -13.892  31.167  0.00  0.00    +0.155 HD
ATOM     37  N   UNL     1      29.594 -16.306  30.646  0.00  0.00    -0.214 NA
BRANCH   4   3
ATOM      1  C   UNL     1      32.229 -18.641  27.456  0.00  0.00    +0.020 A 
ATOM      2  C   UNL     1      31.020 -18.363  28.195  0.00  0.00    +0.013 A 
ATOM      3  C   UNL     1      31.080 -17.937  29.588  0.00  0.00    +0.019 A 
ATOM     38  C   UNL     1      32.390 -17.799  30.207  0.00  0.00    +0.120 A 
ATOM     39  N   UNL     1      33.537 -18.075  29.470  0.00  0.00    -0.263 NA
ATOM     40  C   UNL     1      33.492 -18.488  28.130  0.00  0.00    +0.111 A 
ENDBRANCH   4   3
ENDBRANCH  10   9
BRANCH  12  13
ATOM     13  N   UNL     1      23.388 -14.066  31.972  0.00  0.00    -0.281 N 
ATOM     14  C   UNL     1      22.495 -15.055  32.348  0.00  0.00    +0.248 C 
ATOM     30  O   UNL     1      22.795 -16.044  33.001  0.00  0.00    -0.270 OA
ATOM     31  H   UNL     1      23.055 -13.404  31.270  0.00  0.00    +0.155 HD
BRANCH  14  15
ATOM     15  C   UNL     1      21.066 -14.937  31.926  0.00  0.00    +0.037 A 
ATOM     16  C   UNL     1      20.660 -14.006  30.870  0.00  0.00    +0.013 A 
ATOM     17  C   UNL     1      19.273 -13.899  30.494  0.00  0.00    +0.005 A 
ATOM     18  C   UNL     1      18.281 -14.729  31.174  0.00  0.00    -0.033 A 
ATOM     28  C   UNL     1      18.712 -15.648  32.214  0.00  0.00    +0.005 A 
ATOM     29  C   UNL     1      20.071 -15.754  32.586  0.00  0.00    +0.013 A 
BRANCH  18  19
ATOM     19  C   UNL     1      16.776 -14.666  30.853  0.00  0.00    +0.119 C 
BRANCH  19  20
ATOM     20  N   UNL     1      16.006 -15.943  30.932  0.00  0.00    -0.302 NA
ATOM     21  C   UNL     1      16.119 -16.762  29.643  0.00  0.00    +0.066 C 
ATOM     22  C   UNL     1      15.326 -18.105  29.752  0.00  0.00    -0.064 C 
ATOM     23  N   UNL     1      13.861 -17.805  30.076  0.00  0.00    +0.379 N 
ATOM     24  C   UNL     1      13.101 -19.062  30.121  0.00  0.00    -0.096 C 
ATOM     25  H   UNL     1      13.450 -17.190  29.241  0.00  0.00    -0.082 HD
ATOM     26  C   UNL     1      13.740 -16.988  31.354  0.00  0.00    -0.064 C 
ATOM     27  C   UNL     1      14.556 -15.669  31.247  0.00  0.00    +0.066 C 
ENDBRANCH  19  20
ENDBRANCH  18  19
ENDBRANCH  14  15
ENDBRANCH  12  13
TORSDOF 6
ENDMDL
MODEL 2
REMARK VINA RESULT:      -8.6      1.334      1.742
REMARK  Name = C:\Users\Docking\Desktop\test protocol\1iep_ligandH.pdb
REMARK  8 active torsions:
REMARK  status: ('A' for Active; 'I' for Inactive)
REMARK    1  A    between atoms: _5  and  _11
REMARK    2  A    between atoms: _19  and  _21
REMARK    3  A    between atoms: _22  and  _66
REMARK    4  A    between atoms: _27  and  _30
REMARK    5  A    between atoms: _32  and  _33
REMARK    6  A    between atoms: _38  and  _43
REMARK    7  A    between atoms: _43  and  _46
REMARK    8  A    between atoms: _53  and  _55
REMARK                            x       y       z     vdW  Elec       q    Type
REMARK                         _______ _______ _______ _____ _____    ______ ____
ROOT
ATOM     10  C   UNL     1      26.506 -14.292  32.190  0.00  0.00    +0.038 A 
ATOM     11  C   UNL     1      25.225 -14.591  31.661  0.00  0.00    +0.047 A 
ATOM     12  C   UNL     1      24.011 -14.193  32.356  0.00  0.00    +0.035 A 
ATOM     32  C   UNL     1      24.139 -13.488  33.588  0.00  0.00    +0.024 A 
ATOM     33  C   UNL     1      25.433 -13.176  34.142  0.00  0.00    +0.007 A 
ATOM     34  C   UNL     1      26.634 -13.569  33.461  0.00  0.00    -0.029 A 
ATOM     35  C   UNL     1      27.995 -13.213  34.104  0.00  0.00    +0.045 C 
ENDROOT
BRANCH  10   9
ATOM      4  C   UNL     1      29.432 -17.686  30.472  0.00  0.00    +0.077 A 
ATOM      5  C   UNL     1      28.655 -18.738  31.062  0.00  0.00    +0.048 A 
ATOM      6  C   UNL     1      27.513 -18.363  31.805  0.00  0.00    +0.116 A 
ATOM      7  N   UNL     1      27.183 -17.032  31.942  0.00  0.00    -0.223 NA
ATOM      8  C   UNL     1      27.956 -16.042  31.362  0.00  0.00    +0.220 A 
ATOM      9  N   UNL     1      27.638 -14.698  31.480  0.00  0.00    -0.283 N 
ATOM     36  H   UNL     1      28.237 -13.998  31.044  0.00  0.00    +0.155 HD
ATOM     37  N   UNL     1      29.051 -16.375  30.648  0.00  0.00    -0.214 NA
BRANCH   4   3
ATOM      1  C   UNL     1      31.847 -18.381  27.475  0.00  0.00    +0.020 A 
ATOM      2  C   UNL     1      30.628 -18.158  28.217  0.00  0.00    +0.013 A 
ATOM      3  C   UNL     1      30.664 -17.923  29.655  0.00  0.00    +0.019 A 
ATOM     38  C   UNL     1      31.960 -17.920  30.317  0.00  0.00    +0.120 A 
ATOM     39  N   UNL     1      33.117 -18.139  29.576  0.00  0.00    -0.263 NA
ATOM     40  C   UNL     1      33.095 -18.368  28.192  0.00  0.00    +0.111 A 
ENDBRANCH   4   3
ENDBRANCH  10   9
BRANCH  12  13
ATOM     13  N   UNL     1      22.683 -14.476  31.871  0.00  0.00    -0.281 N 
ATOM     14  C   UNL     1      21.674 -15.176  32.512  0.00  0.00    +0.248 C 
ATOM     30  O   UNL     1      21.832 -15.852  33.518  0.00  0.00    -0.270 OA
ATOM     31  H   UNL     1      22.460 -14.117  30.943  0.00  0.00    +0.155 HD
BRANCH  14  15
ATOM     15  C   UNL     1      20.291 -15.131  31.945  0.00  0.00    +0.037 A 
ATOM     16  C   UNL     1      19.901 -14.105  30.975  0.00  0.00    +0.013 A 
ATOM     17  C   UNL     1      18.556 -14.073  30.457  0.00  0.00    +0.005 A 
ATOM     18  C   UNL     1      17.591 -15.073  30.909  0.00  0.00    -0.033 A 
ATOM     28  C   UNL     1      18.007 -16.082  31.868  0.00  0.00    +0.005 A 
ATOM     29  C   UNL     1      19.324 -16.116  32.379  0.00  0.00    +0.013 A 
BRANCH  18  19
ATOM     19  C   UNL     1      16.129 -15.102  30.425  0.00  0.00    +0.119 C 
BRANCH  19  20
ATOM     20  N   UNL     1      15.065 -14.894  31.453  0.00  0.00    -0.302 NA
ATOM     21  C   UNL     1      14.230 -16.158  31.678  0.00  0.00    +0.066 C 
ATOM     22  C   UNL     1      13.136 -15.930  32.772  0.00  0.00    -0.064 C 
ATOM     23  N   UNL     1      12.245 -14.757  32.360  0.00  0.00    +0.379 N 
ATOM     24  C   UNL     1      11.180 -14.577  33.358  0.00  0.00    -0.096 C 
ATOM     25  H   UNL     1      11.760 -15.024  31.393  0.00  0.00    -0.082 HD
ATOM     26  C   UNL     1      13.068 -13.497  32.132  0.00  0.00    -0.064 C 
ATOM     27  C   UNL     1      14.170 -13.743  31.065  0.00  0.00    +0.066 C 
ENDBRANCH  19  20
ENDBRANCH  18  19
ENDBRANCH  14  15
ENDBRANCH  12  13
TORSDOF 6
ENDMDL
MODEL 3
REMARK VINA RESULT:      -8.4      1.873      2.981
REMARK  Name = C:\Users\Docking\Desktop\test protocol\1iep_ligandH.pdb
REMARK  8 active torsions:
REMARK  status: ('A' for Active; 'I' for Inactive)
REMARK    1  A    between atoms: _5  and  _11
REMARK    2  A    between atoms: _19  and  _21
REMARK    3  A    between atoms: _22  and  _66
REMARK    4  A    between atoms: _27  and  _30
REMARK    5  A    between atoms: _32  and  _33
REMARK    6  A    between atoms: _38  and  _43
REMARK    7  A    between atoms: _43  and  _46
REMARK    8  A    between atoms: _53  and  _55
REMARK                            x       y       z     vdW  Elec       q    Type
REMARK                         _______ _______ _______ _____ _____    ______ ____
ROOT
ATOM     10  C   UNL     1      24.454 -14.946  32.507  0.00  0.00    +0.038 A 
ATOM     11  C   UNL     1      23.138 -15.335  32.148  0.00  0.00    +0.047 A 
ATOM     12  C   UNL     1      22.007 -15.058  33.020  0.00  0.00    +0.035 A 
ATOM     32  C   UNL     1      22.253 -14.381  34.250  0.00  0.00    +0.024 A 
ATOM     33  C   UNL     1      23.584 -13.980  34.631  0.00  0.00    +0.007 A 
ATOM     34  C   UNL     1      24.704 -14.253  33.776  0.00  0.00    -0.029 A 
ATOM     35  C   UNL     1      26.110 -13.806  34.238  0.00  0.00    +0.045 C 
ENDROOT
BRANCH  10   9
ATOM      4  C   UNL     1      28.089 -17.710  31.026  0.00  0.00    +0.077 A 
ATOM      5  C   UNL     1      27.900 -18.638  32.104  0.00  0.00    +0.048 A 
ATOM      6  C   UNL     1      26.861 -18.364  33.022  0.00  0.00    +0.116 A 
ATOM      7  N   UNL     1      26.075 -17.243  32.863  0.00  0.00    -0.223 NA
ATOM      8  C   UNL     1      26.285 -16.367  31.814  0.00  0.00    +0.220 A 
ATOM      9  N   UNL     1      25.503 -15.238  31.631  0.00  0.00    -0.283 N 
ATOM     36  H   UNL     1      25.694 -14.613  30.849  0.00  0.00    +0.155 HD
ATOM     37  N   UNL     1      27.272 -16.606  30.925  0.00  0.00    -0.214 NA
BRANCH   4   3
ATOM      1  C   UNL     1      29.919 -17.885  27.574  0.00  0.00    +0.020 A 
ATOM      2  C   UNL     1      28.865 -17.728  28.550  0.00  0.00    +0.013 A 
ATOM      3  C   UNL     1      29.142 -17.863  29.974  0.00  0.00    +0.019 A 
ATOM     38  C   UNL     1      30.508 -18.160  30.382  0.00  0.00    +0.120 A 
ATOM     39  N   UNL     1      31.502 -18.308  29.420  0.00  0.00    -0.263 NA
ATOM     40  C   UNL     1      31.247 -18.182  28.046  0.00  0.00    +0.111 A 
ENDBRANCH   4   3
ENDBRANCH  10   9
BRANCH  12  13
ATOM     13  N   UNL     1      20.650 -15.435  32.712  0.00  0.00    -0.281 N 
ATOM     14  C   UNL     1      19.786 -14.841  31.807  0.00  0.00    +0.248 C 
ATOM     30  O   UNL     1      19.978 -13.757  31.276  0.00  0.00    -0.270 OA
ATOM     31  H   UNL     1      20.282 -16.237  33.223  0.00  0.00    +0.155 HD
BRANCH  14  15
ATOM     15  C   UNL     1      18.517 -15.546  31.451  0.00  0.00    +0.037 A 
ATOM     16  C   UNL     1      18.198 -16.864  32.007  0.00  0.00    +0.013 A 
ATOM     17  C   UNL     1      16.975 -17.530  31.634  0.00  0.00    +0.005 A 
ATOM     18  C   UNL     1      16.061 -16.878  30.699  0.00  0.00    -0.033 A 
ATOM     28  C   UNL     1      16.400 -15.569  30.166  0.00  0.00    +0.005 A 
ATOM     29  C   UNL     1      17.598 -14.913  30.529  0.00  0.00    +0.013 A 
BRANCH  18  19
ATOM     19  C   UNL     1      14.745 -17.524  30.228  0.00  0.00    +0.119 C 
BRANCH  19  20
ATOM     20  N   UNL     1      13.669 -17.706  31.248  0.00  0.00    -0.302 NA
ATOM     21  C   UNL     1      12.506 -18.546  30.714  0.00  0.00    +0.066 C 
ATOM     22  C   UNL     1      11.401 -18.745  31.801  0.00  0.00    -0.064 C 
ATOM     23  N   UNL     1      10.907 -17.379  32.279  0.00  0.00    +0.379 N 
ATOM     24  C   UNL     1       9.827 -17.562  33.259  0.00  0.00    -0.096 C 
ATOM     25  H   UNL     1      10.478 -16.848  31.397  0.00  0.00    -0.082 HD
ATOM     26  C   UNL     1      12.058 -16.535  32.809  0.00  0.00    -0.064 C 
ATOM     27  C   UNL     1      13.164 -16.368  31.731  0.00  0.00    +0.066 C 
ENDBRANCH  19  20
ENDBRANCH  18  19
ENDBRANCH  14  15
ENDBRANCH  12  13
TORSDOF 6
ENDMDL
MODEL 4
REMARK VINA RESULT:      -8.2     20.826     24.473
REMARK  Name = C:\Users\Docking\Desktop\test protocol\1iep_ligandH.pdb
REMARK  8 active torsions:
REMARK  status: ('A' for Active; 'I' for Inactive)
REMARK    1  A    between atoms: _5  and  _11
REMARK    2  A    between atoms: _19  and  _21
REMARK    3  A    between atoms: _22  and  _66
REMARK    4  A    between atoms: _27  and  _30
REMARK    5  A    between atoms: _32  and  _33
REMARK    6  A    between atoms: _38  and  _43
REMARK    7  A    between atoms: _43  and  _46
REMARK    8  A    between atoms: _53  and  _55
REMARK                            x       y       z     vdW  Elec       q    Type
REMARK                         _______ _______ _______ _____ _____    ______ ____
ROOT
ATOM     10  C   UNL     1       5.170 -22.626  21.692  0.00  0.00    +0.038 A 
ATOM     11  C   UNL     1       4.925 -21.641  20.701  0.00  0.00    +0.047 A 
ATOM     12  C   UNL     1       3.691 -20.871  20.694  0.00  0.00    +0.035 A 
ATOM     32  C   UNL     1       2.728 -21.129  21.713  0.00  0.00    +0.024 A 
ATOM     33  C   UNL     1       2.960 -22.126  22.727  0.00  0.00    +0.007 A 
ATOM     34  C   UNL     1       4.175 -22.891  22.738  0.00  0.00    -0.029 A 
ATOM     35  C   UNL     1       4.367 -23.952  23.846  0.00  0.00    +0.045 C 
ENDROOT
BRANCH  10   9
ATOM      4  C   UNL     1       8.005 -26.048  19.879  0.00  0.00    +0.077 A 
ATOM      5  C   UNL     1       6.997 -26.475  18.953  0.00  0.00    +0.048 A 
ATOM      6  C   UNL     1       5.760 -25.793  18.980  0.00  0.00    +0.116 A 
ATOM      7  N   UNL     1       5.558 -24.762  19.871  0.00  0.00    -0.223 NA
ATOM      8  C   UNL     1       6.551 -24.375  20.752  0.00  0.00    +0.220 A 
ATOM      9  N   UNL     1       6.372 -23.336  21.651  0.00  0.00    -0.283 N 
ATOM     36  H   UNL     1       7.126 -23.086  22.290  0.00  0.00    +0.155 HD
ATOM     37  N   UNL     1       7.740 -25.012  20.747  0.00  0.00    -0.214 NA
BRANCH   4   3
ATOM      1  C   UNL     1      11.074 -28.413  19.338  0.00  0.00    +0.020 A 
ATOM      2  C   UNL     1       9.747 -27.854  19.215  0.00  0.00    +0.013 A 
ATOM      3  C   UNL     1       9.365 -26.667  19.970  0.00  0.00    +0.019 A 
ATOM     38  C   UNL     1      10.358 -26.065  20.847  0.00  0.00    +0.120 A 
ATOM     39  N   UNL     1      11.627 -26.626  20.947  0.00  0.00    -0.263 NA
ATOM     40  C   UNL     1      12.005 -27.769  20.226  0.00  0.00    +0.111 A 
ENDBRANCH   4   3
ENDBRANCH  10   9
BRANCH  12  13
ATOM     13  N   UNL     1       3.383 -19.865  19.708  0.00  0.00    -0.281 N 
ATOM     14  C   UNL     1       2.688 -20.020  18.520  0.00  0.00    +0.248 C 
ATOM     30  O   UNL     1       2.407 -21.099  18.020  0.00  0.00    -0.270 OA
ATOM     31  H   UNL     1       3.720 -18.923  19.911  0.00  0.00    +0.155 HD
BRANCH  14  15
ATOM     15  C   UNL     1       2.254 -18.801  17.773  0.00  0.00    +0.037 A 
ATOM     16  C   UNL     1       1.096 -18.831  16.875  0.00  0.00    +0.013 A 
ATOM     17  C   UNL     1       0.709 -17.645  16.153  0.00  0.00    +0.005 A 
ATOM     18  C   UNL     1       1.481 -16.417  16.327  0.00  0.00    -0.033 A 
ATOM     28  C   UNL     1       2.622 -16.414  17.228  0.00  0.00    +0.005 A 
ATOM     29  C   UNL     1       3.005 -17.574  17.936  0.00  0.00    +0.013 A 
BRANCH  18  19
ATOM     19  C   UNL     1       1.153 -15.111  15.581  0.00  0.00    +0.119 C 
BRANCH  19  20
ATOM     20  N   UNL     1       2.218 -14.538  14.705  0.00  0.00    -0.302 NA
ATOM     21  C   UNL     1       2.361 -13.024  14.888  0.00  0.00    +0.066 C 
ATOM     22  C   UNL     1       3.495 -12.445  13.981  0.00  0.00    -0.064 C 
ATOM     23  N   UNL     1       3.200 -12.788  12.519  0.00  0.00    +0.379 N 
ATOM     24  C   UNL     1       4.233 -12.195  11.658  0.00  0.00    -0.096 C 
ATOM     25  H   UNL     1       2.225 -12.317  12.252  0.00  0.00    -0.082 HD
ATOM     26  C   UNL     1       3.054 -14.291  12.328  0.00  0.00    -0.064 C 
ATOM     27  C   UNL     1       1.945 -14.861  13.256  0.00  0.00    +0.066 C 
ENDBRANCH  19  20
ENDBRANCH  18  19
ENDBRANCH  14  15
ENDBRANCH  12  13
TORSDOF 6
ENDMDL
MODEL 5
REMARK VINA RESULT:      -7.8      2.158      2.907
REMARK  Name = C:\Users\Docking\Desktop\test protocol\1iep_ligandH.pdb
REMARK  8 active torsions:
REMARK  status: ('A' for Active; 'I' for Inactive)
REMARK    1  A    between atoms: _5  and  _11
REMARK    2  A    between atoms: _19  and  _21
REMARK    3  A    between atoms: _22  and  _66
REMARK    4  A    between atoms: _27  and  _30
REMARK    5  A    between atoms: _32  and  _33
REMARK    6  A    between atoms: _38  and  _43
REMARK    7  A    between atoms: _43  and  _46
REMARK    8  A    between atoms: _53  and  _55
REMARK                            x       y       z     vdW  Elec       q    Type
REMARK                         _______ _______ _______ _____ _____    ______ ____
ROOT
ATOM     10  C   UNL     1      26.037 -15.845  33.257  0.00  0.00    +0.038 A 
ATOM     11  C   UNL     1      24.681 -16.101  32.930  0.00  0.00    +0.047 A 
ATOM     12  C   UNL     1      23.775 -15.020  32.576  0.00  0.00    +0.035 A 
ATOM     32  C   UNL     1      24.285 -13.689  32.562  0.00  0.00    +0.024 A 
ATOM     33  C   UNL     1      25.661 -13.410  32.892  0.00  0.00    +0.007 A 
ATOM     34  C   UNL     1      26.558 -14.473  33.245  0.00  0.00    -0.029 A 
ATOM     35  C   UNL     1      28.021 -14.115  33.597  0.00  0.00    +0.045 C 
ENDROOT
BRANCH  10   9
ATOM      4  C   UNL     1      29.305 -19.178  32.138  0.00  0.00    +0.077 A 
ATOM      5  C   UNL     1      29.352 -18.756  30.767  0.00  0.00    +0.048 A 
ATOM      6  C   UNL     1      28.515 -17.683  30.389  0.00  0.00    +0.116 A 
ATOM      7  N   UNL     1      27.695 -17.083  31.321  0.00  0.00    -0.223 NA
ATOM      8  C   UNL     1      27.673 -17.515  32.634  0.00  0.00    +0.220 A 
ATOM      9  N   UNL     1      26.863 -16.922  33.590  0.00  0.00    -0.283 N 
ATOM     36  H   UNL     1      26.870 -17.275  34.547  0.00  0.00    +0.155 HD
ATOM     37  N   UNL     1      28.462 -18.539  33.020  0.00  0.00    -0.214 NA
BRANCH   4   3
ATOM      1  C   UNL     1      30.493 -22.712  33.321  0.00  0.00    +0.020 A 
ATOM      2  C   UNL     1      29.652 -21.669  32.779  0.00  0.00    +0.013 A 
ATOM      3  C   UNL     1      30.133 -20.296  32.690  0.00  0.00    +0.019 A 
ATOM     38  C   UNL     1      31.480 -20.010  33.161  0.00  0.00    +0.120 A 
ATOM     39  N   UNL     1      32.266 -21.034  33.680  0.00  0.00    -0.263 NA
ATOM     40  C   UNL     1      31.813 -22.359  33.772  0.00  0.00    +0.111 A 
ENDBRANCH   4   3
ENDBRANCH  10   9
BRANCH  12  13
ATOM     13  N   UNL     1      22.387 -15.218  32.242  0.00  0.00    -0.281 N 
ATOM     14  C   UNL     1      21.285 -15.089  33.072  0.00  0.00    +0.248 C 
ATOM     30  O   UNL     1      21.344 -14.991  34.289  0.00  0.00    -0.270 OA
ATOM     31  H   UNL     1      22.192 -15.486  31.277  0.00  0.00    +0.155 HD
BRANCH  14  15
ATOM     15  C   UNL     1      19.920 -15.083  32.464  0.00  0.00    +0.037 A 
ATOM     16  C   UNL     1      19.651 -14.380  31.207  0.00  0.00    +0.013 A 
ATOM     17  C   UNL     1      18.321 -14.376  30.650  0.00  0.00    +0.005 A 
ATOM     18  C   UNL     1      17.249 -15.079  31.351  0.00  0.00    -0.033 A 
ATOM     28  C   UNL     1      17.545 -15.773  32.594  0.00  0.00    +0.005 A 
ATOM     29  C   UNL     1      18.847 -15.778  33.143  0.00  0.00    +0.013 A 
BRANCH  18  19
ATOM     19  C   UNL     1      15.796 -15.109  30.842  0.00  0.00    +0.119 C 
BRANCH  19  20
ATOM     20  N   UNL     1      15.304 -16.391  30.254  0.00  0.00    -0.302 NA
ATOM     21  C   UNL     1      14.339 -17.120  31.193  0.00  0.00    +0.066 C 
ATOM     22  C   UNL     1      13.816 -18.447  30.553  0.00  0.00    -0.064 C 
ATOM     23  N   UNL     1      15.005 -19.342  30.198  0.00  0.00    +0.379 N 
ATOM     24  C   UNL     1      14.515 -20.615  29.650  0.00  0.00    -0.096 C 
ATOM     25  H   UNL     1      15.552 -19.568  31.143  0.00  0.00    -0.082 HD
ATOM     26  C   UNL     1      15.972 -18.623  29.267  0.00  0.00    -0.064 C 
ATOM     27  C   UNL     1      16.462 -17.291  29.900  0.00  0.00    +0.066 C 
ENDBRANCH  19  20
ENDBRANCH  18  19
ENDBRANCH  14  15
ENDBRANCH  12  13
TORSDOF 6
ENDMDL
