MODEL 1
REMARK VINA RESULT:      -8.6      0.000      0.000
REMARK  Name = C:\Users\Docking\Desktop\test protocol\1iep_ligandH.pdb
REMARK  8 active torsions:
REMARK  status: ('A' for Active; 'I' for Inactive)
REMARK    1  A    between atoms: _5  and  _11
REMARK    2  A    between atoms: _19  and  _21
REMARK    3  A    between atoms: _22  and  _66
REMARK    4  A    between atoms: _27  and  _30
REMARK    5  A    between atoms: _32  and  _33
REMARK    6  A    between atoms: _38  and  _43
REMARK    7  A    between atoms: _43  and  _46
REMARK    8  A    between atoms: _53  and  _55
REMARK                            x       y       z     vdW  Elec       q    Type
REMARK                         _______ _______ _______ _____ _____    ______ ____
ROOT
ATOM     10  C   UNL     1      13.942  20.836   8.673  0.00  0.00    +0.038 A 
ATOM     11  C   UNL     1      15.216  21.062   9.254  0.00  0.00    +0.047 A 
ATOM     12  C   UNL     1      16.134  19.962   9.506  0.00  0.00    +0.035 A 
ATOM     32  C   UNL     1      15.724  18.645   9.151  0.00  0.00    +0.024 A 
ATOM     33  C   UNL     1      14.432  18.397   8.559  0.00  0.00    +0.007 A 
ATOM     34  C   UNL     1      13.521  19.477   8.311  0.00  0.00    -0.029 A 
ATOM     35  C   UNL     1      12.147  19.152   7.680  0.00  0.00    +0.045 C 
ENDROOT
BRANCH  10   9
ATOM      4  C   UNL     1      10.488  23.865  10.062  0.00  0.00    +0.077 A 
ATOM      5  C   UNL     1      10.328  23.198  11.322  0.00  0.00    +0.048 A 
ATOM      6  C   UNL     1      11.149  22.075  11.571  0.00  0.00    +0.116 A 
ATOM      7  N   UNL     1      12.059  21.659  10.623  0.00  0.00    -0.223 NA
ATOM      8  C   UNL     1      12.187  22.324   9.417  0.00  0.00    +0.220 A 
ATOM      9  N   UNL     1      13.101  21.929   8.453  0.00  0.00    -0.283 N 
ATOM     36  H   UNL     1      13.159  22.441   7.573  0.00  0.00    +0.155 HD
ATOM     37  N   UNL     1      11.413  23.399   9.155  0.00  0.00    -0.214 NA
BRANCH   4   3
ATOM      1  C   UNL     1       9.368  27.560   9.435  0.00  0.00    +0.020 A 
ATOM      2  C   UNL     1      10.172  26.432   9.847  0.00  0.00    +0.013 A 
ATOM      3  C   UNL     1       9.696  25.068   9.654  0.00  0.00    +0.019 A 
ATOM     38  C   UNL     1       8.393  24.878   9.035  0.00  0.00    +0.120 A 
ATOM     39  N   UNL     1       7.641  25.983   8.649  0.00  0.00    -0.263 NA
ATOM     40  C   UNL     1       8.087  27.300   8.831  0.00  0.00    +0.111 A 
ENDBRANCH   4   3
ENDBRANCH  10   9
BRANCH  12  13
ATOM     13  N   UNL     1      17.436  20.130  10.102  0.00  0.00    -0.281 N 
ATOM     14  C   UNL     1      18.653  20.289   9.459  0.00  0.00    +0.248 C 
ATOM     30  O   UNL     1      18.834  20.097   8.266  0.00  0.00    -0.270 OA
ATOM     31  H   UNL     1      17.465  20.132  11.122  0.00  0.00    +0.155 HD
BRANCH  14  15
ATOM     15  C   UNL     1      19.844  20.709  10.259  0.00  0.00    +0.037 A 
ATOM     16  C   UNL     1      20.315  19.912  11.395  0.00  0.00    +0.013 A 
ATOM     17  C   UNL     1      21.456  20.349  12.161  0.00  0.00    +0.005 A 
ATOM     18  C   UNL     1      22.134  21.589  11.791  0.00  0.00    -0.033 A 
ATOM     28  C   UNL     1      21.648  22.357  10.657  0.00  0.00    +0.005 A 
ATOM     29  C   UNL     1      20.530  21.933   9.905  0.00  0.00    +0.013 A 
BRANCH  18  19
ATOM     19  C   UNL     1      23.346  22.142  12.565  0.00  0.00    +0.119 C 
BRANCH  19  20
ATOM     20  N   UNL     1      23.540  21.661  13.965  0.00  0.00    -0.302 NA
ATOM     21  C   UNL     1      22.829  22.556  14.984  0.00  0.00    +0.066 C 
ATOM     22  C   UNL     1      23.024  22.026  16.442  0.00  0.00    -0.064 C 
ATOM     23  N   UNL     1      24.519  21.934  16.752  0.00  0.00    +0.379 N 
ATOM     24  C   UNL     1      24.705  21.491  18.142  0.00  0.00    -0.096 C 
ATOM     25  H   UNL     1      24.946  22.959  16.664  0.00  0.00    -0.082 HD
ATOM     26  C   UNL     1      25.234  21.047  15.742  0.00  0.00    -0.064 C 
ATOM     27  C   UNL     1      25.010  21.566  14.295  0.00  0.00    +0.066 C 
ENDBRANCH  19  20
ENDBRANCH  18  19
ENDBRANCH  14  15
ENDBRANCH  12  13
TORSDOF 6
ENDMDL
MODEL 2
REMARK VINA RESULT:      -8.1      1.948      2.436
REMARK  Name = C:\Users\Docking\Desktop\test protocol\1iep_ligandH.pdb
REMARK  8 active torsions:
REMARK  status: ('A' for Active; 'I' for Inactive)
REMARK    1  A    between atoms: _5  and  _11
REMARK    2  A    between atoms: _19  and  _21
REMARK    3  A    between atoms: _22  and  _66
REMARK    4  A    between atoms: _27  and  _30
REMARK    5  A    between atoms: _32  and  _33
REMARK    6  A    between atoms: _38  and  _43
REMARK    7  A    between atoms: _43  and  _46
REMARK    8  A    between atoms: _53  and  _55
REMARK                            x       y       z     vdW  Elec       q    Type
REMARK                         _______ _______ _______ _____ _____    ______ ____
ROOT
ATOM     10  C   UNL     1      15.279  22.408   6.980  0.00  0.00    +0.038 A 
ATOM     11  C   UNL     1      16.280  22.271   7.975  0.00  0.00    +0.047 A 
ATOM     12  C   UNL     1      17.267  21.205   7.907  0.00  0.00    +0.035 A 
ATOM     32  C   UNL     1      17.207  20.297   6.809  0.00  0.00    +0.024 A 
ATOM     33  C   UNL     1      16.196  20.422   5.789  0.00  0.00    +0.007 A 
ATOM     34  C   UNL     1      15.218  21.470   5.852  0.00  0.00    -0.029 A 
ATOM     35  C   UNL     1      14.152  21.552   4.734  0.00  0.00    +0.045 C 
ENDROOT
BRANCH  10   9
ATOM      4  C   UNL     1      11.072  24.194   8.446  0.00  0.00    +0.077 A 
ATOM      5  C   UNL     1      10.667  22.937   9.007  0.00  0.00    +0.048 A 
ATOM      6  C   UNL     1      11.567  21.855   8.891  0.00  0.00    +0.116 A 
ATOM      7  N   UNL     1      12.779  22.027   8.259  0.00  0.00    -0.223 NA
ATOM      8  C   UNL     1      13.138  23.252   7.727  0.00  0.00    +0.220 A 
ATOM      9  N   UNL     1      14.356  23.450   7.095  0.00  0.00    -0.283 N 
ATOM     36  H   UNL     1      14.580  24.367   6.709  0.00  0.00    +0.155 HD
ATOM     37  N   UNL     1      12.296  24.301   7.824  0.00  0.00    -0.214 NA
BRANCH   4   3
ATOM      1  C   UNL     1       9.320  27.474   9.661  0.00  0.00    +0.020 A 
ATOM      2  C   UNL     1      10.146  26.288   9.669  0.00  0.00    +0.013 A 
ATOM      3  C   UNL     1      10.232  25.432   8.492  0.00  0.00    +0.019 A 
ATOM     38  C   UNL     1       9.464  25.808   7.314  0.00  0.00    +0.120 A 
ATOM     39  N   UNL     1       8.676  26.954   7.336  0.00  0.00    -0.263 NA
ATOM     40  C   UNL     1       8.584  27.784   8.463  0.00  0.00    +0.111 A 
ENDBRANCH   4   3
ENDBRANCH  10   9
BRANCH  12  13
ATOM     13  N   UNL     1      18.301  21.010   8.893  0.00  0.00    -0.281 N 
ATOM     14  C   UNL     1      19.656  21.270   8.768  0.00  0.00    +0.248 C 
ATOM     30  O   UNL     1      20.219  21.511   7.710  0.00  0.00    -0.270 OA
ATOM     31  H   UNL     1      17.998  20.635   9.791  0.00  0.00    +0.155 HD
BRANCH  14  15
ATOM     15  C   UNL     1      20.512  21.245   9.993  0.00  0.00    +0.037 A 
ATOM     16  C   UNL     1      21.465  22.322  10.276  0.00  0.00    +0.013 A 
ATOM     17  C   UNL     1      22.291  22.264  11.456  0.00  0.00    +0.005 A 
ATOM     18  C   UNL     1      22.166  21.126  12.363  0.00  0.00    -0.033 A 
ATOM     28  C   UNL     1      21.209  20.074  12.060  0.00  0.00    +0.005 A 
ATOM     29  C   UNL     1      20.399  20.127  10.904  0.00  0.00    +0.013 A 
BRANCH  18  19
ATOM     19  C   UNL     1      23.022  20.972  13.634  0.00  0.00    +0.119 C 
BRANCH  19  20
ATOM     20  N   UNL     1      22.527  21.638  14.876  0.00  0.00    -0.302 NA
ATOM     21  C   UNL     1      23.635  21.798  15.922  0.00  0.00    +0.066 C 
ATOM     22  C   UNL     1      23.106  22.516  17.205  0.00  0.00    -0.064 C 
ATOM     23  N   UNL     1      21.928  21.727  17.780  0.00  0.00    +0.379 N 
ATOM     24  C   UNL     1      21.466  22.368  19.019  0.00  0.00    -0.096 C 
ATOM     25  H   UNL     1      22.300  20.709  18.044  0.00  0.00    -0.082 HD
ATOM     26  C   UNL     1      20.824  21.560  16.746  0.00  0.00    -0.064 C 
ATOM     27  C   UNL     1      21.367  20.872  15.463  0.00  0.00    +0.066 C 
ENDBRANCH  19  20
ENDBRANCH  18  19
ENDBRANCH  14  15
ENDBRANCH  12  13
TORSDOF 6
ENDMDL
MODEL 3
REMARK VINA RESULT:      -8.1      1.271      1.752
REMARK  Name = C:\Users\Docking\Desktop\test protocol\1iep_ligandH.pdb
REMARK  8 active torsions:
REMARK  status: ('A' for Active; 'I' for Inactive)
REMARK    1  A    between atoms: _5  and  _11
REMARK    2  A    between atoms: _19  and  _21
REMARK    3  A    between atoms: _22  and  _66
REMARK    4  A    between atoms: _27  and  _30
REMARK    5  A    between atoms: _32  and  _33
REMARK    6  A    between atoms: _38  and  _43
REMARK    7  A    between atoms: _43  and  _46
REMARK    8  A    between atoms: _53  and  _55
REMARK                            x       y       z     vdW  Elec       q    Type
REMARK                         _______ _______ _______ _____ _____    ______ ____
ROOT
ATOM     10  C   UNL     1      14.234  20.828   8.493  0.00  0.00    +0.038 A 
ATOM     11  C   UNL     1      15.499  21.037   9.100  0.00  0.00    +0.047 A 
ATOM     12  C   UNL     1      16.436  19.940   9.283  0.00  0.00    +0.035 A 
ATOM     32  C   UNL     1      16.053  18.642   8.834  0.00  0.00    +0.024 A 
ATOM     33  C   UNL     1      14.772  18.412   8.215  0.00  0.00    +0.007 A 
ATOM     34  C   UNL     1      13.842  19.490   8.034  0.00  0.00    -0.029 A 
ATOM     35  C   UNL     1      12.479  19.183   7.371  0.00  0.00    +0.045 C 
ENDROOT
BRANCH  10   9
ATOM      4  C   UNL     1      10.672  23.653  10.031  0.00  0.00    +0.077 A 
ATOM      5  C   UNL     1      10.493  22.878  11.225  0.00  0.00    +0.048 A 
ATOM      6  C   UNL     1      11.333  21.755  11.401  0.00  0.00    +0.116 A 
ATOM      7  N   UNL     1      12.278  21.442  10.449  0.00  0.00    -0.223 NA
ATOM      8  C   UNL     1      12.424  22.210   9.308  0.00  0.00    +0.220 A 
ATOM      9  N   UNL     1      13.373  21.918   8.341  0.00  0.00    -0.283 N 
ATOM     36  H   UNL     1      13.444  22.504   7.511  0.00  0.00    +0.155 HD
ATOM     37  N   UNL     1      11.633  23.286   9.116  0.00  0.00    -0.214 NA
BRANCH   4   3
ATOM      1  C   UNL     1       9.520  27.367   9.606  0.00  0.00    +0.020 A 
ATOM      2  C   UNL     1      10.341  26.226   9.942  0.00  0.00    +0.013 A 
ATOM      3  C   UNL     1       9.863  24.870   9.703  0.00  0.00    +0.019 A 
ATOM     38  C   UNL     1       8.541  24.701   9.120  0.00  0.00    +0.120 A 
ATOM     39  N   UNL     1       7.773  25.819   8.808  0.00  0.00    -0.263 NA
ATOM     40  C   UNL     1       8.221  27.129   9.035  0.00  0.00    +0.111 A 
ENDBRANCH   4   3
ENDBRANCH  10   9
BRANCH  12  13
ATOM     13  N   UNL     1      17.730  20.090   9.900  0.00  0.00    -0.281 N 
ATOM     14  C   UNL     1      18.866  20.677   9.366  0.00  0.00    +0.248 C 
ATOM     30  O   UNL     1      19.001  20.974   8.188  0.00  0.00    -0.270 OA
ATOM     31  H   UNL     1      17.821  19.719  10.846  0.00  0.00    +0.155 HD
BRANCH  14  15
ATOM     15  C   UNL     1      20.023  20.963  10.267  0.00  0.00    +0.037 A 
ATOM     16  C   UNL     1      20.348  20.080  11.390  0.00  0.00    +0.013 A 
ATOM     17  C   UNL     1      21.460  20.388  12.255  0.00  0.00    +0.005 A 
ATOM     18  C   UNL     1      22.256  21.586  11.998  0.00  0.00    -0.033 A 
ATOM     28  C   UNL     1      21.914  22.442  10.874  0.00  0.00    +0.005 A 
ATOM     29  C   UNL     1      20.825  22.144  10.025  0.00  0.00    +0.013 A 
BRANCH  18  19
ATOM     19  C   UNL     1      23.446  22.004  12.881  0.00  0.00    +0.119 C 
BRANCH  19  20
ATOM     20  N   UNL     1      24.537  21.003  13.078  0.00  0.00    -0.302 NA
ATOM     21  C   UNL     1      25.196  21.134  14.453  0.00  0.00    +0.066 C 
ATOM     22  C   UNL     1      26.319  20.065  14.651  0.00  0.00    -0.064 C 
ATOM     23  N   UNL     1      27.357  20.207  13.537  0.00  0.00    +0.379 N 
ATOM     24  C   UNL     1      28.444  19.241  13.752  0.00  0.00    -0.096 C 
ATOM     25  H   UNL     1      27.794  21.230  13.611  0.00  0.00    -0.082 HD
ATOM     26  C   UNL     1      26.709  20.080  12.165  0.00  0.00    -0.064 C 
ATOM     27  C   UNL     1      25.575  21.129  11.991  0.00  0.00    +0.066 C 
ENDBRANCH  19  20
ENDBRANCH  18  19
ENDBRANCH  14  15
ENDBRANCH  12  13
TORSDOF 6
ENDMDL
MODEL 4
REMARK VINA RESULT:      -8.0      7.672     12.654
REMARK  Name = C:\Users\Docking\Desktop\test protocol\1iep_ligandH.pdb
REMARK  8 active torsions:
REMARK  status: ('A' for Active; 'I' for Inactive)
REMARK    1  A    between atoms: _5  and  _11
REMARK    2  A    between atoms: _19  and  _21
REMARK    3  A    between atoms: _22  and  _66
REMARK    4  A    between atoms: _27  and  _30
REMARK    5  A    between atoms: _32  and  _33
REMARK    6  A    between atoms: _38  and  _43
REMARK    7  A    between atoms: _43  and  _46
REMARK    8  A    between atoms: _53  and  _55
REMARK                            x       y       z     vdW  Elec       q    Type
REMARK                         _______ _______ _______ _____ _____    ______ ____
ROOT
ATOM     10  C   UNL     1      20.160  25.152   4.285  0.00  0.00    +0.038 A 
ATOM     11  C   UNL     1      18.840  24.881   4.726  0.00  0.00    +0.047 A 
ATOM     12  C   UNL     1      18.335  23.519   4.801  0.00  0.00    +0.035 A 
ATOM     32  C   UNL     1      19.204  22.455   4.421  0.00  0.00    +0.024 A 
ATOM     33  C   UNL     1      20.549  22.712   3.969  0.00  0.00    +0.007 A 
ATOM     34  C   UNL     1      21.051  24.054   3.891  0.00  0.00    -0.029 A 
ATOM     35  C   UNL     1      22.499  24.270   3.393  0.00  0.00    +0.045 C 
ENDROOT
BRANCH  10   9
ATOM      4  C   UNL     1      20.940  29.260   1.929  0.00  0.00    +0.077 A 
ATOM      5  C   UNL     1      20.472  28.707   0.690  0.00  0.00    +0.048 A 
ATOM      6  C   UNL     1      20.045  27.360   0.701  0.00  0.00    +0.116 A 
ATOM      7  N   UNL     1      20.089  26.630   1.868  0.00  0.00    -0.223 NA
ATOM      8  C   UNL     1      20.548  27.192   3.045  0.00  0.00    +0.220 A 
ATOM      9  N   UNL     1      20.593  26.479   4.233  0.00  0.00    -0.283 N 
ATOM     36  H   UNL     1      20.945  26.927   5.078  0.00  0.00    +0.155 HD
ATOM     37  N   UNL     1      20.962  28.476   3.061  0.00  0.00    -0.214 NA
BRANCH   4   3
ATOM      1  C   UNL     1      22.711  32.688   1.289  0.00  0.00    +0.020 A 
ATOM      2  C   UNL     1      22.275  31.325   1.096  0.00  0.00    +0.013 A 
ATOM      3  C   UNL     1      21.421  30.670   2.079  0.00  0.00    +0.019 A 
ATOM     38  C   UNL     1      21.022  31.429   3.255  0.00  0.00    +0.120 A 
ATOM     39  N   UNL     1      21.459  32.740   3.414  0.00  0.00    -0.263 NA
ATOM     40  C   UNL     1      22.282  33.380   2.476  0.00  0.00    +0.111 A 
ENDBRANCH   4   3
ENDBRANCH  10   9
BRANCH  12  13
ATOM     13  N   UNL     1      17.001  23.184   5.234  0.00  0.00    -0.281 N 
ATOM     14  C   UNL     1      16.625  22.468   6.358  0.00  0.00    +0.248 C 
ATOM     30  O   UNL     1      17.393  21.820   7.053  0.00  0.00    -0.270 OA
ATOM     31  H   UNL     1      16.241  23.516   4.639  0.00  0.00    +0.155 HD
BRANCH  14  15
ATOM     15  C   UNL     1      15.186  22.459   6.760  0.00  0.00    +0.037 A 
ATOM     16  C   UNL     1      14.122  22.714   5.785  0.00  0.00    +0.013 A 
ATOM     17  C   UNL     1      12.743  22.716   6.203  0.00  0.00    +0.005 A 
ATOM     18  C   UNL     1      12.419  22.460   7.605  0.00  0.00    -0.033 A 
ATOM     28  C   UNL     1      13.493  22.204   8.550  0.00  0.00    +0.005 A 
ATOM     29  C   UNL     1      14.846  22.202   8.144  0.00  0.00    +0.013 A 
BRANCH  18  19
ATOM     19  C   UNL     1      10.976  22.464   8.144  0.00  0.00    +0.119 C 
BRANCH  19  20
ATOM     20  N   UNL     1      10.251  23.769   8.147  0.00  0.00    -0.302 NA
ATOM     21  C   UNL     1      11.155  24.928   8.576  0.00  0.00    +0.066 C 
ATOM     22  C   UNL     1      10.387  26.289   8.552  0.00  0.00    -0.064 C 
ATOM     23  N   UNL     1       9.160  26.194   9.461  0.00  0.00    +0.379 N 
ATOM     24  C   UNL     1       8.467  27.491   9.486  0.00  0.00    -0.096 C 
ATOM     25  H   UNL     1       9.520  25.983  10.495  0.00  0.00    -0.082 HD
ATOM     26  C   UNL     1       8.256  25.043   9.043  0.00  0.00    -0.064 C 
ATOM     27  C   UNL     1       9.038  23.700   9.042  0.00  0.00    +0.066 C 
ENDBRANCH  19  20
ENDBRANCH  18  19
ENDBRANCH  14  15
ENDBRANCH  12  13
TORSDOF 6
ENDMDL
MODEL 5
REMARK VINA RESULT:      -7.9      5.954      7.974
REMARK  Name = C:\Users\Docking\Desktop\test protocol\1iep_ligandH.pdb
REMARK  8 active torsions:
REMARK  status: ('A' for Active; 'I' for Inactive)
REMARK    1  A    between atoms: _5  and  _11
REMARK    2  A    between atoms: _19  and  _21
REMARK    3  A    between atoms: _22  and  _66
REMARK    4  A    between atoms: _27  and  _30
REMARK    5  A    between atoms: _32  and  _33
REMARK    6  A    between atoms: _38  and  _43
REMARK    7  A    between atoms: _43  and  _46
REMARK    8  A    between atoms: _53  and  _55
REMARK                            x       y       z     vdW  Elec       q    Type
REMARK                         _______ _______ _______ _____ _____    ______ ____
ROOT
ATOM     10  C   UNL     1      12.499  22.726   7.913  0.00  0.00    +0.038 A 
ATOM     11  C   UNL     1      13.718  23.133   7.314  0.00  0.00    +0.047 A 
ATOM     12  C   UNL     1      14.993  22.595   7.764  0.00  0.00    +0.035 A 
ATOM     32  C   UNL     1      14.989  21.643   8.824  0.00  0.00    +0.024 A 
ATOM     33  C   UNL     1      13.758  21.219   9.445  0.00  0.00    +0.007 A 
ATOM     34  C   UNL     1      12.498  21.748   9.007  0.00  0.00    -0.029 A 
ATOM     35  C   UNL     1      11.210  21.262   9.713  0.00  0.00    +0.045 C 
ENDROOT
BRANCH  10   9
ATOM      4  C   UNL     1       9.157  26.171   7.851  0.00  0.00    +0.077 A 
ATOM      5  C   UNL     1       9.835  26.929   8.863  0.00  0.00    +0.048 A 
ATOM      6  C   UNL     1      11.037  26.394   9.378  0.00  0.00    +0.116 A 
ATOM      7  N   UNL     1      11.516  25.190   8.909  0.00  0.00    -0.223 NA
ATOM      8  C   UNL     1      10.836  24.483   7.934  0.00  0.00    +0.220 A 
ATOM      9  N   UNL     1      11.304  23.274   7.442  0.00  0.00    -0.283 N 
ATOM     36  H   UNL     1      10.769  22.780   6.728  0.00  0.00    +0.155 HD
ATOM     37  N   UNL     1       9.685  24.972   7.427  0.00  0.00    -0.214 NA
BRANCH   4   3
ATOM      1  C   UNL     1       5.479  27.382   7.298  0.00  0.00    +0.020 A 
ATOM      2  C   UNL     1       6.690  26.969   7.970  0.00  0.00    +0.013 A 
ATOM      3  C   UNL     1       7.877  26.605   7.207  0.00  0.00    +0.019 A 
ATOM     38  C   UNL     1       7.806  26.672   5.755  0.00  0.00    +0.120 A 
ATOM     39  N   UNL     1       6.626  27.073   5.136  0.00  0.00    -0.263 NA
ATOM     40  C   UNL     1       5.477  27.423   5.860  0.00  0.00    +0.111 A 
ENDBRANCH   4   3
ENDBRANCH  10   9
BRANCH  12  13
ATOM     13  N   UNL     1      16.264  22.976   7.200  0.00  0.00    -0.281 N 
ATOM     14  C   UNL     1      17.000  22.312   6.233  0.00  0.00    +0.248 C 
ATOM     30  O   UNL     1      16.778  21.170   5.858  0.00  0.00    -0.270 OA
ATOM     31  H   UNL     1      16.670  23.841   7.557  0.00  0.00    +0.155 HD
BRANCH  14  15
ATOM     15  C   UNL     1      18.161  23.011   5.601  0.00  0.00    +0.037 A 
ATOM     16  C   UNL     1      17.986  24.276   4.883  0.00  0.00    +0.013 A 
ATOM     17  C   UNL     1      19.119  24.921   4.268  0.00  0.00    +0.005 A 
ATOM     18  C   UNL     1      20.438  24.302   4.370  0.00  0.00    -0.033 A 
ATOM     28  C   UNL     1      20.584  23.049   5.093  0.00  0.00    +0.005 A 
ATOM     29  C   UNL     1      19.475  22.414   5.696  0.00  0.00    +0.013 A 
BRANCH  18  19
ATOM     19  C   UNL     1      21.699  24.909   3.727  0.00  0.00    +0.119 C 
BRANCH  19  20
ATOM     20  N   UNL     1      22.094  24.397   2.381  0.00  0.00    -0.302 NA
ATOM     21  C   UNL     1      23.369  23.552   2.439  0.00  0.00    +0.066 C 
ATOM     22  C   UNL     1      23.755  23.006   1.025  0.00  0.00    -0.064 C 
ATOM     23  N   UNL     1      23.926  24.179   0.058  0.00  0.00    +0.379 N 
ATOM     24  C   UNL     1      24.346  23.673  -1.257  0.00  0.00    -0.096 C 
ATOM     25  H   UNL     1      24.747  24.823   0.451  0.00  0.00    -0.082 HD
ATOM     26  C   UNL     1      22.664  25.027  -0.003  0.00  0.00    -0.064 C 
ATOM     27  C   UNL     1      22.273  25.539   1.411  0.00  0.00    +0.066 C 
ENDBRANCH  19  20
ENDBRANCH  18  19
ENDBRANCH  14  15
ENDBRANCH  12  13
TORSDOF 6
ENDMDL
