MODEL 1
REMARK VINA RESULT:     -11.9      0.000      0.000
REMARK  Name = C:\Users\Docking\Desktop\test protocol\1iep_ligandH.pdb
REMARK  8 active torsions:
REMARK  status: ('A' for Active; 'I' for Inactive)
REMARK    1  A    between atoms: _5  and  _11
REMARK    2  A    between atoms: _19  and  _21
REMARK    3  A    between atoms: _22  and  _66
REMARK    4  A    between atoms: _27  and  _30
REMARK    5  A    between atoms: _32  and  _33
REMARK    6  A    between atoms: _38  and  _43
REMARK    7  A    between atoms: _43  and  _46
REMARK    8  A    between atoms: _53  and  _55
REMARK                            x       y       z     vdW  Elec       q    Type
REMARK                         _______ _______ _______ _____ _____    ______ ____
ROOT
ATOM     10  C   UNL     1      24.428  -2.594  20.813  0.00  0.00    +0.038 A 
ATOM     11  C   UNL     1      23.532  -1.497  20.870  0.00  0.00    +0.047 A 
ATOM     12  C   UNL     1      23.587  -0.429  19.883  0.00  0.00    +0.035 A 
ATOM     32  C   UNL     1      24.566  -0.513  18.851  0.00  0.00    +0.024 A 
ATOM     33  C   UNL     1      25.485  -1.621  18.779  0.00  0.00    +0.007 A 
ATOM     34  C   UNL     1      25.438  -2.675  19.751  0.00  0.00    -0.029 A 
ATOM     35  C   UNL     1      26.453  -3.836  19.629  0.00  0.00    +0.045 C 
ENDROOT
BRANCH  10   9
ATOM      4  C   UNL     1      22.706  -6.769  22.438  0.00  0.00    +0.077 A 
ATOM      5  C   UNL     1      21.912  -6.968  21.260  0.00  0.00    +0.048 A 
ATOM      6  C   UNL     1      21.969  -5.969  20.263  0.00  0.00    +0.116 A 
ATOM      7  N   UNL     1      22.765  -4.858  20.441  0.00  0.00    -0.223 NA
ATOM      8  C   UNL     1      23.518  -4.696  21.590  0.00  0.00    +0.220 A 
ATOM      9  N   UNL     1      24.331  -3.591  21.787  0.00  0.00    -0.283 N 
ATOM     36  H   UNL     1      24.865  -3.506  22.651  0.00  0.00    +0.155 HD
ATOM     37  N   UNL     1      23.479  -5.636  22.558  0.00  0.00    -0.214 NA
BRANCH   4   3
ATOM      1  C   UNL     1      23.387  -9.953  24.607  0.00  0.00    +0.020 A 
ATOM      2  C   UNL     1      23.367  -9.056  23.474  0.00  0.00    +0.013 A 
ATOM      3  C   UNL     1      22.755  -7.737  23.579  0.00  0.00    +0.019 A 
ATOM     38  C   UNL     1      22.168  -7.354  24.855  0.00  0.00    +0.120 A 
ATOM     39  N   UNL     1      22.202  -8.239  25.927  0.00  0.00    -0.263 NA
ATOM     40  C   UNL     1      22.786  -9.511  25.838  0.00  0.00    +0.111 A 
ENDBRANCH   4   3
ENDBRANCH  10   9
BRANCH  12  13
ATOM     13  N   UNL     1      22.708   0.714  19.894  0.00  0.00    -0.281 N 
ATOM     14  C   UNL     1      21.863   1.149  18.886  0.00  0.00    +0.248 C 
ATOM     30  O   UNL     1      21.893   0.740  17.735  0.00  0.00    -0.270 OA
ATOM     31  H   UNL     1      22.709   1.271  20.749  0.00  0.00    +0.155 HD
BRANCH  14  15
ATOM     15  C   UNL     1      20.847   2.200  19.198  0.00  0.00    +0.037 A 
ATOM     16  C   UNL     1      21.230   3.460  19.841  0.00  0.00    +0.013 A 
ATOM     17  C   UNL     1      20.227   4.449  20.146  0.00  0.00    +0.005 A 
ATOM     18  C   UNL     1      18.831   4.183  19.808  0.00  0.00    -0.033 A 
ATOM     28  C   UNL     1      18.480   2.927  19.166  0.00  0.00    +0.005 A 
ATOM     29  C   UNL     1      19.460   1.954  18.866  0.00  0.00    +0.013 A 
BRANCH  18  19
ATOM     19  C   UNL     1      17.692   5.173  20.116  0.00  0.00    +0.119 C 
BRANCH  19  20
ATOM     20  N   UNL     1      17.665   6.447  19.338  0.00  0.00    -0.302 NA
ATOM     21  C   UNL     1      18.164   6.255  17.903  0.00  0.00    +0.066 C 
ATOM     22  C   UNL     1      18.107   7.593  17.097  0.00  0.00    -0.064 C 
ATOM     23  N   UNL     1      18.934   8.657  17.820  0.00  0.00    +0.379 N 
ATOM     24  C   UNL     1      18.931   9.900  17.035  0.00  0.00    -0.096 C 
ATOM     25  H   UNL     1      19.986   8.292  17.870  0.00  0.00    -0.082 HD
ATOM     26  C   UNL     1      18.446   8.853  19.249  0.00  0.00    -0.064 C 
ATOM     27  C   UNL     1      18.479   7.511  20.033  0.00  0.00    +0.066 C 
ENDBRANCH  19  20
ENDBRANCH  18  19
ENDBRANCH  14  15
ENDBRANCH  12  13
TORSDOF 6
ENDMDL
MODEL 2
REMARK VINA RESULT:     -11.9      6.052      6.777
REMARK  Name = C:\Users\Docking\Desktop\test protocol\1iep_ligandH.pdb
REMARK  8 active torsions:
REMARK  status: ('A' for Active; 'I' for Inactive)
REMARK    1  A    between atoms: _5  and  _11
REMARK    2  A    between atoms: _19  and  _21
REMARK    3  A    between atoms: _22  and  _66
REMARK    4  A    between atoms: _27  and  _30
REMARK    5  A    between atoms: _32  and  _33
REMARK    6  A    between atoms: _38  and  _43
REMARK    7  A    between atoms: _43  and  _46
REMARK    8  A    between atoms: _53  and  _55
REMARK                            x       y       z     vdW  Elec       q    Type
REMARK                         _______ _______ _______ _____ _____    ______ ____
ROOT
ATOM     10  C   UNL     1      22.937  -2.113  18.736  0.00  0.00    +0.038 A 
ATOM     11  C   UNL     1      22.010  -2.099  17.663  0.00  0.00    +0.047 A 
ATOM     12  C   UNL     1      22.203  -1.228  16.514  0.00  0.00    +0.035 A 
ATOM     32  C   UNL     1      23.353  -0.386  16.490  0.00  0.00    +0.024 A 
ATOM     33  C   UNL     1      24.305  -0.387  17.572  0.00  0.00    +0.007 A 
ATOM     34  C   UNL     1      24.119  -1.242  18.710  0.00  0.00    -0.029 A 
ATOM     35  C   UNL     1      25.168  -1.197  19.844  0.00  0.00    +0.045 C 
ENDROOT
BRANCH  10   9
ATOM      4  C   UNL     1      23.673  -6.211  21.125  0.00  0.00    +0.077 A 
ATOM      5  C   UNL     1      24.580  -6.699  20.127  0.00  0.00    +0.048 A 
ATOM      6  C   UNL     1      24.824  -5.868  19.010  0.00  0.00    +0.116 A 
ATOM      7  N   UNL     1      24.203  -4.642  18.911  0.00  0.00    -0.223 NA
ATOM      8  C   UNL     1      23.333  -4.202  19.891  0.00  0.00    +0.220 A 
ATOM      9  N   UNL     1      22.703  -2.969  19.815  0.00  0.00    -0.283 N 
ATOM     36  H   UNL     1      22.062  -2.684  20.555  0.00  0.00    +0.155 HD
ATOM     37  N   UNL     1      23.081  -4.978  20.966  0.00  0.00    -0.214 NA
BRANCH   4   3
ATOM      1  C   UNL     1      23.490  -8.975  23.887  0.00  0.00    +0.020 A 
ATOM      2  C   UNL     1      23.868  -8.283  22.676  0.00  0.00    +0.013 A 
ATOM      3  C   UNL     1      23.315  -6.971  22.364  0.00  0.00    +0.019 A 
ATOM     38  C   UNL     1      22.375  -6.383  23.306  0.00  0.00    +0.120 A 
ATOM     39  N   UNL     1      22.028  -7.073  24.463  0.00  0.00    -0.263 NA
ATOM     40  C   UNL     1      22.553  -8.337  24.773  0.00  0.00    +0.111 A 
ENDBRANCH   4   3
ENDBRANCH  10   9
BRANCH  12  13
ATOM     13  N   UNL     1      21.291  -1.164  15.399  0.00  0.00    -0.281 N 
ATOM     14  C   UNL     1      20.001  -0.659  15.381  0.00  0.00    +0.248 C 
ATOM     30  O   UNL     1      19.355  -0.377  16.380  0.00  0.00    -0.270 OA
ATOM     31  H   UNL     1      21.639  -1.537  14.515  0.00  0.00    +0.155 HD
BRANCH  14  15
ATOM     15  C   UNL     1      19.326  -0.449  14.064  0.00  0.00    +0.037 A 
ATOM     16  C   UNL     1      18.448   0.701  13.835  0.00  0.00    +0.013 A 
ATOM     17  C   UNL     1      17.796   0.871  12.561  0.00  0.00    +0.005 A 
ATOM     18  C   UNL     1      18.021  -0.113  11.505  0.00  0.00    -0.033 A 
ATOM     28  C   UNL     1      18.901  -1.242  11.757  0.00  0.00    +0.005 A 
ATOM     29  C   UNL     1      19.541  -1.412  13.005  0.00  0.00    +0.013 A 
BRANCH  18  19
ATOM     19  C   UNL     1      17.349  -0.024  10.122  0.00  0.00    +0.119 C 
BRANCH  19  20
ATOM     20  N   UNL     1      18.170   0.516   8.997  0.00  0.00    -0.302 NA
ATOM     21  C   UNL     1      19.430   1.229   9.496  0.00  0.00    +0.066 C 
ATOM     22  C   UNL     1      20.288   1.768   8.305  0.00  0.00    -0.064 C 
ATOM     23  N   UNL     1      19.437   2.707   7.450  0.00  0.00    +0.379 N 
ATOM     24  C   UNL     1      20.257   3.261   6.363  0.00  0.00    -0.096 C 
ATOM     25  H   UNL     1      19.116   3.556   8.097  0.00  0.00    -0.082 HD
ATOM     26  C   UNL     1      18.181   2.006   6.952  0.00  0.00    -0.064 C 
ATOM     27  C   UNL     1      17.350   1.450   8.141  0.00  0.00    +0.066 C 
ENDBRANCH  19  20
ENDBRANCH  18  19
ENDBRANCH  14  15
ENDBRANCH  12  13
TORSDOF 6
ENDMDL
MODEL 3
REMARK VINA RESULT:     -11.9      3.044      5.543
REMARK  Name = C:\Users\Docking\Desktop\test protocol\1iep_ligandH.pdb
REMARK  8 active torsions:
REMARK  status: ('A' for Active; 'I' for Inactive)
REMARK    1  A    between atoms: _5  and  _11
REMARK    2  A    between atoms: _19  and  _21
REMARK    3  A    between atoms: _22  and  _66
REMARK    4  A    between atoms: _27  and  _30
REMARK    5  A    between atoms: _32  and  _33
REMARK    6  A    between atoms: _38  and  _43
REMARK    7  A    between atoms: _43  and  _46
REMARK    8  A    between atoms: _53  and  _55
REMARK                            x       y       z     vdW  Elec       q    Type
REMARK                         _______ _______ _______ _____ _____    ______ ____
ROOT
ATOM     10  C   UNL     1      24.192  -7.398  20.104  0.00  0.00    +0.038 A 
ATOM     11  C   UNL     1      24.387  -6.005  20.290  0.00  0.00    +0.047 A 
ATOM     12  C   UNL     1      23.630  -5.030  19.523  0.00  0.00    +0.035 A 
ATOM     32  C   UNL     1      22.678  -5.507  18.575  0.00  0.00    +0.024 A 
ATOM     33  C   UNL     1      22.467  -6.919  18.372  0.00  0.00    +0.007 A 
ATOM     34  C   UNL     1      23.214  -7.886  19.125  0.00  0.00    -0.029 A 
ATOM     35  C   UNL     1      22.951  -9.387  18.861  0.00  0.00    +0.045 C 
ENDROOT
BRANCH  10   9
ATOM      4  C   UNL     1      24.986  -9.918  24.111  0.00  0.00    +0.077 A 
ATOM      5  C   UNL     1      23.812  -9.392  24.745  0.00  0.00    +0.048 A 
ATOM      6  C   UNL     1      23.034  -8.470  24.009  0.00  0.00    +0.116 A 
ATOM      7  N   UNL     1      23.413  -8.108  22.734  0.00  0.00    -0.223 NA
ATOM      8  C   UNL     1      24.552  -8.634  22.152  0.00  0.00    +0.220 A 
ATOM      9  N   UNL     1      24.947  -8.290  20.869  0.00  0.00    -0.283 N 
ATOM     36  H   UNL     1      25.798  -8.694  20.478  0.00  0.00    +0.155 HD
ATOM     37  N   UNL     1      25.312  -9.515  22.835  0.00  0.00    -0.214 NA
BRANCH   4   3
ATOM      1  C   UNL     1      28.046 -12.239  24.852  0.00  0.00    +0.020 A 
ATOM      2  C   UNL     1      27.193 -11.282  24.186  0.00  0.00    +0.013 A 
ATOM      3  C   UNL     1      25.907 -10.905  24.759  0.00  0.00    +0.019 A 
ATOM     38  C   UNL     1      25.511 -11.518  26.017  0.00  0.00    +0.120 A 
ATOM     39  N   UNL     1      26.353 -12.438  26.635  0.00  0.00    -0.263 NA
ATOM     40  C   UNL     1      27.592 -12.810  26.093  0.00  0.00    +0.111 A 
ENDBRANCH   4   3
ENDBRANCH  10   9
BRANCH  12  13
ATOM     13  N   UNL     1      23.791  -3.604  19.663  0.00  0.00    -0.281 N 
ATOM     14  C   UNL     1      24.841  -2.818  19.217  0.00  0.00    +0.248 C 
ATOM     30  O   UNL     1      25.909  -3.254  18.814  0.00  0.00    -0.270 OA
ATOM     31  H   UNL     1      23.040  -3.115  20.150  0.00  0.00    +0.155 HD
BRANCH  14  15
ATOM     15  C   UNL     1      24.687  -1.331  19.234  0.00  0.00    +0.037 A 
ATOM     16  C   UNL     1      25.116  -0.510  18.099  0.00  0.00    +0.013 A 
ATOM     17  C   UNL     1      24.972   0.924  18.148  0.00  0.00    +0.005 A 
ATOM     18  C   UNL     1      24.395   1.545  19.337  0.00  0.00    -0.033 A 
ATOM     28  C   UNL     1      23.973   0.706  20.447  0.00  0.00    +0.005 A 
ATOM     29  C   UNL     1      24.113  -0.699  20.403  0.00  0.00    +0.013 A 
BRANCH  18  19
ATOM     19  C   UNL     1      24.223   3.069  19.485  0.00  0.00    +0.119 C 
BRANCH  19  20
ATOM     20  N   UNL     1      22.883   3.567  19.917  0.00  0.00    -0.302 NA
ATOM     21  C   UNL     1      22.750   3.610  21.442  0.00  0.00    +0.066 C 
ATOM     22  C   UNL     1      21.350   4.155  21.876  0.00  0.00    -0.064 C 
ATOM     23  N   UNL     1      20.254   3.284  21.260  0.00  0.00    +0.379 N 
ATOM     24  C   UNL     1      18.938   3.759  21.713  0.00  0.00    -0.096 C 
ATOM     25  H   UNL     1      20.390   2.247  21.645  0.00  0.00    -0.082 HD
ATOM     26  C   UNL     1      20.381   3.233  19.744  0.00  0.00    -0.064 C 
ATOM     27  C   UNL     1      21.785   2.718  19.324  0.00  0.00    +0.066 C 
ENDBRANCH  19  20
ENDBRANCH  18  19
ENDBRANCH  14  15
ENDBRANCH  12  13
TORSDOF 6
ENDMDL
MODEL 4
REMARK VINA RESULT:     -11.8      5.365      8.126
REMARK  Name = C:\Users\Docking\Desktop\test protocol\1iep_ligandH.pdb
REMARK  8 active torsions:
REMARK  status: ('A' for Active; 'I' for Inactive)
REMARK    1  A    between atoms: _5  and  _11
REMARK    2  A    between atoms: _19  and  _21
REMARK    3  A    between atoms: _22  and  _66
REMARK    4  A    between atoms: _27  and  _30
REMARK    5  A    between atoms: _32  and  _33
REMARK    6  A    between atoms: _38  and  _43
REMARK    7  A    between atoms: _43  and  _46
REMARK    8  A    between atoms: _53  and  _55
REMARK                            x       y       z     vdW  Elec       q    Type
REMARK                         _______ _______ _______ _____ _____    ______ ____
ROOT
ATOM     10  C   UNL     1      23.527  -9.584  20.429  0.00  0.00    +0.038 A 
ATOM     11  C   UNL     1      23.735  -8.234  20.046  0.00  0.00    +0.047 A 
ATOM     12  C   UNL     1      23.531  -7.145  20.989  0.00  0.00    +0.035 A 
ATOM     32  C   UNL     1      23.118  -7.468  22.314  0.00  0.00    +0.024 A 
ATOM     33  C   UNL     1      22.901  -8.834  22.720  0.00  0.00    +0.007 A 
ATOM     34  C   UNL     1      23.099  -9.912  21.794  0.00  0.00    -0.029 A 
ATOM     35  C   UNL     1      22.845 -11.358  22.281  0.00  0.00    +0.045 C 
ENDROOT
BRANCH  10   9
ATOM      4  C   UNL     1      26.386 -12.582  18.004  0.00  0.00    +0.077 A 
ATOM      5  C   UNL     1      27.562 -12.083  18.656  0.00  0.00    +0.048 A 
ATOM      6  C   UNL     1      27.389 -11.050  19.605  0.00  0.00    +0.116 A 
ATOM      7  N   UNL     1      26.129 -10.560  19.872  0.00  0.00    -0.223 NA
ATOM      8  C   UNL     1      25.016 -11.062  19.224  0.00  0.00    +0.220 A 
ATOM      9  N   UNL     1      23.738 -10.590  19.483  0.00  0.00    -0.283 N 
ATOM     36  H   UNL     1      22.944 -10.982  18.978  0.00  0.00    +0.155 HD
ATOM     37  N   UNL     1      25.155 -12.048  18.313  0.00  0.00    -0.214 NA
BRANCH   4   3
ATOM      1  C   UNL     1      27.439 -14.889  15.025  0.00  0.00    +0.020 A 
ATOM      2  C   UNL     1      27.467 -13.815  15.992  0.00  0.00    +0.013 A 
ATOM      3  C   UNL     1      26.405 -13.674  16.980  0.00  0.00    +0.019 A 
ATOM     38  C   UNL     1      25.321 -14.645  16.965  0.00  0.00    +0.120 A 
ATOM     39  N   UNL     1      25.320 -15.668  16.021  0.00  0.00    -0.263 NA
ATOM     40  C   UNL     1      26.335 -15.812  15.064  0.00  0.00    +0.111 A 
ENDBRANCH   4   3
ENDBRANCH  10   9
BRANCH  12  13
ATOM     13  N   UNL     1      23.718  -5.755  20.655  0.00  0.00    -0.281 N 
ATOM     14  C   UNL     1      24.787  -5.174  19.994  0.00  0.00    +0.248 C 
ATOM     30  O   UNL     1      25.851  -5.734  19.776  0.00  0.00    -0.270 OA
ATOM     31  H   UNL     1      22.971  -5.122  20.941  0.00  0.00    +0.155 HD
BRANCH  14  15
ATOM     15  C   UNL     1      24.662  -3.763  19.519  0.00  0.00    +0.037 A 
ATOM     16  C   UNL     1      25.599  -2.726  19.961  0.00  0.00    +0.013 A 
ATOM     17  C   UNL     1      25.445  -1.369  19.500  0.00  0.00    +0.005 A 
ATOM     18  C   UNL     1      24.351  -1.041  18.590  0.00  0.00    -0.033 A 
ATOM     28  C   UNL     1      23.439  -2.090  18.163  0.00  0.00    +0.005 A 
ATOM     29  C   UNL     1      23.586  -3.421  18.613  0.00  0.00    +0.013 A 
BRANCH  18  19
ATOM     19  C   UNL     1      24.098   0.385  18.065  0.00  0.00    +0.119 C 
BRANCH  19  20
ATOM     20  N   UNL     1      23.059   1.197  18.765  0.00  0.00    -0.302 NA
ATOM     21  C   UNL     1      21.761   1.288  17.958  0.00  0.00    +0.066 C 
ATOM     22  C   UNL     1      20.677   2.122  18.715  0.00  0.00    -0.064 C 
ATOM     23  N   UNL     1      21.228   3.518  19.012  0.00  0.00    +0.379 N 
ATOM     24  C   UNL     1      20.190   4.324  19.672  0.00  0.00    -0.096 C 
ATOM     25  H   UNL     1      21.464   4.003  18.037  0.00  0.00    -0.082 HD
ATOM     26  C   UNL     1      22.520   3.437  19.812  0.00  0.00    -0.064 C 
ATOM     27  C   UNL     1      23.580   2.581  19.065  0.00  0.00    +0.066 C 
ENDBRANCH  19  20
ENDBRANCH  18  19
ENDBRANCH  14  15
ENDBRANCH  12  13
TORSDOF 6
ENDMDL
MODEL 5
REMARK VINA RESULT:     -11.7      6.549     14.995
REMARK  Name = C:\Users\Docking\Desktop\test protocol\1iep_ligandH.pdb
REMARK  8 active torsions:
REMARK  status: ('A' for Active; 'I' for Inactive)
REMARK    1  A    between atoms: _5  and  _11
REMARK    2  A    between atoms: _19  and  _21
REMARK    3  A    between atoms: _22  and  _66
REMARK    4  A    between atoms: _27  and  _30
REMARK    5  A    between atoms: _32  and  _33
REMARK    6  A    between atoms: _38  and  _43
REMARK    7  A    between atoms: _43  and  _46
REMARK    8  A    between atoms: _53  and  _55
REMARK                            x       y       z     vdW  Elec       q    Type
REMARK                         _______ _______ _______ _____ _____    ______ ____
ROOT
ATOM     10  C   UNL     1      23.960  -6.269  21.851  0.00  0.00    +0.038 A 
ATOM     11  C   UNL     1      24.893  -7.191  21.309  0.00  0.00    +0.047 A 
ATOM     12  C   UNL     1      24.724  -8.624  21.487  0.00  0.00    +0.035 A 
ATOM     32  C   UNL     1      23.592  -9.086  22.220  0.00  0.00    +0.024 A 
ATOM     33  C   UNL     1      22.635  -8.164  22.779  0.00  0.00    +0.007 A 
ATOM     34  C   UNL     1      22.798  -6.748  22.609  0.00  0.00    -0.029 A 
ATOM     35  C   UNL     1      21.744  -5.805  23.236  0.00  0.00    +0.045 C 
ENDROOT
BRANCH  10   9
ATOM      4  C   UNL     1      23.790  -2.315  19.137  0.00  0.00    +0.077 A 
ATOM      5  C   UNL     1      23.262  -3.036  18.015  0.00  0.00    +0.048 A 
ATOM      6  C   UNL     1      23.055  -4.424  18.175  0.00  0.00    +0.116 A 
ATOM      7  N   UNL     1      23.357  -5.035  19.373  0.00  0.00    -0.223 NA
ATOM      8  C   UNL     1      23.867  -4.311  20.435  0.00  0.00    +0.220 A 
ATOM      9  N   UNL     1      24.171  -4.903  21.651  0.00  0.00    -0.283 N 
ATOM     36  H   UNL     1      24.552  -4.336  22.407  0.00  0.00    +0.155 HD
ATOM     37  N   UNL     1      24.075  -2.984  20.306  0.00  0.00    -0.214 NA
BRANCH   4   3
ATOM      1  C   UNL     1      25.115   1.229  18.142  0.00  0.00    +0.020 A 
ATOM      2  C   UNL     1      24.885  -0.197  18.109  0.00  0.00    +0.013 A 
ATOM      3  C   UNL     1      24.061  -0.842  19.124  0.00  0.00    +0.019 A 
ATOM     38  C   UNL     1      23.479  -0.009  20.165  0.00  0.00    +0.120 A 
ATOM     39  N   UNL     1      23.719   1.361  20.172  0.00  0.00    -0.263 NA
ATOM     40  C   UNL     1      24.512   1.993  19.202  0.00  0.00    +0.111 A 
ENDBRANCH   4   3
ENDBRANCH  10   9
BRANCH  12  13
ATOM     13  N   UNL     1      25.642  -9.607  20.966  0.00  0.00    -0.281 N 
ATOM     14  C   UNL     1      25.452 -10.469  19.898  0.00  0.00    +0.248 C 
ATOM     30  O   UNL     1      24.375 -10.674  19.359  0.00  0.00    -0.270 OA
ATOM     31  H   UNL     1      26.541  -9.675  21.443  0.00  0.00    +0.155 HD
BRANCH  14  15
ATOM     15  C   UNL     1      26.626 -11.222  19.361  0.00  0.00    +0.037 A 
ATOM     16  C   UNL     1      26.491 -12.118  18.210  0.00  0.00    +0.013 A 
ATOM     17  C   UNL     1      27.636 -12.846  17.722  0.00  0.00    +0.005 A 
ATOM     18  C   UNL     1      28.926 -12.679  18.386  0.00  0.00    -0.033 A 
ATOM     28  C   UNL     1      29.033 -11.780  19.523  0.00  0.00    +0.005 A 
ATOM     29  C   UNL     1      27.913 -11.066  20.004  0.00  0.00    +0.013 A 
BRANCH  18  19
ATOM     19  C   UNL     1      30.196 -13.433  17.946  0.00  0.00    +0.119 C 
BRANCH  19  20
ATOM     20  N   UNL     1      31.510 -12.782  18.230  0.00  0.00    -0.302 NA
ATOM     21  C   UNL     1      31.880 -11.746  17.164  0.00  0.00    +0.066 C 
ATOM     22  C   UNL     1      33.246 -11.059  17.489  0.00  0.00    -0.064 C 
ATOM     23  N   UNL     1      34.335 -12.126  17.609  0.00  0.00    +0.379 N 
ATOM     24  C   UNL     1      35.632 -11.479  17.856  0.00  0.00    -0.096 C 
ATOM     25  H   UNL     1      34.402 -12.653  16.628  0.00  0.00    -0.082 HD
ATOM     26  C   UNL     1      33.974 -13.161  18.664  0.00  0.00    -0.064 C 
ATOM     27  C   UNL     1      32.601 -13.817  18.348  0.00  0.00    +0.066 C 
ENDBRANCH  19  20
ENDBRANCH  18  19
ENDBRANCH  14  15
ENDBRANCH  12  13
TORSDOF 6
ENDMDL
