MODEL 1
REMARK VINA RESULT:      -8.1      0.000      0.000
REMARK  Name = C:\Users\Docking\Desktop\test protocol\1iep_ligandH.pdb
REMARK  8 active torsions:
REMARK  status: ('A' for Active; 'I' for Inactive)
REMARK    1  A    between atoms: _5  and  _11
REMARK    2  A    between atoms: _19  and  _21
REMARK    3  A    between atoms: _22  and  _66
REMARK    4  A    between atoms: _27  and  _30
REMARK    5  A    between atoms: _32  and  _33
REMARK    6  A    between atoms: _38  and  _43
REMARK    7  A    between atoms: _43  and  _46
REMARK    8  A    between atoms: _53  and  _55
REMARK                            x       y       z     vdW  Elec       q    Type
REMARK                         _______ _______ _______ _____ _____    ______ ____
ROOT
ATOM     10  C   UNL     1      20.172   5.438  12.902  0.00  0.00    +0.038 A 
ATOM     11  C   UNL     1      19.707   4.150  13.271  0.00  0.00    +0.047 A 
ATOM     12  C   UNL     1      20.159   3.508  14.495  0.00  0.00    +0.035 A 
ATOM     32  C   UNL     1      21.085   4.208  15.322  0.00  0.00    +0.024 A 
ATOM     33  C   UNL     1      21.569   5.518  14.963  0.00  0.00    +0.007 A 
ATOM     34  C   UNL     1      21.127   6.155  13.755  0.00  0.00    -0.029 A 
ATOM     35  C   UNL     1      21.684   7.557  13.417  0.00  0.00    +0.045 C 
ENDROOT
BRANCH  10   9
ATOM      4  C   UNL     1      20.705   6.642   8.287  0.00  0.00    +0.077 A 
ATOM      5  C   UNL     1      22.039   6.116   8.242  0.00  0.00    +0.048 A 
ATOM      6  C   UNL     1      22.553   5.550   9.431  0.00  0.00    +0.116 A 
ATOM      7  N   UNL     1      21.782   5.518  10.572  0.00  0.00    -0.223 NA
ATOM      8  C   UNL     1      20.500   6.036  10.581  0.00  0.00    +0.220 A 
ATOM      9  N   UNL     1      19.704   6.008  11.716  0.00  0.00    -0.283 N 
ATOM     36  H   UNL     1      18.766   6.406  11.684  0.00  0.00    +0.155 HD
ATOM     37  N   UNL     1      19.986   6.583   9.460  0.00  0.00    -0.214 NA
BRANCH   4   3
ATOM      1  C   UNL     1      19.971   8.802   5.110  0.00  0.00    +0.020 A 
ATOM      2  C   UNL     1      20.677   8.227   6.231  0.00  0.00    +0.013 A 
ATOM      3  C   UNL     1      20.021   7.268   7.112  0.00  0.00    +0.019 A 
ATOM     38  C   UNL     1      18.640   6.909   6.826  0.00  0.00    +0.120 A 
ATOM     39  N   UNL     1      17.985   7.480   5.739  0.00  0.00    -0.263 NA
ATOM     40  C   UNL     1      18.606   8.405   4.887  0.00  0.00    +0.111 A 
ENDBRANCH   4   3
ENDBRANCH  10   9
BRANCH  12  13
ATOM     13  N   UNL     1      19.728   2.198  14.916  0.00  0.00    -0.281 N 
ATOM     14  C   UNL     1      20.480   1.036  14.989  0.00  0.00    +0.248 C 
ATOM     30  O   UNL     1      21.590   0.900  14.496  0.00  0.00    -0.270 OA
ATOM     31  H   UNL     1      18.750   2.117  15.195  0.00  0.00    +0.155 HD
BRANCH  14  15
ATOM     15  C   UNL     1      19.910  -0.149  15.698  0.00  0.00    +0.037 A 
ATOM     16  C   UNL     1      20.668  -1.396  15.824  0.00  0.00    +0.013 A 
ATOM     17  C   UNL     1      20.088  -2.530  16.499  0.00  0.00    +0.005 A 
ATOM     18  C   UNL     1      18.742  -2.421  17.055  0.00  0.00    -0.033 A 
ATOM     28  C   UNL     1      18.014  -1.170  16.921  0.00  0.00    +0.005 A 
ATOM     29  C   UNL     1      18.579  -0.057  16.259  0.00  0.00    +0.013 A 
BRANCH  18  19
ATOM     19  C   UNL     1      18.036  -3.587  17.773  0.00  0.00    +0.119 C 
BRANCH  19  20
ATOM     20  N   UNL     1      17.293  -3.268  19.028  0.00  0.00    -0.302 NA
ATOM     21  C   UNL     1      17.740  -4.147  20.200  0.00  0.00    +0.066 C 
ATOM     22  C   UNL     1      16.969  -3.784  21.510  0.00  0.00    -0.064 C 
ATOM     23  N   UNL     1      15.465  -3.926  21.269  0.00  0.00    +0.379 N 
ATOM     24  C   UNL     1      14.739  -3.642  22.516  0.00  0.00    -0.096 C 
ATOM     25  H   UNL     1      15.265  -4.989  20.996  0.00  0.00    -0.082 HD
ATOM     26  C   UNL     1      15.012  -3.058  20.104  0.00  0.00    -0.064 C 
ATOM     27  C   UNL     1      15.806  -3.406  18.814  0.00  0.00    +0.066 C 
ENDBRANCH  19  20
ENDBRANCH  18  19
ENDBRANCH  14  15
ENDBRANCH  12  13
TORSDOF 6
ENDMDL
MODEL 2
REMARK VINA RESULT:      -7.9      3.068     14.071
REMARK  Name = C:\Users\Docking\Desktop\test protocol\1iep_ligandH.pdb
REMARK  8 active torsions:
REMARK  status: ('A' for Active; 'I' for Inactive)
REMARK    1  A    between atoms: _5  and  _11
REMARK    2  A    between atoms: _19  and  _21
REMARK    3  A    between atoms: _22  and  _66
REMARK    4  A    between atoms: _27  and  _30
REMARK    5  A    between atoms: _32  and  _33
REMARK    6  A    between atoms: _38  and  _43
REMARK    7  A    between atoms: _43  and  _46
REMARK    8  A    between atoms: _53  and  _55
REMARK                            x       y       z     vdW  Elec       q    Type
REMARK                         _______ _______ _______ _____ _____    ______ ____
ROOT
ATOM     10  C   UNL     1      21.105   3.899  12.314  0.00  0.00    +0.038 A 
ATOM     11  C   UNL     1      20.384   4.704  11.395  0.00  0.00    +0.047 A 
ATOM     12  C   UNL     1      21.073   5.565  10.447  0.00  0.00    +0.035 A 
ATOM     32  C   UNL     1      22.498   5.580  10.460  0.00  0.00    +0.024 A 
ATOM     33  C   UNL     1      23.247   4.768  11.387  0.00  0.00    +0.007 A 
ATOM     34  C   UNL     1      22.573   3.919  12.326  0.00  0.00    -0.029 A 
ATOM     35  C   UNL     1      23.426   3.076  13.302  0.00  0.00    +0.045 C 
ENDROOT
BRANCH  10   9
ATOM      4  C   UNL     1      19.171   3.022  16.618  0.00  0.00    +0.077 A 
ATOM      5  C   UNL     1      19.644   4.268  17.150  0.00  0.00    +0.048 A 
ATOM      6  C   UNL     1      20.387   5.103  16.285  0.00  0.00    +0.116 A 
ATOM      7  N   UNL     1      20.632   4.710  14.987  0.00  0.00    -0.223 NA
ATOM      8  C   UNL     1      20.164   3.502  14.506  0.00  0.00    +0.220 A 
ATOM      9  N   UNL     1      20.392   3.091  13.202  0.00  0.00    -0.283 N 
ATOM     36  H   UNL     1      20.036   2.189  12.888  0.00  0.00    +0.155 HD
ATOM     37  N   UNL     1      19.453   2.686  15.313  0.00  0.00    -0.214 NA
BRANCH   4   3
ATOM      1  C   UNL     1      16.645   1.436  19.149  0.00  0.00    +0.020 A 
ATOM      2  C   UNL     1      17.394   2.430  18.415  0.00  0.00    +0.013 A 
ATOM      3  C   UNL     1      18.369   2.034  17.407  0.00  0.00    +0.019 A 
ATOM     38  C   UNL     1      18.564   0.613  17.163  0.00  0.00    +0.120 A 
ATOM     39  N   UNL     1      17.830  -0.322  17.886  0.00  0.00    -0.263 NA
ATOM     40  C   UNL     1      16.890   0.048  18.860  0.00  0.00    +0.111 A 
ENDBRANCH   4   3
ENDBRANCH  10   9
BRANCH  12  13
ATOM     13  N   UNL     1      20.394   6.411   9.496  0.00  0.00    -0.281 N 
ATOM     14  C   UNL     1      20.648   6.544   8.141  0.00  0.00    +0.248 C 
ATOM     30  O   UNL     1      21.644   6.112   7.579  0.00  0.00    -0.270 OA
ATOM     31  H   UNL     1      19.634   6.980   9.868  0.00  0.00    +0.155 HD
BRANCH  14  15
ATOM     15  C   UNL     1      19.661   7.275   7.290  0.00  0.00    +0.037 A 
ATOM     16  C   UNL     1      18.262   6.849   7.213  0.00  0.00    +0.013 A 
ATOM     17  C   UNL     1      17.334   7.561   6.370  0.00  0.00    +0.005 A 
ATOM     18  C   UNL     1      17.804   8.709   5.599  0.00  0.00    -0.033 A 
ATOM     28  C   UNL     1      19.196   9.114   5.698  0.00  0.00    +0.005 A 
ATOM     29  C   UNL     1      20.109   8.417   6.522  0.00  0.00    +0.013 A 
BRANCH  18  19
ATOM     19  C   UNL     1      16.889   9.515   4.658  0.00  0.00    +0.119 C 
BRANCH  19  20
ATOM     20  N   UNL     1      17.376   9.751   3.266  0.00  0.00    -0.302 NA
ATOM     21  C   UNL     1      18.228  11.019   3.162  0.00  0.00    +0.066 C 
ATOM     22  C   UNL     1      18.748  11.238   1.704  0.00  0.00    -0.064 C 
ATOM     23  N   UNL     1      17.558  11.305   0.746  0.00  0.00    +0.379 N 
ATOM     24  C   UNL     1      18.041  11.568  -0.618  0.00  0.00    -0.096 C 
ATOM     25  H   UNL     1      16.924  12.169   1.053  0.00  0.00    -0.082 HD
ATOM     26  C   UNL     1      16.704  10.048   0.844  0.00  0.00    -0.064 C 
ATOM     27  C   UNL     1      16.217   9.824   2.303  0.00  0.00    +0.066 C 
ENDBRANCH  19  20
ENDBRANCH  18  19
ENDBRANCH  14  15
ENDBRANCH  12  13
TORSDOF 6
ENDMDL
MODEL 3
REMARK VINA RESULT:      -7.7      2.074     13.010
REMARK  Name = C:\Users\Docking\Desktop\test protocol\1iep_ligandH.pdb
REMARK  8 active torsions:
REMARK  status: ('A' for Active; 'I' for Inactive)
REMARK    1  A    between atoms: _5  and  _11
REMARK    2  A    between atoms: _19  and  _21
REMARK    3  A    between atoms: _22  and  _66
REMARK    4  A    between atoms: _27  and  _30
REMARK    5  A    between atoms: _32  and  _33
REMARK    6  A    between atoms: _38  and  _43
REMARK    7  A    between atoms: _43  and  _46
REMARK    8  A    between atoms: _53  and  _55
REMARK                            x       y       z     vdW  Elec       q    Type
REMARK                         _______ _______ _______ _____ _____    ______ ____
ROOT
ATOM     10  C   UNL     1      20.894   0.574  15.718  0.00  0.00    +0.038 A 
ATOM     11  C   UNL     1      20.555   1.473  14.674  0.00  0.00    +0.047 A 
ATOM     12  C   UNL     1      21.567   1.982  13.762  0.00  0.00    +0.035 A 
ATOM     32  C   UNL     1      22.914   1.553  13.939  0.00  0.00    +0.024 A 
ATOM     33  C   UNL     1      23.277   0.641  14.995  0.00  0.00    +0.007 A 
ATOM     34  C   UNL     1      22.284   0.137  15.900  0.00  0.00    -0.029 A 
ATOM     35  C   UNL     1      22.730  -0.834  17.018  0.00  0.00    +0.045 C 
ENDROOT
BRANCH  10   9
ATOM      4  C   UNL     1      17.255  -2.378  16.756  0.00  0.00    +0.077 A 
ATOM      5  C   UNL     1      17.360  -3.048  15.492  0.00  0.00    +0.048 A 
ATOM      6  C   UNL     1      18.359  -2.597  14.600  0.00  0.00    +0.116 A 
ATOM      7  N   UNL     1      19.186  -1.554  14.957  0.00  0.00    -0.223 NA
ATOM      8  C   UNL     1      19.057  -0.929  16.183  0.00  0.00    +0.220 A 
ATOM      9  N   UNL     1      19.883   0.117  16.565  0.00  0.00    -0.283 N 
ATOM     36  H   UNL     1      19.750   0.557  17.476  0.00  0.00    +0.155 HD
ATOM     37  N   UNL     1      18.109  -1.339  17.052  0.00  0.00    -0.214 NA
BRANCH   4   3
ATOM      1  C   UNL     1      14.077  -3.774  18.559  0.00  0.00    +0.020 A 
ATOM      2  C   UNL     1      15.012  -3.448  17.508  0.00  0.00    +0.013 A 
ATOM      3  C   UNL     1      16.251  -2.740  17.806  0.00  0.00    +0.019 A 
ATOM     38  C   UNL     1      16.516  -2.375  19.190  0.00  0.00    +0.120 A 
ATOM     39  N   UNL     1      15.596  -2.702  20.181  0.00  0.00    -0.263 NA
ATOM     40  C   UNL     1      14.399  -3.381  19.906  0.00  0.00    +0.111 A 
ENDBRANCH   4   3
ENDBRANCH  10   9
BRANCH  12  13
ATOM     13  N   UNL     1      21.283   2.903  12.689  0.00  0.00    -0.281 N 
ATOM     14  C   UNL     1      21.761   4.193  12.525  0.00  0.00    +0.248 C 
ATOM     30  O   UNL     1      22.339   4.831  13.392  0.00  0.00    -0.270 OA
ATOM     31  H   UNL     1      20.654   2.562  11.961  0.00  0.00    +0.155 HD
BRANCH  14  15
ATOM     15  C   UNL     1      21.553   4.879  11.214  0.00  0.00    +0.037 A 
ATOM     16  C   UNL     1      20.249   4.865  10.547  0.00  0.00    +0.013 A 
ATOM     17  C   UNL     1      20.080   5.520   9.274  0.00  0.00    +0.005 A 
ATOM     18  C   UNL     1      21.220   6.196   8.660  0.00  0.00    -0.033 A 
ATOM     28  C   UNL     1      22.502   6.199   9.346  0.00  0.00    +0.005 A 
ATOM     29  C   UNL     1      22.671   5.557  10.593  0.00  0.00    +0.013 A 
BRANCH  18  19
ATOM     19  C   UNL     1      21.137   6.903   7.294  0.00  0.00    +0.119 C 
BRANCH  19  20
ATOM     20  N   UNL     1      19.891   7.671   6.996  0.00  0.00    -0.302 NA
ATOM     21  C   UNL     1      18.768   6.766   6.482  0.00  0.00    +0.066 C 
ATOM     22  C   UNL     1      17.466   7.582   6.196  0.00  0.00    -0.064 C 
ATOM     23  N   UNL     1      17.772   8.691   5.188  0.00  0.00    +0.379 N 
ATOM     24  C   UNL     1      16.537   9.423   4.874  0.00  0.00    -0.096 C 
ATOM     25  H   UNL     1      18.126   8.205   4.249  0.00  0.00    -0.082 HD
ATOM     26  C   UNL     1      18.890   9.594   5.690  0.00  0.00    -0.064 C 
ATOM     27  C   UNL     1      20.171   8.769   5.999  0.00  0.00    +0.066 C 
ENDBRANCH  19  20
ENDBRANCH  18  19
ENDBRANCH  14  15
ENDBRANCH  12  13
TORSDOF 6
ENDMDL
MODEL 4
REMARK VINA RESULT:      -7.6      9.529     12.882
REMARK  Name = C:\Users\Docking\Desktop\test protocol\1iep_ligandH.pdb
REMARK  8 active torsions:
REMARK  status: ('A' for Active; 'I' for Inactive)
REMARK    1  A    between atoms: _5  and  _11
REMARK    2  A    between atoms: _19  and  _21
REMARK    3  A    between atoms: _22  and  _66
REMARK    4  A    between atoms: _27  and  _30
REMARK    5  A    between atoms: _32  and  _33
REMARK    6  A    between atoms: _38  and  _43
REMARK    7  A    between atoms: _43  and  _46
REMARK    8  A    between atoms: _53  and  _55
REMARK                            x       y       z     vdW  Elec       q    Type
REMARK                         _______ _______ _______ _____ _____    ______ ____
ROOT
ATOM     10  C   UNL     1      17.317  -2.518  21.314  0.00  0.00    +0.038 A 
ATOM     11  C   UNL     1      16.784  -3.433  22.257  0.00  0.00    +0.047 A 
ATOM     12  C   UNL     1      16.514  -3.029  23.628  0.00  0.00    +0.035 A 
ATOM     32  C   UNL     1      16.797  -1.683  24.004  0.00  0.00    +0.024 A 
ATOM     33  C   UNL     1      17.341  -0.740  23.058  0.00  0.00    +0.007 A 
ATOM     34  C   UNL     1      17.611  -1.134  21.705  0.00  0.00    -0.029 A 
ATOM     35  C   UNL     1      18.200  -0.083  20.736  0.00  0.00    +0.045 C 
ENDROOT
BRANCH  10   9
ATOM      4  C   UNL     1      15.815  -3.874  16.961  0.00  0.00    +0.077 A 
ATOM      5  C   UNL     1      14.436  -3.714  17.323  0.00  0.00    +0.048 A 
ATOM      6  C   UNL     1      14.156  -3.288  18.640  0.00  0.00    +0.116 A 
ATOM      7  N   UNL     1      15.185  -3.043  19.522  0.00  0.00    -0.223 NA
ATOM      8  C   UNL     1      16.505  -3.208  19.142  0.00  0.00    +0.220 A 
ATOM      9  N   UNL     1      17.556  -2.960  20.011  0.00  0.00    -0.283 N 
ATOM     36  H   UNL     1      18.515  -3.101  19.694  0.00  0.00    +0.155 HD
ATOM     37  N   UNL     1      16.799  -3.615  17.890  0.00  0.00    -0.214 NA
BRANCH   4   3
ATOM      1  C   UNL     1      15.846  -5.171  13.271  0.00  0.00    +0.020 A 
ATOM      2  C   UNL     1      15.353  -4.756  14.565  0.00  0.00    +0.013 A 
ATOM      3  C   UNL     1      16.272  -4.314  15.605  0.00  0.00    +0.019 A 
ATOM     38  C   UNL     1      17.696  -4.302  15.303  0.00  0.00    +0.120 A 
ATOM     39  N   UNL     1      18.141  -4.708  14.049  0.00  0.00    -0.263 NA
ATOM     40  C   UNL     1      17.266  -5.138  13.040  0.00  0.00    +0.111 A 
ENDBRANCH   4   3
ENDBRANCH  10   9
BRANCH  12  13
ATOM     13  N   UNL     1      15.980  -3.916  24.632  0.00  0.00    -0.281 N 
ATOM     14  C   UNL     1      14.756  -3.835  25.276  0.00  0.00    +0.248 C 
ATOM     30  O   UNL     1      14.019  -2.861  25.240  0.00  0.00    -0.270 OA
ATOM     31  H   UNL     1      16.578  -4.698  24.901  0.00  0.00    +0.155 HD
BRANCH  14  15
ATOM     15  C   UNL     1      14.290  -5.000  26.088  0.00  0.00    +0.037 A 
ATOM     16  C   UNL     1      15.243  -5.895  26.750  0.00  0.00    +0.013 A 
ATOM     17  C   UNL     1      14.767  -7.021  27.514  0.00  0.00    +0.005 A 
ATOM     18  C   UNL     1      13.329  -7.257  27.621  0.00  0.00    -0.033 A 
ATOM     28  C   UNL     1      12.406  -6.350  26.960  0.00  0.00    +0.005 A 
ATOM     29  C   UNL     1      12.869  -5.246  26.209  0.00  0.00    +0.013 A 
BRANCH  18  19
ATOM     19  C   UNL     1      12.733  -8.445  28.398  0.00  0.00    +0.119 C 
BRANCH  19  20
ATOM     20  N   UNL     1      12.775  -9.784  27.738  0.00  0.00    -0.302 NA
ATOM     21  C   UNL     1      14.162 -10.427  27.831  0.00  0.00    +0.066 C 
ATOM     22  C   UNL     1      14.182 -11.837  27.156  0.00  0.00    -0.064 C 
ATOM     23  N   UNL     1      13.743 -11.706  25.696  0.00  0.00    +0.379 N 
ATOM     24  C   UNL     1      13.817 -13.021  25.042  0.00  0.00    -0.096 C 
ATOM     25  H   UNL     1      14.468 -11.032  25.184  0.00  0.00    -0.082 HD
ATOM     26  C   UNL     1      12.366 -11.065  25.594  0.00  0.00    -0.064 C 
ATOM     27  C   UNL     1      12.349  -9.678  26.295  0.00  0.00    +0.066 C 
ENDBRANCH  19  20
ENDBRANCH  18  19
ENDBRANCH  14  15
ENDBRANCH  12  13
TORSDOF 6
ENDMDL
MODEL 5
REMARK VINA RESULT:      -7.5     12.642     15.784
REMARK  Name = C:\Users\Docking\Desktop\test protocol\1iep_ligandH.pdb
REMARK  8 active torsions:
REMARK  status: ('A' for Active; 'I' for Inactive)
REMARK    1  A    between atoms: _5  and  _11
REMARK    2  A    between atoms: _19  and  _21
REMARK    3  A    between atoms: _22  and  _66
REMARK    4  A    between atoms: _27  and  _30
REMARK    5  A    between atoms: _32  and  _33
REMARK    6  A    between atoms: _38  and  _43
REMARK    7  A    between atoms: _43  and  _46
REMARK    8  A    between atoms: _53  and  _55
REMARK                            x       y       z     vdW  Elec       q    Type
REMARK                         _______ _______ _______ _____ _____    ______ ____
ROOT
ATOM     10  C   UNL     1      25.549  11.004   5.157  0.00  0.00    +0.038 A 
ATOM     11  C   UNL     1      24.288  10.674   4.599  0.00  0.00    +0.047 A 
ATOM     12  C   UNL     1      23.101  11.458   4.904  0.00  0.00    +0.035 A 
ATOM     32  C   UNL     1      23.236  12.574   5.779  0.00  0.00    +0.024 A 
ATOM     33  C   UNL     1      24.510  12.924   6.356  0.00  0.00    +0.007 A 
ATOM     34  C   UNL     1      25.684  12.153   6.061  0.00  0.00    -0.029 A 
ATOM     35  C   UNL     1      27.023  12.570   6.713  0.00  0.00    +0.045 C 
ENDROOT
BRANCH  10   9
ATOM      4  C   UNL     1      28.485   7.292   5.952  0.00  0.00    +0.077 A 
ATOM      5  C   UNL     1      27.771   6.903   7.134  0.00  0.00    +0.048 A 
ATOM      6  C   UNL     1      26.658   7.690   7.507  0.00  0.00    +0.116 A 
ATOM      7  N   UNL     1      26.295   8.781   6.747  0.00  0.00    -0.223 NA
ATOM      8  C   UNL     1      27.007   9.129   5.614  0.00  0.00    +0.220 A 
ATOM      9  N   UNL     1      26.656  10.217   4.830  0.00  0.00    -0.283 N 
ATOM     36  H   UNL     1      27.211  10.445   4.006  0.00  0.00    +0.155 HD
ATOM     37  N   UNL     1      28.075   8.395   5.237  0.00  0.00    -0.214 NA
BRANCH   4   3
ATOM      1  C   UNL     1      32.073   6.463   4.631  0.00  0.00    +0.020 A 
ATOM      2  C   UNL     1      30.949   7.217   5.136  0.00  0.00    +0.013 A 
ATOM      3  C   UNL     1      29.681   6.559   5.427  0.00  0.00    +0.019 A 
ATOM     38  C   UNL     1      29.584   5.126   5.195  0.00  0.00    +0.120 A 
ATOM     39  N   UNL     1      30.683   4.426   4.707  0.00  0.00    -0.263 NA
ATOM     40  C   UNL     1      31.907   5.049   4.422  0.00  0.00    +0.111 A 
ENDBRANCH   4   3
ENDBRANCH  10   9
BRANCH  12  13
ATOM     13  N   UNL     1      21.793  11.165   4.373  0.00  0.00    -0.281 N 
ATOM     14  C   UNL     1      20.979  10.082   4.663  0.00  0.00    +0.248 C 
ATOM     30  O   UNL     1      21.346   9.084   5.266  0.00  0.00    -0.270 OA
ATOM     31  H   UNL     1      21.422  11.838   3.702  0.00  0.00    +0.155 HD
BRANCH  14  15
ATOM     15  C   UNL     1      19.557  10.105   4.205  0.00  0.00    +0.037 A 
ATOM     16  C   UNL     1      19.158  10.834   2.998  0.00  0.00    +0.013 A 
ATOM     17  C   UNL     1      17.776  10.854   2.589  0.00  0.00    +0.005 A 
ATOM     18  C   UNL     1      16.782  10.141   3.387  0.00  0.00    -0.033 A 
ATOM     28  C   UNL     1      17.206   9.421   4.577  0.00  0.00    +0.005 A 
ATOM     29  C   UNL     1      18.559   9.400   4.982  0.00  0.00    +0.013 A 
BRANCH  18  19
ATOM     19  C   UNL     1      15.282  10.125   3.037  0.00  0.00    +0.119 C 
BRANCH  19  20
ATOM     20  N   UNL     1      14.917  10.232   1.593  0.00  0.00    -0.302 NA
ATOM     21  C   UNL     1      13.413  10.053   1.366  0.00  0.00    +0.066 C 
ATOM     22  C   UNL     1      13.045  10.190  -0.147  0.00  0.00    -0.064 C 
ATOM     23  N   UNL     1      13.840   9.165  -0.957  0.00  0.00    +0.379 N 
ATOM     24  C   UNL     1      13.453   9.252  -2.373  0.00  0.00    -0.096 C 
ATOM     25  H   UNL     1      13.556   8.151  -0.590  0.00  0.00    -0.082 HD
ATOM     26  C   UNL     1      15.336   9.334  -0.736  0.00  0.00    -0.064 C 
ATOM     27  C   UNL     1      15.687   9.225   0.774  0.00  0.00    +0.066 C 
ENDBRANCH  19  20
ENDBRANCH  18  19
ENDBRANCH  14  15
ENDBRANCH  12  13
TORSDOF 6
ENDMDL
