MODEL 1
REMARK VINA RESULT:      -8.1      0.000      0.000
REMARK  Name = C:\Users\Docking\Desktop\test protocol\1iep_ligandH.pdb
REMARK  8 active torsions:
REMARK  status: ('A' for Active; 'I' for Inactive)
REMARK    1  A    between atoms: _5  and  _11
REMARK    2  A    between atoms: _19  and  _21
REMARK    3  A    between atoms: _22  and  _66
REMARK    4  A    between atoms: _27  and  _30
REMARK    5  A    between atoms: _32  and  _33
REMARK    6  A    between atoms: _38  and  _43
REMARK    7  A    between atoms: _43  and  _46
REMARK    8  A    between atoms: _53  and  _55
REMARK                            x       y       z     vdW  Elec       q    Type
REMARK                         _______ _______ _______ _____ _____    ______ ____
ROOT
ATOM     10  C   UNL     1      20.188 -41.393  14.357  0.00  0.00    +0.038 A 
ATOM     11  C   UNL     1      18.794 -41.324  14.609  0.00  0.00    +0.047 A 
ATOM     12  C   UNL     1      18.157 -42.217  15.564  0.00  0.00    +0.035 A 
ATOM     32  C   UNL     1      18.971 -43.167  16.248  0.00  0.00    +0.024 A 
ATOM     33  C   UNL     1      20.389 -43.251  16.004  0.00  0.00    +0.007 A 
ATOM     34  C   UNL     1      21.023 -42.375  15.061  0.00  0.00    -0.029 A 
ATOM     35  C   UNL     1      22.546 -42.514  14.834  0.00  0.00    +0.045 C 
ENDROOT
BRANCH  10   9
ATOM      4  C   UNL     1      21.561 -40.244   9.904  0.00  0.00    +0.077 A 
ATOM      5  C   UNL     1      21.154 -41.519   9.386  0.00  0.00    +0.048 A 
ATOM      6  C   UNL     1      20.603 -42.444  10.300  0.00  0.00    +0.116 A 
ATOM      7  N   UNL     1      20.472 -42.109  11.631  0.00  0.00    -0.223 NA
ATOM      8  C   UNL     1      20.877 -40.872  12.098  0.00  0.00    +0.220 A 
ATOM      9  N   UNL     1      20.748 -40.511  13.430  0.00  0.00    -0.283 N 
ATOM     36  H   UNL     1      21.065 -39.592  13.736  0.00  0.00    +0.155 HD
ATOM     37  N   UNL     1      21.408 -39.971  11.245  0.00  0.00    -0.214 NA
BRANCH   4   3
ATOM      1  C   UNL     1      22.594 -38.030   6.849  0.00  0.00    +0.020 A 
ATOM      2  C   UNL     1      21.997 -39.099   7.615  0.00  0.00    +0.013 A 
ATOM      3  C   UNL     1      22.159 -39.159   9.063  0.00  0.00    +0.019 A 
ATOM     38  C   UNL     1      22.936 -38.113   9.709  0.00  0.00    +0.120 A 
ATOM     39  N   UNL     1      23.500 -37.096   8.946  0.00  0.00    -0.263 NA
ATOM     40  C   UNL     1      23.353 -37.029   7.552  0.00  0.00    +0.111 A 
ENDBRANCH   4   3
ENDBRANCH  10   9
BRANCH  12  13
ATOM     13  N   UNL     1      16.745 -42.199  15.855  0.00  0.00    -0.281 N 
ATOM     14  C   UNL     1      16.064 -41.354  16.717  0.00  0.00    +0.248 C 
ATOM     30  O   UNL     1      16.600 -40.621  17.534  0.00  0.00    -0.270 OA
ATOM     31  H   UNL     1      16.179 -42.893  15.367  0.00  0.00    +0.155 HD
BRANCH  14  15
ATOM     15  C   UNL     1      14.570 -41.331  16.674  0.00  0.00    +0.037 A 
ATOM     16  C   UNL     1      13.781 -42.513  17.032  0.00  0.00    +0.013 A 
ATOM     17  C   UNL     1      12.342 -42.469  16.966  0.00  0.00    +0.005 A 
ATOM     18  C   UNL     1      11.682 -41.237  16.541  0.00  0.00    -0.033 A 
ATOM     28  C   UNL     1      12.488 -40.078  16.196  0.00  0.00    +0.005 A 
ATOM     29  C   UNL     1      13.899 -40.118  16.259  0.00  0.00    +0.013 A 
BRANCH  18  19
ATOM     19  C   UNL     1      10.152 -41.107  16.420  0.00  0.00    +0.119 C 
BRANCH  19  20
ATOM     20  N   UNL     1       9.465 -41.993  15.433  0.00  0.00    -0.302 NA
ATOM     21  C   UNL     1      10.107 -41.911  14.045  0.00  0.00    +0.066 C 
ATOM     22  C   UNL     1       9.391 -42.861  13.030  0.00  0.00    -0.064 C 
ATOM     23  N   UNL     1       7.906 -42.502  12.962  0.00  0.00    +0.379 N 
ATOM     24  C   UNL     1       7.241 -43.355  11.965  0.00  0.00    -0.096 C 
ATOM     25  H   UNL     1       7.829 -41.447  12.610  0.00  0.00    -0.082 HD
ATOM     26  C   UNL     1       7.260 -42.578  14.338  0.00  0.00    -0.064 C 
ATOM     27  C   UNL     1       7.998 -41.653  15.346  0.00  0.00    +0.066 C 
ENDBRANCH  19  20
ENDBRANCH  18  19
ENDBRANCH  14  15
ENDBRANCH  12  13
TORSDOF 6
ENDMDL
MODEL 2
REMARK VINA RESULT:      -7.6     19.038     21.402
REMARK  Name = C:\Users\Docking\Desktop\test protocol\1iep_ligandH.pdb
REMARK  8 active torsions:
REMARK  status: ('A' for Active; 'I' for Inactive)
REMARK    1  A    between atoms: _5  and  _11
REMARK    2  A    between atoms: _19  and  _21
REMARK    3  A    between atoms: _22  and  _66
REMARK    4  A    between atoms: _27  and  _30
REMARK    5  A    between atoms: _32  and  _33
REMARK    6  A    between atoms: _38  and  _43
REMARK    7  A    between atoms: _43  and  _46
REMARK    8  A    between atoms: _53  and  _55
REMARK                            x       y       z     vdW  Elec       q    Type
REMARK                         _______ _______ _______ _____ _____    ______ ____
ROOT
ATOM     10  C   UNL     1       8.361 -24.615   8.798  0.00  0.00    +0.038 A 
ATOM     11  C   UNL     1       9.003 -24.326  10.029  0.00  0.00    +0.047 A 
ATOM     12  C   UNL     1       8.881 -25.220  11.170  0.00  0.00    +0.035 A 
ATOM     32  C   UNL     1       8.098 -26.401  11.021  0.00  0.00    +0.024 A 
ATOM     33  C   UNL     1       7.437 -26.711   9.778  0.00  0.00    +0.007 A 
ATOM     34  C   UNL     1       7.552 -25.831   8.649  0.00  0.00    -0.029 A 
ATOM     35  C   UNL     1       6.817 -26.210   7.343  0.00  0.00    +0.045 C 
ENDROOT
BRANCH  10   9
ATOM      4  C   UNL     1       7.040 -20.724   6.317  0.00  0.00    +0.077 A 
ATOM      5  C   UNL     1       5.939 -20.464   7.199  0.00  0.00    +0.048 A 
ATOM      6  C   UNL     1       5.742 -21.359   8.274  0.00  0.00    +0.116 A 
ATOM      7  N   UNL     1       6.591 -22.431   8.446  0.00  0.00    -0.223 NA
ATOM      8  C   UNL     1       7.642 -22.655   7.577  0.00  0.00    +0.220 A 
ATOM      9  N   UNL     1       8.513 -23.722   7.735  0.00  0.00    -0.283 N 
ATOM     36  H   UNL     1       9.272 -23.857   7.068  0.00  0.00    +0.155 HD
ATOM     37  N   UNL     1       7.850 -21.815   6.541  0.00  0.00    -0.214 NA
BRANCH   4   3
ATOM      1  C   UNL     1       8.952 -19.066   3.335  0.00  0.00    +0.020 A 
ATOM      2  C   UNL     1       8.675 -19.915   4.470  0.00  0.00    +0.013 A 
ATOM      3  C   UNL     1       7.380 -19.867   5.138  0.00  0.00    +0.019 A 
ATOM     38  C   UNL     1       6.379 -18.943   4.626  0.00  0.00    +0.120 A 
ATOM     39  N   UNL     1       6.675 -18.137   3.532  0.00  0.00    -0.263 NA
ATOM     40  C   UNL     1       7.918 -18.172   2.883  0.00  0.00    +0.111 A 
ENDBRANCH   4   3
ENDBRANCH  10   9
BRANCH  12  13
ATOM     13  N   UNL     1       9.504 -24.974  12.447  0.00  0.00    -0.281 N 
ATOM     14  C   UNL     1      10.332 -25.819  13.167  0.00  0.00    +0.248 C 
ATOM     30  O   UNL     1      10.493 -27.005  12.920  0.00  0.00    -0.270 OA
ATOM     31  H   UNL     1       9.310 -24.067  12.872  0.00  0.00    +0.155 HD
BRANCH  14  15
ATOM     15  C   UNL     1      11.079 -25.271  14.340  0.00  0.00    +0.037 A 
ATOM     16  C   UNL     1      11.941 -26.127  15.159  0.00  0.00    +0.013 A 
ATOM     17  C   UNL     1      12.637 -25.576  16.295  0.00  0.00    +0.005 A 
ATOM     18  C   UNL     1      12.475 -24.160  16.617  0.00  0.00    -0.033 A 
ATOM     28  C   UNL     1      11.618 -23.333  15.784  0.00  0.00    +0.005 A 
ATOM     29  C   UNL     1      10.933 -23.869  14.671  0.00  0.00    +0.013 A 
BRANCH  18  19
ATOM     19  C   UNL     1      13.163 -23.493  17.823  0.00  0.00    +0.119 C 
BRANCH  19  20
ATOM     20  N   UNL     1      12.532 -23.684  19.162  0.00  0.00    -0.302 NA
ATOM     21  C   UNL     1      11.418 -22.666  19.423  0.00  0.00    +0.066 C 
ATOM     22  C   UNL     1      10.754 -22.895  20.820  0.00  0.00    -0.064 C 
ATOM     23  N   UNL     1      11.824 -22.818  21.910  0.00  0.00    +0.379 N 
ATOM     24  C   UNL     1      11.194 -22.976  23.229  0.00  0.00    -0.096 C 
ATOM     25  H   UNL     1      12.275 -21.800  21.870  0.00  0.00    -0.082 HD
ATOM     26  C   UNL     1      12.937 -23.826  21.656  0.00  0.00    -0.064 C 
ATOM     27  C   UNL     1      13.570 -23.608  20.254  0.00  0.00    +0.066 C 
ENDBRANCH  19  20
ENDBRANCH  18  19
ENDBRANCH  14  15
ENDBRANCH  12  13
TORSDOF 6
ENDMDL
MODEL 3
REMARK VINA RESULT:      -7.6      1.939      2.436
REMARK  Name = C:\Users\Docking\Desktop\test protocol\1iep_ligandH.pdb
REMARK  8 active torsions:
REMARK  status: ('A' for Active; 'I' for Inactive)
REMARK    1  A    between atoms: _5  and  _11
REMARK    2  A    between atoms: _19  and  _21
REMARK    3  A    between atoms: _22  and  _66
REMARK    4  A    between atoms: _27  and  _30
REMARK    5  A    between atoms: _32  and  _33
REMARK    6  A    between atoms: _38  and  _43
REMARK    7  A    between atoms: _43  and  _46
REMARK    8  A    between atoms: _53  and  _55
REMARK                            x       y       z     vdW  Elec       q    Type
REMARK                         _______ _______ _______ _____ _____    ______ ____
ROOT
ATOM     10  C   UNL     1      19.339 -38.329  15.063  0.00  0.00    +0.038 A 
ATOM     11  C   UNL     1      18.112 -39.031  15.176  0.00  0.00    +0.047 A 
ATOM     12  C   UNL     1      17.615 -39.475  16.470  0.00  0.00    +0.035 A 
ATOM     32  C   UNL     1      18.393 -39.184  17.628  0.00  0.00    +0.024 A 
ATOM     33  C   UNL     1      19.644 -38.473  17.531  0.00  0.00    +0.007 A 
ATOM     34  C   UNL     1      20.140 -38.035  16.258  0.00  0.00    -0.029 A 
ATOM     35  C   UNL     1      21.490 -37.282  16.213  0.00  0.00    +0.045 C 
ENDROOT
BRANCH  10   9
ATOM      4  C   UNL     1      21.561 -39.150  10.888  0.00  0.00    +0.077 A 
ATOM      5  C   UNL     1      21.919 -40.484  11.273  0.00  0.00    +0.048 A 
ATOM      6  C   UNL     1      21.520 -40.918  12.557  0.00  0.00    +0.116 A 
ATOM      7  N   UNL     1      20.813 -40.073  13.385  0.00  0.00    -0.223 NA
ATOM      8  C   UNL     1      20.485 -38.791  12.983  0.00  0.00    +0.220 A 
ATOM      9  N   UNL     1      19.769 -37.927  13.796  0.00  0.00    -0.283 N 
ATOM     36  H   UNL     1      19.553 -36.987  13.466  0.00  0.00    +0.155 HD
ATOM     37  N   UNL     1      20.857 -38.352  11.763  0.00  0.00    -0.214 NA
BRANCH   4   3
ATOM      1  C   UNL     1      21.739 -38.425   7.048  0.00  0.00    +0.020 A 
ATOM      2  C   UNL     1      21.372 -39.043   8.301  0.00  0.00    +0.013 A 
ATOM      3  C   UNL     1      21.908 -38.547   9.562  0.00  0.00    +0.019 A 
ATOM     38  C   UNL     1      22.821 -37.414   9.521  0.00  0.00    +0.120 A 
ATOM     39  N   UNL     1      23.158 -36.840   8.299  0.00  0.00    -0.263 NA
ATOM     40  C   UNL     1      22.649 -37.310   7.079  0.00  0.00    +0.111 A 
ENDBRANCH   4   3
ENDBRANCH  10   9
BRANCH  12  13
ATOM     13  N   UNL     1      16.380 -40.198  16.645  0.00  0.00    -0.281 N 
ATOM     14  C   UNL     1      15.173 -39.718  17.127  0.00  0.00    +0.248 C 
ATOM     30  O   UNL     1      15.031 -38.639  17.683  0.00  0.00    -0.270 OA
ATOM     31  H   UNL     1      16.398 -41.183  16.383  0.00  0.00    +0.155 HD
BRANCH  14  15
ATOM     15  C   UNL     1      13.950 -40.564  16.982  0.00  0.00    +0.037 A 
ATOM     16  C   UNL     1      13.965 -41.987  17.331  0.00  0.00    +0.013 A 
ATOM     17  C   UNL     1      12.776 -42.785  17.166  0.00  0.00    +0.005 A 
ATOM     18  C   UNL     1      11.560 -42.160  16.650  0.00  0.00    -0.033 A 
ATOM     28  C   UNL     1      11.572 -40.746  16.317  0.00  0.00    +0.005 A 
ATOM     29  C   UNL     1      12.736 -39.961  16.476  0.00  0.00    +0.013 A 
BRANCH  18  19
ATOM     19  C   UNL     1      10.252 -42.940  16.422  0.00  0.00    +0.119 C 
BRANCH  19  20
ATOM     20  N   UNL     1       9.584 -42.782  15.095  0.00  0.00    -0.302 NA
ATOM     21  C   UNL     1       8.060 -42.720  15.223  0.00  0.00    +0.066 C 
ATOM     22  C   UNL     1       7.379 -42.532  13.829  0.00  0.00    -0.064 C 
ATOM     23  N   UNL     1       7.799 -43.673  12.901  0.00  0.00    +0.379 N 
ATOM     24  C   UNL     1       7.115 -43.531  11.607  0.00  0.00    -0.096 C 
ATOM     25  H   UNL     1       7.455 -44.628  13.363  0.00  0.00    -0.082 HD
ATOM     26  C   UNL     1       9.313 -43.743  12.770  0.00  0.00    -0.064 C 
ATOM     27  C   UNL     1       9.982 -43.901  14.165  0.00  0.00    +0.066 C 
ENDBRANCH  19  20
ENDBRANCH  18  19
ENDBRANCH  14  15
ENDBRANCH  12  13
TORSDOF 6
ENDMDL
MODEL 4
REMARK VINA RESULT:      -7.5      8.501     13.032
REMARK  Name = C:\Users\Docking\Desktop\test protocol\1iep_ligandH.pdb
REMARK  8 active torsions:
REMARK  status: ('A' for Active; 'I' for Inactive)
REMARK    1  A    between atoms: _5  and  _11
REMARK    2  A    between atoms: _19  and  _21
REMARK    3  A    between atoms: _22  and  _66
REMARK    4  A    between atoms: _27  and  _30
REMARK    5  A    between atoms: _32  and  _33
REMARK    6  A    between atoms: _38  and  _43
REMARK    7  A    between atoms: _43  and  _46
REMARK    8  A    between atoms: _53  and  _55
REMARK                            x       y       z     vdW  Elec       q    Type
REMARK                         _______ _______ _______ _____ _____    ______ ____
ROOT
ATOM     10  C   UNL     1      16.032 -33.002  16.743  0.00  0.00    +0.038 A 
ATOM     11  C   UNL     1      16.997 -33.551  15.860  0.00  0.00    +0.047 A 
ATOM     12  C   UNL     1      18.017 -34.472  16.337  0.00  0.00    +0.035 A 
ATOM     32  C   UNL     1      18.023 -34.814  17.721  0.00  0.00    +0.024 A 
ATOM     33  C   UNL     1      17.051 -34.264  18.633  0.00  0.00    +0.007 A 
ATOM     34  C   UNL     1      16.044 -33.354  18.168  0.00  0.00    -0.029 A 
ATOM     35  C   UNL     1      15.031 -32.790  19.192  0.00  0.00    +0.045 C 
ENDROOT
BRANCH  10   9
ATOM      4  C   UNL     1      14.513 -28.593  15.606  0.00  0.00    +0.077 A 
ATOM      5  C   UNL     1      15.716 -27.987  16.100  0.00  0.00    +0.048 A 
ATOM      6  C   UNL     1      16.698 -28.845  16.645  0.00  0.00    +0.116 A 
ATOM      7  N   UNL     1      16.482 -30.205  16.688  0.00  0.00    -0.223 NA
ATOM      8  C   UNL     1      15.310 -30.757  16.205  0.00  0.00    +0.220 A 
ATOM      9  N   UNL     1      15.076 -32.123  16.230  0.00  0.00    -0.283 N 
ATOM     36  H   UNL     1      14.195 -32.490  15.871  0.00  0.00    +0.155 HD
ATOM     37  N   UNL     1      14.356 -29.960  15.681  0.00  0.00    -0.214 NA
BRANCH   4   3
ATOM      1  C   UNL     1      11.517 -27.532  13.326  0.00  0.00    +0.020 A 
ATOM      2  C   UNL     1      12.597 -28.318  13.876  0.00  0.00    +0.013 A 
ATOM      3  C   UNL     1      13.384 -27.821  14.998  0.00  0.00    +0.019 A 
ATOM     38  C   UNL     1      13.047 -26.515  15.546  0.00  0.00    +0.120 A 
ATOM     39  N   UNL     1      12.002 -25.780  14.995  0.00  0.00    -0.263 NA
ATOM     40  C   UNL     1      11.240 -26.248  13.914  0.00  0.00    +0.111 A 
ENDBRANCH   4   3
ENDBRANCH  10   9
BRANCH  12  13
ATOM     13  N   UNL     1      19.026 -35.055  15.489  0.00  0.00    -0.281 N 
ATOM     14  C   UNL     1      20.403 -34.966  15.619  0.00  0.00    +0.248 C 
ATOM     30  O   UNL     1      20.978 -34.190  16.368  0.00  0.00    -0.270 OA
ATOM     31  H   UNL     1      18.685 -35.599  14.697  0.00  0.00    +0.155 HD
BRANCH  14  15
ATOM     15  C   UNL     1      21.266 -35.859  14.787  0.00  0.00    +0.037 A 
ATOM     16  C   UNL     1      21.551 -37.237  15.196  0.00  0.00    +0.013 A 
ATOM     17  C   UNL     1      22.400 -38.071  14.384  0.00  0.00    +0.005 A 
ATOM     18  C   UNL     1      22.970 -37.530  13.152  0.00  0.00    -0.033 A 
ATOM     28  C   UNL     1      22.666 -36.161  12.768  0.00  0.00    +0.005 A 
ATOM     29  C   UNL     1      21.835 -35.340  13.562  0.00  0.00    +0.013 A 
BRANCH  18  19
ATOM     19  C   UNL     1      23.903 -38.342  12.235  0.00  0.00    +0.119 C 
BRANCH  19  20
ATOM     20  N   UNL     1      23.389 -38.698  10.879  0.00  0.00    -0.302 NA
ATOM     21  C   UNL     1      23.558 -37.550   9.880  0.00  0.00    +0.066 C 
ATOM     22  C   UNL     1      23.036 -37.948   8.462  0.00  0.00    -0.064 C 
ATOM     23  N   UNL     1      21.568 -38.368   8.561  0.00  0.00    +0.379 N 
ATOM     24  C   UNL     1      21.058 -38.687   7.220  0.00  0.00    -0.096 C 
ATOM     25  H   UNL     1      20.992 -37.494   8.943  0.00  0.00    -0.082 HD
ATOM     26  C   UNL     1      21.391 -39.508   9.554  0.00  0.00    -0.064 C 
ATOM     27  C   UNL     1      21.940 -39.112  10.953  0.00  0.00    +0.066 C 
ENDBRANCH  19  20
ENDBRANCH  18  19
ENDBRANCH  14  15
ENDBRANCH  12  13
TORSDOF 6
ENDMDL
MODEL 5
REMARK VINA RESULT:      -7.5     17.926     20.417
REMARK  Name = C:\Users\Docking\Desktop\test protocol\1iep_ligandH.pdb
REMARK  8 active torsions:
REMARK  status: ('A' for Active; 'I' for Inactive)
REMARK    1  A    between atoms: _5  and  _11
REMARK    2  A    between atoms: _19  and  _21
REMARK    3  A    between atoms: _22  and  _66
REMARK    4  A    between atoms: _27  and  _30
REMARK    5  A    between atoms: _32  and  _33
REMARK    6  A    between atoms: _38  and  _43
REMARK    7  A    between atoms: _43  and  _46
REMARK    8  A    between atoms: _53  and  _55
REMARK                            x       y       z     vdW  Elec       q    Type
REMARK                         _______ _______ _______ _____ _____    ______ ____
ROOT
ATOM     10  C   UNL     1       9.089 -21.081  11.135  0.00  0.00    +0.038 A 
ATOM     11  C   UNL     1       9.805 -22.244  11.516  0.00  0.00    +0.047 A 
ATOM     12  C   UNL     1       9.941 -22.619  12.915  0.00  0.00    +0.035 A 
ATOM     32  C   UNL     1       9.332 -21.788  13.900  0.00  0.00    +0.024 A 
ATOM     33  C   UNL     1       8.602 -20.601  13.530  0.00  0.00    +0.007 A 
ATOM     34  C   UNL     1       8.467 -20.224  12.152  0.00  0.00    -0.029 A 
ATOM     35  C   UNL     1       7.678 -18.938  11.814  0.00  0.00    +0.045 C 
ENDROOT
BRANCH  10   9
ATOM      4  C   UNL     1       7.326 -21.835   6.735  0.00  0.00    +0.077 A 
ATOM      5  C   UNL     1       6.557 -22.965   7.173  0.00  0.00    +0.048 A 
ATOM      6  C   UNL     1       6.649 -23.324   8.536  0.00  0.00    +0.116 A 
ATOM      7  N   UNL     1       7.453 -22.599   9.390  0.00  0.00    -0.223 NA
ATOM      8  C   UNL     1       8.182 -21.516   8.935  0.00  0.00    +0.220 A 
ATOM      9  N   UNL     1       8.990 -20.768   9.777  0.00  0.00    -0.283 N 
ATOM     36  H   UNL     1       9.518 -19.980   9.402  0.00  0.00    +0.155 HD
ATOM     37  N   UNL     1       8.113 -21.154   7.637  0.00  0.00    -0.214 NA
BRANCH   4   3
ATOM      1  C   UNL     1       6.382 -21.207   2.991  0.00  0.00    +0.020 A 
ATOM      2  C   UNL     1       6.331 -21.723   4.340  0.00  0.00    +0.013 A 
ATOM      3  C   UNL     1       7.331 -21.331   5.325  0.00  0.00    +0.019 A 
ATOM     38  C   UNL     1       8.376 -20.408   4.911  0.00  0.00    +0.120 A 
ATOM     39  N   UNL     1       8.400 -19.928   3.605  0.00  0.00    -0.263 NA
ATOM     40  C   UNL     1       7.444 -20.300   2.648  0.00  0.00    +0.111 A 
ENDBRANCH   4   3
ENDBRANCH  10   9
BRANCH  12  13
ATOM     13  N   UNL     1      10.663 -23.785  13.363  0.00  0.00    -0.281 N 
ATOM     14  C   UNL     1      10.234 -25.102  13.368  0.00  0.00    +0.248 C 
ATOM     30  O   UNL     1       9.078 -25.453  13.185  0.00  0.00    -0.270 OA
ATOM     31  H   UNL     1      11.604 -23.618  13.719  0.00  0.00    +0.155 HD
BRANCH  14  15
ATOM     15  C   UNL     1      11.231 -26.185  13.628  0.00  0.00    +0.037 A 
ATOM     16  C   UNL     1      10.805 -27.556  13.919  0.00  0.00    +0.013 A 
ATOM     17  C   UNL     1      11.788 -28.577  14.183  0.00  0.00    +0.005 A 
ATOM     18  C   UNL     1      13.207 -28.231  14.155  0.00  0.00    -0.033 A 
ATOM     28  C   UNL     1      13.601 -26.864  13.858  0.00  0.00    +0.005 A 
ATOM     29  C   UNL     1      12.641 -25.860  13.600  0.00  0.00    +0.013 A 
BRANCH  18  19
ATOM     19  C   UNL     1      14.323 -29.252  14.445  0.00  0.00    +0.119 C 
BRANCH  19  20
ATOM     20  N   UNL     1      14.875 -29.285  15.832  0.00  0.00    -0.302 NA
ATOM     21  C   UNL     1      16.120 -28.405  15.976  0.00  0.00    +0.066 C 
ATOM     22  C   UNL     1      16.672 -28.434  17.438  0.00  0.00    -0.064 C 
ATOM     23  N   UNL     1      16.981 -29.878  17.836  0.00  0.00    +0.379 N 
ATOM     24  C   UNL     1      17.554 -29.903  19.189  0.00  0.00    -0.096 C 
ATOM     25  H   UNL     1      17.756 -30.263  17.133  0.00  0.00    -0.082 HD
ATOM     26  C   UNL     1      15.749 -30.761  17.693  0.00  0.00    -0.064 C 
ATOM     27  C   UNL     1      15.192 -30.702  16.243  0.00  0.00    +0.066 C 
ENDBRANCH  19  20
ENDBRANCH  18  19
ENDBRANCH  14  15
ENDBRANCH  12  13
TORSDOF 6
ENDMDL
