MODEL 1
REMARK VINA RESULT:      -9.8      0.000      0.000
REMARK  Name = C:\Users\Docking\Desktop\test protocol\1iep_ligandH.pdb
REMARK  8 active torsions:
REMARK  status: ('A' for Active; 'I' for Inactive)
REMARK    1  A    between atoms: _5  and  _11
REMARK    2  A    between atoms: _19  and  _21
REMARK    3  A    between atoms: _22  and  _66
REMARK    4  A    between atoms: _27  and  _30
REMARK    5  A    between atoms: _32  and  _33
REMARK    6  A    between atoms: _38  and  _43
REMARK    7  A    between atoms: _43  and  _46
REMARK    8  A    between atoms: _53  and  _55
REMARK                            x       y       z     vdW  Elec       q    Type
REMARK                         _______ _______ _______ _____ _____    ______ ____
ROOT
ATOM     10  C   UNL     1      16.497  33.846  14.635  0.00  0.00    +0.038 A 
ATOM     11  C   UNL     1      16.516  35.217  15.000  0.00  0.00    +0.047 A 
ATOM     12  C   UNL     1      15.776  35.698  16.156  0.00  0.00    +0.035 A 
ATOM     32  C   UNL     1      15.029  34.755  16.920  0.00  0.00    +0.024 A 
ATOM     33  C   UNL     1      14.998  33.359  16.564  0.00  0.00    +0.007 A 
ATOM     34  C   UNL     1      15.724  32.878  15.423  0.00  0.00    -0.029 A 
ATOM     35  C   UNL     1      15.649  31.372  15.083  0.00  0.00    +0.045 C 
ENDROOT
BRANCH  10   9
ATOM      4  C   UNL     1      16.786  32.439  10.056  0.00  0.00    +0.077 A 
ATOM      5  C   UNL     1      15.363  32.495   9.887  0.00  0.00    +0.048 A 
ATOM      6  C   UNL     1      14.591  32.883  11.005  0.00  0.00    +0.116 A 
ATOM      7  N   UNL     1      15.208  33.191  12.198  0.00  0.00    -0.223 NA
ATOM      8  C   UNL     1      16.584  33.126  12.328  0.00  0.00    +0.220 A 
ATOM      9  N   UNL     1      17.226  33.439  13.516  0.00  0.00    -0.283 N 
ATOM     36  H   UNL     1      18.242  33.371  13.573  0.00  0.00    +0.155 HD
ATOM     37  N   UNL     1      17.342  32.756  11.275  0.00  0.00    -0.214 NA
BRANCH   4   3
ATOM      1  C   UNL     1      19.508  30.553   7.974  0.00  0.00    +0.020 A 
ATOM      2  C   UNL     1      18.609  30.886   9.055  0.00  0.00    +0.013 A 
ATOM      3  C   UNL     1      17.736  32.050   8.966  0.00  0.00    +0.019 A 
ATOM     38  C   UNL     1      17.798  32.862   7.760  0.00  0.00    +0.120 A 
ATOM     39  N   UNL     1      18.674  32.518   6.736  0.00  0.00    -0.263 NA
ATOM     40  C   UNL     1      19.520  31.401   6.811  0.00  0.00    +0.111 A 
ENDBRANCH   4   3
ENDBRANCH  10   9
BRANCH  12  13
ATOM     13  N   UNL     1      15.751  37.080  16.569  0.00  0.00    -0.281 N 
ATOM     14  C   UNL     1      16.828  37.905  16.848  0.00  0.00    +0.248 C 
ATOM     30  O   UNL     1      17.978  37.516  16.990  0.00  0.00    -0.270 OA
ATOM     31  H   UNL     1      14.827  37.500  16.669  0.00  0.00    +0.155 HD
BRANCH  14  15
ATOM     15  C   UNL     1      16.592  39.372  17.005  0.00  0.00    +0.037 A 
ATOM     16  C   UNL     1      16.951  40.317  15.944  0.00  0.00    +0.013 A 
ATOM     17  C   UNL     1      16.728  41.730  16.128  0.00  0.00    +0.005 A 
ATOM     18  C   UNL     1      16.141  42.205  17.378  0.00  0.00    -0.033 A 
ATOM     28  C   UNL     1      15.789  41.245  18.412  0.00  0.00    +0.005 A 
ATOM     29  C   UNL     1      16.007  39.860  18.235  0.00  0.00    +0.013 A 
BRANCH  18  19
ATOM     19  C   UNL     1      15.887  43.696  17.670  0.00  0.00    +0.119 C 
BRANCH  19  20
ATOM     20  N   UNL     1      14.871  44.394  16.827  0.00  0.00    -0.302 NA
ATOM     21  C   UNL     1      13.570  43.593  16.714  0.00  0.00    +0.066 C 
ATOM     22  C   UNL     1      12.510  44.349  15.848  0.00  0.00    -0.064 C 
ATOM     23  N   UNL     1      13.095  44.630  14.463  0.00  0.00    +0.379 N 
ATOM     24  C   UNL     1      12.080  45.288  13.627  0.00  0.00    -0.096 C 
ATOM     25  H   UNL     1      13.336  43.648  13.992  0.00  0.00    -0.082 HD
ATOM     26  C   UNL     1      14.390  45.423  14.565  0.00  0.00    -0.064 C 
ATOM     27  C   UNL     1      15.426  44.678  15.452  0.00  0.00    +0.066 C 
ENDBRANCH  19  20
ENDBRANCH  18  19
ENDBRANCH  14  15
ENDBRANCH  12  13
TORSDOF 6
ENDMDL
MODEL 2
REMARK VINA RESULT:      -9.7      1.398      2.097
REMARK  Name = C:\Users\Docking\Desktop\test protocol\1iep_ligandH.pdb
REMARK  8 active torsions:
REMARK  status: ('A' for Active; 'I' for Inactive)
REMARK    1  A    between atoms: _5  and  _11
REMARK    2  A    between atoms: _19  and  _21
REMARK    3  A    between atoms: _22  and  _66
REMARK    4  A    between atoms: _27  and  _30
REMARK    5  A    between atoms: _32  and  _33
REMARK    6  A    between atoms: _38  and  _43
REMARK    7  A    between atoms: _43  and  _46
REMARK    8  A    between atoms: _53  and  _55
REMARK                            x       y       z     vdW  Elec       q    Type
REMARK                         _______ _______ _______ _____ _____    ______ ____
ROOT
ATOM     10  C   UNL     1      16.104  33.839  14.487  0.00  0.00    +0.038 A 
ATOM     11  C   UNL     1      16.247  35.206  14.834  0.00  0.00    +0.047 A 
ATOM     12  C   UNL     1      15.750  35.716  16.102  0.00  0.00    +0.035 A 
ATOM     32  C   UNL     1      15.115  34.804  16.995  0.00  0.00    +0.024 A 
ATOM     33  C   UNL     1      14.961  33.411  16.658  0.00  0.00    +0.007 A 
ATOM     34  C   UNL     1      15.447  32.903  15.407  0.00  0.00    -0.029 A 
ATOM     35  C   UNL     1      15.249  31.401  15.096  0.00  0.00    +0.045 C 
ENDROOT
BRANCH  10   9
ATOM      4  C   UNL     1      19.448  31.701  11.787  0.00  0.00    +0.077 A 
ATOM      5  C   UNL     1      20.291  31.455  12.921  0.00  0.00    +0.048 A 
ATOM      6  C   UNL     1      19.831  31.901  14.181  0.00  0.00    +0.116 A 
ATOM      7  N   UNL     1      18.616  32.543  14.286  0.00  0.00    -0.223 NA
ATOM      8  C   UNL     1      17.828  32.766  13.172  0.00  0.00    +0.220 A 
ATOM      9  N   UNL     1      16.600  33.403  13.256  0.00  0.00    -0.283 N 
ATOM     36  H   UNL     1      16.052  33.555  12.410  0.00  0.00    +0.155 HD
ATOM     37  N   UNL     1      18.246  32.351  11.958  0.00  0.00    -0.214 NA
BRANCH   4   3
ATOM      1  C   UNL     1      21.277  30.144   8.700  0.00  0.00    +0.020 A 
ATOM      2  C   UNL     1      20.989  30.519  10.065  0.00  0.00    +0.013 A 
ATOM      3  C   UNL     1      19.794  31.287  10.390  0.00  0.00    +0.019 A 
ATOM     38  C   UNL     1      18.903  31.662   9.303  0.00  0.00    +0.120 A 
ATOM     39  N   UNL     1      19.207  31.289   7.997  0.00  0.00    -0.263 NA
ATOM     40  C   UNL     1      20.355  30.551   7.672  0.00  0.00    +0.111 A 
ENDBRANCH   4   3
ENDBRANCH  10   9
BRANCH  12  13
ATOM     13  N   UNL     1      15.859  37.097  16.506  0.00  0.00    -0.281 N 
ATOM     14  C   UNL     1      17.007  37.802  16.825  0.00  0.00    +0.248 C 
ATOM     30  O   UNL     1      18.100  37.292  17.020  0.00  0.00    -0.270 OA
ATOM     31  H   UNL     1      14.983  37.616  16.562  0.00  0.00    +0.155 HD
BRANCH  14  15
ATOM     15  C   UNL     1      16.926  39.288  16.963  0.00  0.00    +0.037 A 
ATOM     16  C   UNL     1      16.485  39.914  18.212  0.00  0.00    +0.013 A 
ATOM     17  C   UNL     1      16.400  41.349  18.312  0.00  0.00    +0.005 A 
ATOM     18  C   UNL     1      16.759  42.170  17.158  0.00  0.00    -0.033 A 
ATOM     28  C   UNL     1      17.199  41.524  15.932  0.00  0.00    +0.005 A 
ATOM     29  C   UNL     1      17.282  40.117  15.830  0.00  0.00    +0.013 A 
BRANCH  18  19
ATOM     19  C   UNL     1      16.678  43.708  17.168  0.00  0.00    +0.119 C 
BRANCH  19  20
ATOM     20  N   UNL     1      15.439  44.331  16.616  0.00  0.00    -0.302 NA
ATOM     21  C   UNL     1      14.208  43.445  16.826  0.00  0.00    +0.066 C 
ATOM     22  C   UNL     1      12.916  44.122  16.262  0.00  0.00    -0.064 C 
ATOM     23  N   UNL     1      13.113  44.432  14.777  0.00  0.00    +0.379 N 
ATOM     24  C   UNL     1      11.879  45.016  14.230  0.00  0.00    -0.096 C 
ATOM     25  H   UNL     1      13.292  43.466  14.251  0.00  0.00    -0.082 HD
ATOM     26  C   UNL     1      14.336  45.311  14.559  0.00  0.00    -0.064 C 
ATOM     27  C   UNL     1      15.609  44.642  15.149  0.00  0.00    +0.066 C 
ENDBRANCH  19  20
ENDBRANCH  18  19
ENDBRANCH  14  15
ENDBRANCH  12  13
TORSDOF 6
ENDMDL
MODEL 3
REMARK VINA RESULT:      -9.3      4.759      8.496
REMARK  Name = C:\Users\Docking\Desktop\test protocol\1iep_ligandH.pdb
REMARK  8 active torsions:
REMARK  status: ('A' for Active; 'I' for Inactive)
REMARK    1  A    between atoms: _5  and  _11
REMARK    2  A    between atoms: _19  and  _21
REMARK    3  A    between atoms: _22  and  _66
REMARK    4  A    between atoms: _27  and  _30
REMARK    5  A    between atoms: _32  and  _33
REMARK    6  A    between atoms: _38  and  _43
REMARK    7  A    between atoms: _43  and  _46
REMARK    8  A    between atoms: _53  and  _55
REMARK                            x       y       z     vdW  Elec       q    Type
REMARK                         _______ _______ _______ _____ _____    ______ ____
ROOT
ATOM     10  C   UNL     1      18.538  32.271   7.269  0.00  0.00    +0.038 A 
ATOM     11  C   UNL     1      18.159  32.501   8.617  0.00  0.00    +0.047 A 
ATOM     12  C   UNL     1      16.797  32.876   8.961  0.00  0.00    +0.035 A 
ATOM     32  C   UNL     1      15.845  33.006   7.909  0.00  0.00    +0.024 A 
ATOM     33  C   UNL     1      16.213  32.776   6.534  0.00  0.00    +0.007 A 
ATOM     34  C   UNL     1      17.556  32.408   6.187  0.00  0.00    -0.029 A 
ATOM     35  C   UNL     1      17.896  32.181   4.696  0.00  0.00    +0.045 C 
ENDROOT
BRANCH  10   9
ATOM      4  C   UNL     1      22.138  29.097   7.210  0.00  0.00    +0.077 A 
ATOM      5  C   UNL     1      21.324  28.073   7.800  0.00  0.00    +0.048 A 
ATOM      6  C   UNL     1      19.987  28.407   8.110  0.00  0.00    +0.116 A 
ATOM      7  N   UNL     1      19.509  29.672   7.845  0.00  0.00    -0.223 NA
ATOM      8  C   UNL     1      20.321  30.636   7.277  0.00  0.00    +0.220 A 
ATOM      9  N   UNL     1      19.860  31.913   6.995  0.00  0.00    -0.283 N 
ATOM     36  H   UNL     1      20.493  32.598   6.583  0.00  0.00    +0.155 HD
ATOM     37  N   UNL     1      21.603  30.343   6.973  0.00  0.00    -0.214 NA
BRANCH   4   3
ATOM      1  C   UNL     1      25.972  28.332   7.351  0.00  0.00    +0.020 A 
ATOM      2  C   UNL     1      24.603  28.512   7.777  0.00  0.00    +0.013 A 
ATOM      3  C   UNL     1      23.571  28.897   6.823  0.00  0.00    +0.019 A 
ATOM     38  C   UNL     1      23.959  29.094   5.434  0.00  0.00    +0.120 A 
ATOM     39  N   UNL     1      25.286  28.914   5.054  0.00  0.00    -0.263 NA
ATOM     40  C   UNL     1      26.288  28.545   5.963  0.00  0.00    +0.111 A 
ENDBRANCH   4   3
ENDBRANCH  10   9
BRANCH  12  13
ATOM     13  N   UNL     1      16.356  33.131  10.310  0.00  0.00    -0.281 N 
ATOM     14  C   UNL     1      16.152  32.212  11.327  0.00  0.00    +0.248 C 
ATOM     30  O   UNL     1      16.114  31.001  11.167  0.00  0.00    -0.270 OA
ATOM     31  H   UNL     1      16.171  34.106  10.544  0.00  0.00    +0.155 HD
BRANCH  14  15
ATOM     15  C   UNL     1      15.948  32.712  12.721  0.00  0.00    +0.037 A 
ATOM     16  C   UNL     1      15.545  31.807  13.801  0.00  0.00    +0.013 A 
ATOM     17  C   UNL     1      15.338  32.318  15.133  0.00  0.00    +0.005 A 
ATOM     18  C   UNL     1      15.535  33.742  15.392  0.00  0.00    -0.033 A 
ATOM     28  C   UNL     1      15.939  34.616  14.304  0.00  0.00    +0.005 A 
ATOM     29  C   UNL     1      16.142  34.119  12.997  0.00  0.00    +0.013 A 
BRANCH  18  19
ATOM     19  C   UNL     1      15.316  34.378  16.778  0.00  0.00    +0.119 C 
BRANCH  19  20
ATOM     20  N   UNL     1      16.453  35.149  17.364  0.00  0.00    -0.302 NA
ATOM     21  C   UNL     1      16.542  36.566  16.791  0.00  0.00    +0.066 C 
ATOM     22  C   UNL     1      17.723  37.366  17.431  0.00  0.00    -0.064 C 
ATOM     23  N   UNL     1      19.032  36.606  17.205  0.00  0.00    +0.379 N 
ATOM     24  C   UNL     1      20.151  37.384  17.755  0.00  0.00    -0.096 C 
ATOM     25  H   UNL     1      19.187  36.522  16.104  0.00  0.00    -0.082 HD
ATOM     26  C   UNL     1      18.950  35.195  17.769  0.00  0.00    -0.064 C 
ATOM     27  C   UNL     1      17.756  34.419  17.148  0.00  0.00    +0.066 C 
ENDBRANCH  19  20
ENDBRANCH  18  19
ENDBRANCH  14  15
ENDBRANCH  12  13
TORSDOF 6
ENDMDL
MODEL 4
REMARK VINA RESULT:      -9.1      8.269     15.686
REMARK  Name = C:\Users\Docking\Desktop\test protocol\1iep_ligandH.pdb
REMARK  8 active torsions:
REMARK  status: ('A' for Active; 'I' for Inactive)
REMARK    1  A    between atoms: _5  and  _11
REMARK    2  A    between atoms: _19  and  _21
REMARK    3  A    between atoms: _22  and  _66
REMARK    4  A    between atoms: _27  and  _30
REMARK    5  A    between atoms: _32  and  _33
REMARK    6  A    between atoms: _38  and  _43
REMARK    7  A    between atoms: _43  and  _46
REMARK    8  A    between atoms: _53  and  _55
REMARK                            x       y       z     vdW  Elec       q    Type
REMARK                         _______ _______ _______ _____ _____    ______ ____
ROOT
ATOM     10  C   UNL     1      18.203  30.453  12.744  0.00  0.00    +0.038 A 
ATOM     11  C   UNL     1      18.641  29.273  13.397  0.00  0.00    +0.047 A 
ATOM     12  C   UNL     1      18.541  27.974  12.751  0.00  0.00    +0.035 A 
ATOM     32  C   UNL     1      17.991  27.913  11.437  0.00  0.00    +0.024 A 
ATOM     33  C   UNL     1      17.540  29.103  10.759  0.00  0.00    +0.007 A 
ATOM     34  C   UNL     1      17.634  30.387  11.393  0.00  0.00    -0.029 A 
ATOM     35  C   UNL     1      17.128  31.628  10.620  0.00  0.00    +0.045 C 
ENDROOT
BRANCH  10   9
ATOM      4  C   UNL     1      16.530  33.842  15.703  0.00  0.00    +0.077 A 
ATOM      5  C   UNL     1      15.301  33.132  15.917  0.00  0.00    +0.048 A 
ATOM      6  C   UNL     1      15.137  31.902  15.242  0.00  0.00    +0.116 A 
ATOM      7  N   UNL     1      16.133  31.427  14.416  0.00  0.00    -0.223 NA
ATOM      8  C   UNL     1      17.304  32.137  14.231  0.00  0.00    +0.220 A 
ATOM      9  N   UNL     1      18.323  31.675  13.411  0.00  0.00    -0.283 N 
ATOM     36  H   UNL     1      19.168  32.232  13.295  0.00  0.00    +0.155 HD
ATOM     37  N   UNL     1      17.485  33.315  14.863  0.00  0.00    -0.214 NA
BRANCH   4   3
ATOM      1  C   UNL     1      16.388  37.586  16.825  0.00  0.00    +0.020 A 
ATOM      2  C   UNL     1      16.031  36.344  16.179  0.00  0.00    +0.013 A 
ATOM      3  C   UNL     1      16.853  35.153  16.349  0.00  0.00    +0.019 A 
ATOM     38  C   UNL     1      18.039  35.253  17.187  0.00  0.00    +0.120 A 
ATOM     39  N   UNL     1      18.358  36.463  17.796  0.00  0.00    -0.263 NA
ATOM     40  C   UNL     1      17.575  37.616  17.638  0.00  0.00    +0.111 A 
ENDBRANCH   4   3
ENDBRANCH  10   9
BRANCH  12  13
ATOM     13  N   UNL     1      18.962  26.741  13.368  0.00  0.00    -0.281 N 
ATOM     14  C   UNL     1      20.220  26.161  13.341  0.00  0.00    +0.248 C 
ATOM     30  O   UNL     1      21.126  26.510  12.599  0.00  0.00    -0.270 OA
ATOM     31  H   UNL     1      18.246  26.233  13.888  0.00  0.00    +0.155 HD
BRANCH  14  15
ATOM     15  C   UNL     1      20.509  25.020  14.262  0.00  0.00    +0.037 A 
ATOM     16  C   UNL     1      20.604  25.217  15.710  0.00  0.00    +0.013 A 
ATOM     17  C   UNL     1      20.901  24.102  16.574  0.00  0.00    +0.005 A 
ATOM     18  C   UNL     1      21.103  22.778  15.990  0.00  0.00    -0.033 A 
ATOM     28  C   UNL     1      20.998  22.609  14.551  0.00  0.00    +0.005 A 
ATOM     29  C   UNL     1      20.709  23.700  13.701  0.00  0.00    +0.013 A 
BRANCH  18  19
ATOM     19  C   UNL     1      21.445  21.535  16.834  0.00  0.00    +0.119 C 
BRANCH  19  20
ATOM     20  N   UNL     1      22.886  21.162  16.950  0.00  0.00    -0.302 NA
ATOM     21  C   UNL     1      23.229  19.925  16.115  0.00  0.00    +0.066 C 
ATOM     22  C   UNL     1      24.745  19.563  16.230  0.00  0.00    -0.064 C 
ATOM     23  N   UNL     1      25.103  19.339  17.700  0.00  0.00    +0.379 N 
ATOM     24  C   UNL     1      26.514  18.942  17.806  0.00  0.00    -0.096 C 
ATOM     25  H   UNL     1      24.483  18.491  18.074  0.00  0.00    -0.082 HD
ATOM     26  C   UNL     1      24.763  20.564  18.538  0.00  0.00    -0.064 C 
ATOM     27  C   UNL     1      23.260  20.933  18.394  0.00  0.00    +0.066 C 
ENDBRANCH  19  20
ENDBRANCH  18  19
ENDBRANCH  14  15
ENDBRANCH  12  13
TORSDOF 6
ENDMDL
MODEL 5
REMARK VINA RESULT:      -9.1      7.698     14.726
REMARK  Name = C:\Users\Docking\Desktop\test protocol\1iep_ligandH.pdb
REMARK  8 active torsions:
REMARK  status: ('A' for Active; 'I' for Inactive)
REMARK    1  A    between atoms: _5  and  _11
REMARK    2  A    between atoms: _19  and  _21
REMARK    3  A    between atoms: _22  and  _66
REMARK    4  A    between atoms: _27  and  _30
REMARK    5  A    between atoms: _32  and  _33
REMARK    6  A    between atoms: _38  and  _43
REMARK    7  A    between atoms: _43  and  _46
REMARK    8  A    between atoms: _53  and  _55
REMARK                            x       y       z     vdW  Elec       q    Type
REMARK                         _______ _______ _______ _____ _____    ______ ____
ROOT
ATOM     10  C   UNL     1      18.494  30.294  13.210  0.00  0.00    +0.038 A 
ATOM     11  C   UNL     1      18.881  29.156  13.962  0.00  0.00    +0.047 A 
ATOM     12  C   UNL     1      18.820  27.820  13.389  0.00  0.00    +0.035 A 
ATOM     32  C   UNL     1      18.363  27.680  12.046  0.00  0.00    +0.024 A 
ATOM     33  C   UNL     1      17.966  28.827  11.268  0.00  0.00    +0.007 A 
ATOM     34  C   UNL     1      18.021  30.147  11.828  0.00  0.00    -0.029 A 
ATOM     35  C   UNL     1      17.576  31.339  10.949  0.00  0.00    +0.045 C 
ENDROOT
BRANCH  10   9
ATOM      4  C   UNL     1      16.609  33.884  15.778  0.00  0.00    +0.077 A 
ATOM      5  C   UNL     1      15.353  33.205  15.914  0.00  0.00    +0.048 A 
ATOM      6  C   UNL     1      15.230  31.937  15.303  0.00  0.00    +0.116 A 
ATOM      7  N   UNL     1      16.292  31.398  14.609  0.00  0.00    -0.223 NA
ATOM      8  C   UNL     1      17.489  32.080  14.495  0.00  0.00    +0.220 A 
ATOM      9  N   UNL     1      18.573  31.553  13.809  0.00  0.00    -0.283 N 
ATOM     36  H   UNL     1      19.436  32.091  13.741  0.00  0.00    +0.155 HD
ATOM     37  N   UNL     1      17.631  33.293  15.069  0.00  0.00    -0.214 NA
BRANCH   4   3
ATOM      1  C   UNL     1      16.340  37.657  16.775  0.00  0.00    +0.020 A 
ATOM      2  C   UNL     1      16.019  36.380  16.181  0.00  0.00    +0.013 A 
ATOM      3  C   UNL     1      16.894  35.229  16.370  0.00  0.00    +0.019 A 
ATOM     38  C   UNL     1      18.095  35.406  17.173  0.00  0.00    +0.120 A 
ATOM     39  N   UNL     1      18.379  36.648  17.731  0.00  0.00    -0.263 NA
ATOM     40  C   UNL     1      17.545  37.763  17.555  0.00  0.00    +0.111 A 
ENDBRANCH   4   3
ENDBRANCH  10   9
BRANCH  12  13
ATOM     13  N   UNL     1      19.192  26.626  14.107  0.00  0.00    -0.281 N 
ATOM     14  C   UNL     1      20.440  26.029  14.179  0.00  0.00    +0.248 C 
ATOM     30  O   UNL     1      21.385  26.314  13.458  0.00  0.00    -0.270 OA
ATOM     31  H   UNL     1      18.444  26.165  14.626  0.00  0.00    +0.155 HD
BRANCH  14  15
ATOM     15  C   UNL     1      20.667  24.949  15.187  0.00  0.00    +0.037 A 
ATOM     16  C   UNL     1      19.859  24.865  16.406  0.00  0.00    +0.013 A 
ATOM     17  C   UNL     1      20.110  23.823  17.370  0.00  0.00    +0.005 A 
ATOM     18  C   UNL     1      21.175  22.855  17.117  0.00  0.00    -0.033 A 
ATOM     28  C   UNL     1      21.957  22.958  15.897  0.00  0.00    +0.005 A 
ATOM     29  C   UNL     1      21.715  23.979  14.950  0.00  0.00    +0.013 A 
BRANCH  18  19
ATOM     19  C   UNL     1      21.527  21.723  18.101  0.00  0.00    +0.119 C 
BRANCH  19  20
ATOM     20  N   UNL     1      22.307  22.094  19.319  0.00  0.00    -0.302 NA
ATOM     21  C   UNL     1      21.404  22.584  20.454  0.00  0.00    +0.066 C 
ATOM     22  C   UNL     1      22.235  22.945  21.728  0.00  0.00    -0.064 C 
ATOM     23  N   UNL     1      23.277  24.007  21.369  0.00  0.00    +0.379 N 
ATOM     24  C   UNL     1      24.021  24.391  22.577  0.00  0.00    -0.096 C 
ATOM     25  H   UNL     1      22.730  24.908  21.007  0.00  0.00    -0.082 HD
ATOM     26  C   UNL     1      24.178  23.529  20.239  0.00  0.00    -0.064 C 
ATOM     27  C   UNL     1      23.340  23.144  18.988  0.00  0.00    +0.066 C 
ENDBRANCH  19  20
ENDBRANCH  18  19
ENDBRANCH  14  15
ENDBRANCH  12  13
TORSDOF 6
ENDMDL
