MODEL 1
REMARK VINA RESULT:      -7.5      0.000      0.000
REMARK  Name = C:\Users\Docking\Desktop\test protocol\1iep_ligandH.pdb
REMARK  8 active torsions:
REMARK  status: ('A' for Active; 'I' for Inactive)
REMARK    1  A    between atoms: _5  and  _11
REMARK    2  A    between atoms: _19  and  _21
REMARK    3  A    between atoms: _22  and  _66
REMARK    4  A    between atoms: _27  and  _30
REMARK    5  A    between atoms: _32  and  _33
REMARK    6  A    between atoms: _38  and  _43
REMARK    7  A    between atoms: _43  and  _46
REMARK    8  A    between atoms: _53  and  _55
REMARK                            x       y       z     vdW  Elec       q    Type
REMARK                         _______ _______ _______ _____ _____    ______ ____
ROOT
ATOM     10  C   UNL     1      10.356  17.727  17.164  0.00  0.00    +0.038 A 
ATOM     11  C   UNL     1      11.448  17.143  17.856  0.00  0.00    +0.047 A 
ATOM     12  C   UNL     1      11.435  15.738  18.232  0.00  0.00    +0.035 A 
ATOM     32  C   UNL     1      10.295  14.956  17.886  0.00  0.00    +0.024 A 
ATOM     33  C   UNL     1       9.176  15.534  17.184  0.00  0.00    +0.007 A 
ATOM     34  C   UNL     1       9.182  16.920  16.812  0.00  0.00    -0.029 A 
ATOM     35  C   UNL     1       7.952  17.487  16.067  0.00  0.00    +0.045 C 
ENDROOT
BRANCH  10   9
ATOM      4  C   UNL     1       9.487  22.360  18.066  0.00  0.00    +0.077 A 
ATOM      5  C   UNL     1       8.823  22.056  19.301  0.00  0.00    +0.048 A 
ATOM      6  C   UNL     1       8.720  20.695  19.664  0.00  0.00    +0.116 A 
ATOM      7  N   UNL     1       9.246  19.718  18.846  0.00  0.00    -0.223 NA
ATOM      8  C   UNL     1       9.879  20.046  17.661  0.00  0.00    +0.220 A 
ATOM      9  N   UNL     1      10.422  19.081  16.827  0.00  0.00    -0.283 N 
ATOM     36  H   UNL     1      10.874  19.362  15.957  0.00  0.00    +0.155 HD
ATOM     37  N   UNL     1       9.989  21.338  17.291  0.00  0.00    -0.214 NA
BRANCH   4   3
ATOM      1  C   UNL     1      10.442  26.144  17.791  0.00  0.00    +0.020 A 
ATOM      2  C   UNL     1      10.280  24.817  18.340  0.00  0.00    +0.013 A 
ATOM      3  C   UNL     1       9.679  23.752  17.547  0.00  0.00    +0.019 A 
ATOM     38  C   UNL     1       9.249  24.064  16.192  0.00  0.00    +0.120 A 
ATOM     39  N   UNL     1       9.417  25.351  15.692  0.00  0.00    -0.263 NA
ATOM     40  C   UNL     1       9.993  26.385  16.445  0.00  0.00    +0.111 A 
ENDBRANCH   4   3
ENDBRANCH  10   9
BRANCH  12  13
ATOM     13  N   UNL     1      12.511  15.091  18.942  0.00  0.00    -0.281 N 
ATOM     14  C   UNL     1      13.752  14.719  18.452  0.00  0.00    +0.248 C 
ATOM     30  O   UNL     1      14.047  14.692  17.267  0.00  0.00    -0.270 OA
ATOM     31  H   UNL     1      12.336  14.883  19.926  0.00  0.00    +0.155 HD
BRANCH  14  15
ATOM     15  C   UNL     1      14.814  14.302  19.418  0.00  0.00    +0.037 A 
ATOM     16  C   UNL     1      16.137  14.931  19.411  0.00  0.00    +0.013 A 
ATOM     17  C   UNL     1      17.149  14.498  20.341  0.00  0.00    +0.005 A 
ATOM     18  C   UNL     1      16.840  13.430  21.289  0.00  0.00    -0.033 A 
ATOM     28  C   UNL     1      15.518  12.827  21.278  0.00  0.00    +0.005 A 
ATOM     29  C   UNL     1      14.524  13.248  20.366  0.00  0.00    +0.013 A 
BRANCH  18  19
ATOM     19  C   UNL     1      17.865  12.890  22.304  0.00  0.00    +0.119 C 
BRANCH  19  20
ATOM     20  N   UNL     1      17.746  11.454  22.698  0.00  0.00    -0.302 NA
ATOM     21  C   UNL     1      16.810  11.263  23.894  0.00  0.00    +0.066 C 
ATOM     22  C   UNL     1      16.679   9.753  24.278  0.00  0.00    -0.064 C 
ATOM     23  N   UNL     1      18.067   9.185  24.581  0.00  0.00    +0.379 N 
ATOM     24  C   UNL     1      17.942   7.781  24.999  0.00  0.00    -0.096 C 
ATOM     25  H   UNL     1      18.486   9.758  25.440  0.00  0.00    -0.082 HD
ATOM     26  C   UNL     1      19.006   9.374  23.398  0.00  0.00    -0.064 C 
ATOM     27  C   UNL     1      19.105  10.874  23.005  0.00  0.00    +0.066 C 
ENDBRANCH  19  20
ENDBRANCH  18  19
ENDBRANCH  14  15
ENDBRANCH  12  13
TORSDOF 6
ENDMDL
MODEL 2
REMARK VINA RESULT:      -7.2      6.314      8.681
REMARK  Name = C:\Users\Docking\Desktop\test protocol\1iep_ligandH.pdb
REMARK  8 active torsions:
REMARK  status: ('A' for Active; 'I' for Inactive)
REMARK    1  A    between atoms: _5  and  _11
REMARK    2  A    between atoms: _19  and  _21
REMARK    3  A    between atoms: _22  and  _66
REMARK    4  A    between atoms: _27  and  _30
REMARK    5  A    between atoms: _32  and  _33
REMARK    6  A    between atoms: _38  and  _43
REMARK    7  A    between atoms: _43  and  _46
REMARK    8  A    between atoms: _53  and  _55
REMARK                            x       y       z     vdW  Elec       q    Type
REMARK                         _______ _______ _______ _____ _____    ______ ____
ROOT
ATOM     10  C   UNL     1       9.565  24.142  16.354  0.00  0.00    +0.038 A 
ATOM     11  C   UNL     1       9.328  22.920  17.033  0.00  0.00    +0.047 A 
ATOM     12  C   UNL     1       9.261  22.867  18.485  0.00  0.00    +0.035 A 
ATOM     32  C   UNL     1       9.438  24.078  19.214  0.00  0.00    +0.024 A 
ATOM     33  C   UNL     1       9.681  25.330  18.540  0.00  0.00    +0.007 A 
ATOM     34  C   UNL     1       9.750  25.388  17.108  0.00  0.00    -0.029 A 
ATOM     35  C   UNL     1      10.020  26.756  16.439  0.00  0.00    +0.045 C 
ENDROOT
BRANCH  10   9
ATOM      4  C   UNL     1       7.472  24.264  12.036  0.00  0.00    +0.077 A 
ATOM      5  C   UNL     1       6.158  24.318  12.609  0.00  0.00    +0.048 A 
ATOM      6  C   UNL     1       6.064  24.306  14.019  0.00  0.00    +0.116 A 
ATOM      7  N   UNL     1       7.205  24.244  14.788  0.00  0.00    -0.223 NA
ATOM      8  C   UNL     1       8.457  24.191  14.204  0.00  0.00    +0.220 A 
ATOM      9  N   UNL     1       9.619  24.136  14.958  0.00  0.00    -0.283 N 
ATOM     36  H   UNL     1      10.523  24.090  14.489  0.00  0.00    +0.155 HD
ATOM     37  N   UNL     1       8.574  24.200  12.859  0.00  0.00    -0.214 NA
BRANCH   4   3
ATOM      1  C   UNL     1       9.041  23.574   8.520  0.00  0.00    +0.020 A 
ATOM      2  C   UNL     1       8.830  23.533   9.949  0.00  0.00    +0.013 A 
ATOM      3  C   UNL     1       7.735  24.273  10.562  0.00  0.00    +0.019 A 
ATOM     38  C   UNL     1       6.864  25.052   9.695  0.00  0.00    +0.120 A 
ATOM     39  N   UNL     1       7.092  25.074   8.323  0.00  0.00    -0.263 NA
ATOM     40  C   UNL     1       8.144  24.367   7.721  0.00  0.00    +0.111 A 
ENDBRANCH   4   3
ENDBRANCH  10   9
BRANCH  12  13
ATOM     13  N   UNL     1       9.031  21.654  19.230  0.00  0.00    -0.281 N 
ATOM     14  C   UNL     1       9.692  20.442  19.109  0.00  0.00    +0.248 C 
ATOM     30  O   UNL     1      10.443  20.153  18.190  0.00  0.00    -0.270 OA
ATOM     31  H   UNL     1       8.291  21.693  19.931  0.00  0.00    +0.155 HD
BRANCH  14  15
ATOM     15  C   UNL     1       9.477  19.395  20.154  0.00  0.00    +0.037 A 
ATOM     16  C   UNL     1       8.449  18.364  19.996  0.00  0.00    +0.013 A 
ATOM     17  C   UNL     1       8.250  17.376  21.027  0.00  0.00    +0.005 A 
ATOM     18  C   UNL     1       9.085  17.414  22.225  0.00  0.00    -0.033 A 
ATOM     28  C   UNL     1      10.101  18.446  22.354  0.00  0.00    +0.005 A 
ATOM     29  C   UNL     1      10.297  19.416  21.346  0.00  0.00    +0.013 A 
BRANCH  18  19
ATOM     19  C   UNL     1       8.929  16.413  23.385  0.00  0.00    +0.119 C 
BRANCH  19  20
ATOM     20  N   UNL     1       9.318  16.881  24.749  0.00  0.00    -0.302 NA
ATOM     21  C   UNL     1       9.968  15.767  25.575  0.00  0.00    +0.066 C 
ATOM     22  C   UNL     1      10.390  16.280  26.990  0.00  0.00    -0.064 C 
ATOM     23  N   UNL     1       9.164  16.843  27.711  0.00  0.00    +0.379 N 
ATOM     24  C   UNL     1       9.546  17.273  29.065  0.00  0.00    -0.096 C 
ATOM     25  H   UNL     1       8.423  16.016  27.815  0.00  0.00    -0.082 HD
ATOM     26  C   UNL     1       8.510  17.949  26.896  0.00  0.00    -0.064 C 
ATOM     27  C   UNL     1       8.121  17.437  25.481  0.00  0.00    +0.066 C 
ENDBRANCH  19  20
ENDBRANCH  18  19
ENDBRANCH  14  15
ENDBRANCH  12  13
TORSDOF 6
ENDMDL
MODEL 3
REMARK VINA RESULT:      -7.1      1.959     13.095
REMARK  Name = C:\Users\Docking\Desktop\test protocol\1iep_ligandH.pdb
REMARK  8 active torsions:
REMARK  status: ('A' for Active; 'I' for Inactive)
REMARK    1  A    between atoms: _5  and  _11
REMARK    2  A    between atoms: _19  and  _21
REMARK    3  A    between atoms: _22  and  _66
REMARK    4  A    between atoms: _27  and  _30
REMARK    5  A    between atoms: _32  and  _33
REMARK    6  A    between atoms: _38  and  _43
REMARK    7  A    between atoms: _43  and  _46
REMARK    8  A    between atoms: _53  and  _55
REMARK                            x       y       z     vdW  Elec       q    Type
REMARK                         _______ _______ _______ _____ _____    ______ ____
ROOT
ATOM     10  C   UNL     1      15.737  13.181  19.253  0.00  0.00    +0.038 A 
ATOM     11  C   UNL     1      14.878  14.309  19.262  0.00  0.00    +0.047 A 
ATOM     12  C   UNL     1      14.247  14.784  18.040  0.00  0.00    +0.035 A 
ATOM     32  C   UNL     1      14.511  14.084  16.827  0.00  0.00    +0.024 A 
ATOM     33  C   UNL     1      15.383  12.936  16.800  0.00  0.00    +0.007 A 
ATOM     34  C   UNL     1      16.010  12.464  18.001  0.00  0.00    -0.029 A 
ATOM     35  C   UNL     1      16.940  11.232  17.912  0.00  0.00    +0.045 C 
ENDROOT
BRANCH  10   9
ATOM      4  C   UNL     1      15.702  10.606  23.304  0.00  0.00    +0.077 A 
ATOM      5  C   UNL     1      14.409  10.057  23.013  0.00  0.00    +0.048 A 
ATOM      6  C   UNL     1      13.784  10.468  21.815  0.00  0.00    +0.116 A 
ATOM      7  N   UNL     1      14.414  11.362  20.977  0.00  0.00    -0.223 NA
ATOM      8  C   UNL     1      15.660  11.874  21.287  0.00  0.00    +0.220 A 
ATOM      9  N   UNL     1      16.316  12.768  20.455  0.00  0.00    -0.283 N 
ATOM     36  H   UNL     1      17.231  13.129  20.724  0.00  0.00    +0.155 HD
ATOM     37  N   UNL     1      16.278  11.498  22.427  0.00  0.00    -0.214 NA
BRANCH   4   3
ATOM      1  C   UNL     1      16.680   9.545  26.939  0.00  0.00    +0.020 A 
ATOM      2  C   UNL     1      15.871   9.863  25.785  0.00  0.00    +0.013 A 
ATOM      3  C   UNL     1      16.492  10.267  24.529  0.00  0.00    +0.019 A 
ATOM     38  C   UNL     1      17.944  10.338  24.475  0.00  0.00    +0.120 A 
ATOM     39  N   UNL     1      18.697  10.027  25.603  0.00  0.00    -0.263 NA
ATOM     40  C   UNL     1      18.111   9.639  26.817  0.00  0.00    +0.111 A 
ENDBRANCH   4   3
ENDBRANCH  10   9
BRANCH  12  13
ATOM     13  N   UNL     1      13.372  15.929  17.986  0.00  0.00    -0.281 N 
ATOM     14  C   UNL     1      12.010  15.973  18.239  0.00  0.00    +0.248 C 
ATOM     30  O   UNL     1      11.295  14.988  18.343  0.00  0.00    -0.270 OA
ATOM     31  H   UNL     1      13.809  16.814  17.730  0.00  0.00    +0.155 HD
BRANCH  14  15
ATOM     15  C   UNL     1      11.345  17.303  18.383  0.00  0.00    +0.037 A 
ATOM     16  C   UNL     1      10.345  17.544  19.426  0.00  0.00    +0.013 A 
ATOM     17  C   UNL     1       9.706  18.832  19.532  0.00  0.00    +0.005 A 
ATOM     18  C   UNL     1      10.068  19.890  18.592  0.00  0.00    -0.033 A 
ATOM     28  C   UNL     1      11.067  19.626  17.570  0.00  0.00    +0.005 A 
ATOM     29  C   UNL     1      11.695  18.365  17.462  0.00  0.00    +0.013 A 
BRANCH  18  19
ATOM     19  C   UNL     1       9.422  21.288  18.618  0.00  0.00    +0.119 C 
BRANCH  19  20
ATOM     20  N   UNL     1       9.655  22.171  17.436  0.00  0.00    -0.302 NA
ATOM     21  C   UNL     1       9.919  23.623  17.847  0.00  0.00    +0.066 C 
ATOM     22  C   UNL     1      10.183  24.528  16.600  0.00  0.00    -0.064 C 
ATOM     23  N   UNL     1       8.988  24.443  15.648  0.00  0.00    +0.379 N 
ATOM     24  C   UNL     1       9.209  25.337  14.503  0.00  0.00    -0.096 C 
ATOM     25  H   UNL     1       8.091  24.811  16.198  0.00  0.00    -0.082 HD
ATOM     26  C   UNL     1       8.718  23.002  15.237  0.00  0.00    -0.064 C 
ATOM     27  C   UNL     1       8.486  22.105  16.485  0.00  0.00    +0.066 C 
ENDBRANCH  19  20
ENDBRANCH  18  19
ENDBRANCH  14  15
ENDBRANCH  12  13
TORSDOF 6
ENDMDL
MODEL 4
REMARK VINA RESULT:      -7.1      7.411      8.074
REMARK  Name = C:\Users\Docking\Desktop\test protocol\1iep_ligandH.pdb
REMARK  8 active torsions:
REMARK  status: ('A' for Active; 'I' for Inactive)
REMARK    1  A    between atoms: _5  and  _11
REMARK    2  A    between atoms: _19  and  _21
REMARK    3  A    between atoms: _22  and  _66
REMARK    4  A    between atoms: _27  and  _30
REMARK    5  A    between atoms: _32  and  _33
REMARK    6  A    between atoms: _38  and  _43
REMARK    7  A    between atoms: _43  and  _46
REMARK    8  A    between atoms: _53  and  _55
REMARK                            x       y       z     vdW  Elec       q    Type
REMARK                         _______ _______ _______ _____ _____    ______ ____
ROOT
ATOM     10  C   UNL     1       8.964  18.423  20.731  0.00  0.00    +0.038 A 
ATOM     11  C   UNL     1       9.529  18.299  22.026  0.00  0.00    +0.047 A 
ATOM     12  C   UNL     1       9.161  17.200  22.906  0.00  0.00    +0.035 A 
ATOM     32  C   UNL     1       8.216  16.244  22.433  0.00  0.00    +0.024 A 
ATOM     33  C   UNL     1       7.631  16.355  21.120  0.00  0.00    +0.007 A 
ATOM     34  C   UNL     1       7.988  17.438  20.249  0.00  0.00    -0.029 A 
ATOM     35  C   UNL     1       7.323  17.511  18.855  0.00  0.00    +0.045 C 
ENDROOT
BRANCH  10   9
ATOM      4  C   UNL     1       8.593  22.990  19.302  0.00  0.00    +0.077 A 
ATOM      5  C   UNL     1       7.515  23.249  20.212  0.00  0.00    +0.048 A 
ATOM      6  C   UNL     1       7.081  22.179  21.026  0.00  0.00    +0.116 A 
ATOM      7  N   UNL     1       7.687  20.945  20.928  0.00  0.00    -0.223 NA
ATOM      8  C   UNL     1       8.723  20.728  20.038  0.00  0.00    +0.220 A 
ATOM      9  N   UNL     1       9.353  19.498  19.929  0.00  0.00    -0.283 N 
ATOM     36  H   UNL     1      10.108  19.376  19.255  0.00  0.00    +0.155 HD
ATOM     37  N   UNL     1       9.155  21.734  19.249  0.00  0.00    -0.214 NA
BRANCH   4   3
ATOM      1  C   UNL     1      10.323  26.214  17.919  0.00  0.00    +0.020 A 
ATOM      2  C   UNL     1       9.785  25.252  18.852  0.00  0.00    +0.013 A 
ATOM      3  C   UNL     1       9.165  24.020  18.379  0.00  0.00    +0.019 A 
ATOM     38  C   UNL     1       9.107  23.791  16.943  0.00  0.00    +0.120 A 
ATOM     39  N   UNL     1       9.632  24.736  16.068  0.00  0.00    -0.263 NA
ATOM     40  C   UNL     1      10.229  25.926  16.512  0.00  0.00    +0.111 A 
ENDBRANCH   4   3
ENDBRANCH  10   9
BRANCH  12  13
ATOM     13  N   UNL     1       9.696  17.027  24.233  0.00  0.00    -0.281 N 
ATOM     14  C   UNL     1       9.123  17.399  25.438  0.00  0.00    +0.248 C 
ATOM     30  O   UNL     1       8.153  18.135  25.543  0.00  0.00    -0.270 OA
ATOM     31  H   UNL     1      10.609  16.575  24.292  0.00  0.00    +0.155 HD
BRANCH  14  15
ATOM     15  C   UNL     1       9.722  16.893  26.710  0.00  0.00    +0.037 A 
ATOM     16  C   UNL     1      10.839  15.945  26.700  0.00  0.00    +0.013 A 
ATOM     17  C   UNL     1      11.387  15.460  27.941  0.00  0.00    +0.005 A 
ATOM     18  C   UNL     1      10.819  15.924  29.205  0.00  0.00    -0.033 A 
ATOM     28  C   UNL     1       9.715  16.869  29.186  0.00  0.00    +0.005 A 
ATOM     29  C   UNL     1       9.174  17.346  27.971  0.00  0.00    +0.013 A 
BRANCH  18  19
ATOM     19  C   UNL     1      11.327  15.442  30.577  0.00  0.00    +0.119 C 
BRANCH  19  20
ATOM     20  N   UNL     1      10.307  15.217  31.644  0.00  0.00    -0.302 NA
ATOM     21  C   UNL     1      10.419  16.246  32.772  0.00  0.00    +0.066 C 
ATOM     22  C   UNL     1       9.329  16.010  33.868  0.00  0.00    -0.064 C 
ATOM     23  N   UNL     1       9.462  14.588  34.417  0.00  0.00    +0.379 N 
ATOM     24  C   UNL     1       8.476  14.381  35.488  0.00  0.00    -0.096 C 
ATOM     25  H   UNL     1      10.477  14.492  34.867  0.00  0.00    -0.082 HD
ATOM     26  C   UNL     1       9.354  13.558  33.300  0.00  0.00    -0.064 C 
ATOM     27  C   UNL     1      10.422  13.820  32.202  0.00  0.00    +0.066 C 
ENDBRANCH  19  20
ENDBRANCH  18  19
ENDBRANCH  14  15
ENDBRANCH  12  13
TORSDOF 6
ENDMDL
MODEL 5
REMARK VINA RESULT:      -7.0      7.975     12.988
REMARK  Name = C:\Users\Docking\Desktop\test protocol\1iep_ligandH.pdb
REMARK  8 active torsions:
REMARK  status: ('A' for Active; 'I' for Inactive)
REMARK    1  A    between atoms: _5  and  _11
REMARK    2  A    between atoms: _19  and  _21
REMARK    3  A    between atoms: _22  and  _66
REMARK    4  A    between atoms: _27  and  _30
REMARK    5  A    between atoms: _32  and  _33
REMARK    6  A    between atoms: _38  and  _43
REMARK    7  A    between atoms: _43  and  _46
REMARK    8  A    between atoms: _53  and  _55
REMARK                            x       y       z     vdW  Elec       q    Type
REMARK                         _______ _______ _______ _____ _____    ______ ____
ROOT
ATOM     10  C   UNL     1      12.179  16.271  16.039  0.00  0.00    +0.038 A 
ATOM     11  C   UNL     1      12.867  16.523  14.825  0.00  0.00    +0.047 A 
ATOM     12  C   UNL     1      12.147  16.686  13.572  0.00  0.00    +0.035 A 
ATOM     32  C   UNL     1      10.725  16.588  13.592  0.00  0.00    +0.024 A 
ATOM     33  C   UNL     1      10.009  16.331  14.817  0.00  0.00    +0.007 A 
ATOM     34  C   UNL     1      10.715  16.167  16.056  0.00  0.00    -0.029 A 
ATOM     35  C   UNL     1       9.896  15.887  17.338  0.00  0.00    +0.045 C 
ENDROOT
BRANCH  10   9
ATOM      4  C   UNL     1      15.015  13.732  18.962  0.00  0.00    +0.077 A 
ATOM      5  C   UNL     1      14.996  12.594  18.089  0.00  0.00    +0.048 A 
ATOM      6  C   UNL     1      14.239  12.700  16.901  0.00  0.00    +0.116 A 
ATOM      7  N   UNL     1      13.556  13.863  16.618  0.00  0.00    -0.223 NA
ATOM      8  C   UNL     1      13.594  14.941  17.482  0.00  0.00    +0.220 A 
ATOM      9  N   UNL     1      12.921  16.123  17.213  0.00  0.00    -0.283 N 
ATOM     36  H   UNL     1      12.968  16.893  17.880  0.00  0.00    +0.155 HD
ATOM     37  N   UNL     1      14.309  14.864  18.624  0.00  0.00    -0.214 NA
BRANCH   4   3
ATOM      1  C   UNL     1      17.540  14.732  21.778  0.00  0.00    +0.020 A 
ATOM      2  C   UNL     1      16.840  14.732  20.514  0.00  0.00    +0.013 A 
ATOM      3  C   UNL     1      15.773  13.775  20.253  0.00  0.00    +0.019 A 
ATOM     38  C   UNL     1      15.435  12.822  21.300  0.00  0.00    +0.120 A 
ATOM     39  N   UNL     1      16.127  12.844  22.507  0.00  0.00    -0.263 NA
ATOM     40  C   UNL     1      17.157  13.760  22.769  0.00  0.00    +0.111 A 
ENDBRANCH   4   3
ENDBRANCH  10   9
BRANCH  12  13
ATOM     13  N   UNL     1      12.792  16.935  12.306  0.00  0.00    -0.281 N 
ATOM     14  C   UNL     1      13.207  16.008  11.364  0.00  0.00    +0.248 C 
ATOM     30  O   UNL     1      13.279  14.804  11.564  0.00  0.00    -0.270 OA
ATOM     31  H   UNL     1      12.964  17.914  12.078  0.00  0.00    +0.155 HD
BRANCH  14  15
ATOM     15  C   UNL     1      13.614  16.488  10.009  0.00  0.00    +0.037 A 
ATOM     16  C   UNL     1      14.239  15.586   9.039  0.00  0.00    +0.013 A 
ATOM     17  C   UNL     1      14.639  16.079   7.745  0.00  0.00    +0.005 A 
ATOM     18  C   UNL     1      14.412  17.484   7.413  0.00  0.00    -0.033 A 
ATOM     28  C   UNL     1      13.785  18.356   8.392  0.00  0.00    +0.005 A 
ATOM     29  C   UNL     1      13.394  17.876   9.662  0.00  0.00    +0.013 A 
BRANCH  18  19
ATOM     19  C   UNL     1      14.825  18.101   6.064  0.00  0.00    +0.119 C 
BRANCH  19  20
ATOM     20  N   UNL     1      16.286  18.164   5.759  0.00  0.00    -0.302 NA
ATOM     21  C   UNL     1      16.696  19.526   5.192  0.00  0.00    +0.066 C 
ATOM     22  C   UNL     1      18.231  19.582   4.900  0.00  0.00    -0.064 C 
ATOM     23  N   UNL     1      18.605  18.458   3.933  0.00  0.00    +0.379 N 
ATOM     24  C   UNL     1      20.037  18.543   3.611  0.00  0.00    -0.096 C 
ATOM     25  H   UNL     1      18.036  18.621   2.989  0.00  0.00    -0.082 HD
ATOM     26  C   UNL     1      18.198  17.100   4.488  0.00  0.00    -0.064 C 
ATOM     27  C   UNL     1      16.676  17.065   4.802  0.00  0.00    +0.066 C 
ENDBRANCH  19  20
ENDBRANCH  18  19
ENDBRANCH  14  15
ENDBRANCH  12  13
TORSDOF 6
ENDMDL
