MODEL 1
REMARK VINA RESULT:      -7.1      0.000      0.000
REMARK  Name = C:\Users\Docking\Desktop\test protocol\1iep_ligandH.pdb
REMARK  8 active torsions:
REMARK  status: ('A' for Active; 'I' for Inactive)
REMARK    1  A    between atoms: _5  and  _11
REMARK    2  A    between atoms: _19  and  _21
REMARK    3  A    between atoms: _22  and  _66
REMARK    4  A    between atoms: _27  and  _30
REMARK    5  A    between atoms: _32  and  _33
REMARK    6  A    between atoms: _38  and  _43
REMARK    7  A    between atoms: _43  and  _46
REMARK    8  A    between atoms: _53  and  _55
REMARK                            x       y       z     vdW  Elec       q    Type
REMARK                         _______ _______ _______ _____ _____    ______ ____
ROOT
ATOM     10  C   UNL     1      19.848  70.336  26.375  0.00  0.00    +0.038 A 
ATOM     11  C   UNL     1      21.090  70.272  25.692  0.00  0.00    +0.047 A 
ATOM     12  C   UNL     1      22.288  70.877  26.253  0.00  0.00    +0.035 A 
ATOM     32  C   UNL     1      22.187  71.536  27.512  0.00  0.00    +0.024 A 
ATOM     33  C   UNL     1      20.933  71.611  28.220  0.00  0.00    +0.007 A 
ATOM     34  C   UNL     1      19.746  71.019  27.671  0.00  0.00    -0.029 A 
ATOM     35  C   UNL     1      18.427  71.136  28.470  0.00  0.00    +0.045 C 
ENDROOT
BRANCH  10   9
ATOM      4  C   UNL     1      16.165  70.349  23.297  0.00  0.00    +0.077 A 
ATOM      5  C   UNL     1      16.481  71.669  22.833  0.00  0.00    +0.048 A 
ATOM      6  C   UNL     1      17.595  72.313  23.417  0.00  0.00    +0.116 A 
ATOM      7  N   UNL     1      18.331  71.675  24.391  0.00  0.00    -0.223 NA
ATOM      8  C   UNL     1      17.998  70.402  24.818  0.00  0.00    +0.220 A 
ATOM      9  N   UNL     1      18.729  69.739  25.791  0.00  0.00    -0.283 N 
ATOM     36  H   UNL     1      18.446  68.804  26.084  0.00  0.00    +0.155 HD
ATOM     37  N   UNL     1      16.938  69.767  24.277  0.00  0.00    -0.214 NA
BRANCH   4   3
ATOM      1  C   UNL     1      13.637  67.431  22.670  0.00  0.00    +0.020 A 
ATOM      2  C   UNL     1      14.757  68.170  23.205  0.00  0.00    +0.013 A 
ATOM      3  C   UNL     1      15.020  69.538  22.775  0.00  0.00    +0.019 A 
ATOM     38  C   UNL     1      14.123  70.133  21.797  0.00  0.00    +0.120 A 
ATOM     39  N   UNL     1      13.053  69.396  21.298  0.00  0.00    -0.263 NA
ATOM     40  C   UNL     1      12.792  68.079  21.703  0.00  0.00    +0.111 A 
ENDBRANCH   4   3
ENDBRANCH  10   9
BRANCH  12  13
ATOM     13  N   UNL     1      23.575  70.851  25.602  0.00  0.00    -0.281 N 
ATOM     14  C   UNL     1      24.748  70.271  26.056  0.00  0.00    +0.248 C 
ATOM     30  O   UNL     1      24.923  69.869  27.197  0.00  0.00    -0.270 OA
ATOM     31  H   UNL     1      23.626  71.317  24.696  0.00  0.00    +0.155 HD
BRANCH  14  15
ATOM     15  C   UNL     1      25.897  70.131  25.111  0.00  0.00    +0.037 A 
ATOM     16  C   UNL     1      26.800  68.980  25.179  0.00  0.00    +0.013 A 
ATOM     17  C   UNL     1      27.912  68.878  24.266  0.00  0.00    +0.005 A 
ATOM     18  C   UNL     1      28.125  69.932  23.277  0.00  0.00    -0.033 A 
ATOM     28  C   UNL     1      27.211  71.061  23.229  0.00  0.00    +0.005 A 
ATOM     29  C   UNL     1      26.121  71.164  24.122  0.00  0.00    +0.013 A 
BRANCH  18  19
ATOM     19  C   UNL     1      29.297  69.916  22.278  0.00  0.00    +0.119 C 
BRANCH  19  20
ATOM     20  N   UNL     1      29.742  71.230  21.725  0.00  0.00    -0.302 NA
ATOM     21  C   UNL     1      29.462  71.346  20.224  0.00  0.00    +0.066 C 
ATOM     22  C   UNL     1      29.913  72.735  19.667  0.00  0.00    -0.064 C 
ATOM     23  N   UNL     1      31.400  72.940  19.958  0.00  0.00    +0.379 N 
ATOM     24  C   UNL     1      31.841  74.220  19.384  0.00  0.00    -0.096 C 
ATOM     25  H   UNL     1      31.961  72.127  19.441  0.00  0.00    -0.082 HD
ATOM     26  C   UNL     1      31.688  72.824  21.448  0.00  0.00    -0.064 C 
ATOM     27  C   UNL     1      31.210  71.451  21.997  0.00  0.00    +0.066 C 
ENDBRANCH  19  20
ENDBRANCH  18  19
ENDBRANCH  14  15
ENDBRANCH  12  13
TORSDOF 6
ENDMDL
MODEL 2
REMARK VINA RESULT:      -7.1      2.086     12.556
REMARK  Name = C:\Users\Docking\Desktop\test protocol\1iep_ligandH.pdb
REMARK  8 active torsions:
REMARK  status: ('A' for Active; 'I' for Inactive)
REMARK    1  A    between atoms: _5  and  _11
REMARK    2  A    between atoms: _19  and  _21
REMARK    3  A    between atoms: _22  and  _66
REMARK    4  A    between atoms: _27  and  _30
REMARK    5  A    between atoms: _32  and  _33
REMARK    6  A    between atoms: _38  and  _43
REMARK    7  A    between atoms: _43  and  _46
REMARK    8  A    between atoms: _53  and  _55
REMARK                            x       y       z     vdW  Elec       q    Type
REMARK                         _______ _______ _______ _____ _____    ______ ____
ROOT
ATOM     10  C   UNL     1      24.480  70.125  25.569  0.00  0.00    +0.038 A 
ATOM     11  C   UNL     1      23.190  70.174  24.982  0.00  0.00    +0.047 A 
ATOM     12  C   UNL     1      21.994  70.289  25.802  0.00  0.00    +0.035 A 
ATOM     32  C   UNL     1      22.149  70.355  27.217  0.00  0.00    +0.024 A 
ATOM     33  C   UNL     1      23.453  70.306  27.831  0.00  0.00    +0.007 A 
ATOM     34  C   UNL     1      24.636  70.190  27.028  0.00  0.00    -0.029 A 
ATOM     35  C   UNL     1      26.007  70.135  27.740  0.00  0.00    +0.045 C 
ENDROOT
BRANCH  10   9
ATOM      4  C   UNL     1      27.846  72.031  22.727  0.00  0.00    +0.077 A 
ATOM      5  C   UNL     1      27.323  73.356  22.898  0.00  0.00    +0.048 A 
ATOM      6  C   UNL     1      26.183  73.504  23.719  0.00  0.00    +0.116 A 
ATOM      7  N   UNL     1      25.616  72.401  24.320  0.00  0.00    -0.223 NA
ATOM      8  C   UNL     1      26.144  71.137  24.133  0.00  0.00    +0.220 A 
ATOM      9  N   UNL     1      25.595  70.015  24.735  0.00  0.00    -0.283 N 
ATOM     36  H   UNL     1      26.009  69.098  24.566  0.00  0.00    +0.155 HD
ATOM     37  N   UNL     1      27.231  70.969  23.352  0.00  0.00    -0.214 NA
BRANCH   4   3
ATOM      1  C   UNL     1      30.890  72.353  20.292  0.00  0.00    +0.020 A 
ATOM      2  C   UNL     1      29.733  72.711  21.080  0.00  0.00    +0.013 A 
ATOM      3  C   UNL     1      29.047  71.714  21.891  0.00  0.00    +0.019 A 
ATOM     38  C   UNL     1      29.561  70.353  21.884  0.00  0.00    +0.120 A 
ATOM     39  N   UNL     1      30.676  70.037  21.114  0.00  0.00    -0.263 NA
ATOM     40  C   UNL     1      31.343  70.988  20.327  0.00  0.00    +0.111 A 
ENDBRANCH   4   3
ENDBRANCH  10   9
BRANCH  12  13
ATOM     13  N   UNL     1      20.658  70.335  25.262  0.00  0.00    -0.281 N 
ATOM     14  C   UNL     1      20.072  71.349  24.523  0.00  0.00    +0.248 C 
ATOM     30  O   UNL     1      20.542  72.470  24.394  0.00  0.00    -0.270 OA
ATOM     31  H   UNL     1      20.072  69.520  25.448  0.00  0.00    +0.155 HD
BRANCH  14  15
ATOM     15  C   UNL     1      18.769  71.085  23.839  0.00  0.00    +0.037 A 
ATOM     16  C   UNL     1      18.533  71.520  22.460  0.00  0.00    +0.013 A 
ATOM     17  C   UNL     1      17.261  71.268  21.830  0.00  0.00    +0.005 A 
ATOM     18  C   UNL     1      16.216  70.575  22.580  0.00  0.00    -0.033 A 
ATOM     28  C   UNL     1      16.479  70.150  23.944  0.00  0.00    +0.005 A 
ATOM     29  C   UNL     1      17.724  70.396  24.566  0.00  0.00    +0.013 A 
BRANCH  18  19
ATOM     19  C   UNL     1      14.822  70.282  21.994  0.00  0.00    +0.119 C 
BRANCH  19  20
ATOM     20  N   UNL     1      13.986  69.263  22.696  0.00  0.00    -0.302 NA
ATOM     21  C   UNL     1      14.067  67.890  22.023  0.00  0.00    +0.066 C 
ATOM     22  C   UNL     1      13.204  66.831  22.783  0.00  0.00    -0.064 C 
ATOM     23  N   UNL     1      11.755  67.314  22.855  0.00  0.00    +0.379 N 
ATOM     24  C   UNL     1      10.930  66.294  23.518  0.00  0.00    -0.096 C 
ATOM     25  H   UNL     1      11.383  67.423  21.809  0.00  0.00    -0.082 HD
ATOM     26  C   UNL     1      11.665  68.680  23.521  0.00  0.00    -0.064 C 
ATOM     27  C   UNL     1      12.549  69.718  22.775  0.00  0.00    +0.066 C 
ENDBRANCH  19  20
ENDBRANCH  18  19
ENDBRANCH  14  15
ENDBRANCH  12  13
TORSDOF 6
ENDMDL
MODEL 3
REMARK VINA RESULT:      -6.9      2.273     12.845
REMARK  Name = C:\Users\Docking\Desktop\test protocol\1iep_ligandH.pdb
REMARK  8 active torsions:
REMARK  status: ('A' for Active; 'I' for Inactive)
REMARK    1  A    between atoms: _5  and  _11
REMARK    2  A    between atoms: _19  and  _21
REMARK    3  A    between atoms: _22  and  _66
REMARK    4  A    between atoms: _27  and  _30
REMARK    5  A    between atoms: _32  and  _33
REMARK    6  A    between atoms: _38  and  _43
REMARK    7  A    between atoms: _43  and  _46
REMARK    8  A    between atoms: _53  and  _55
REMARK                            x       y       z     vdW  Elec       q    Type
REMARK                         _______ _______ _______ _____ _____    ______ ____
ROOT
ATOM     10  C   UNL     1      24.618  72.496  24.471  0.00  0.00    +0.038 A 
ATOM     11  C   UNL     1      23.336  72.132  23.984  0.00  0.00    +0.047 A 
ATOM     12  C   UNL     1      22.293  71.667  24.885  0.00  0.00    +0.035 A 
ATOM     32  C   UNL     1      22.590  71.587  26.277  0.00  0.00    +0.024 A 
ATOM     33  C   UNL     1      23.887  71.951  26.789  0.00  0.00    +0.007 A 
ATOM     34  C   UNL     1      24.921  72.408  25.905  0.00  0.00    -0.029 A 
ATOM     35  C   UNL     1      26.295  72.779  26.508  0.00  0.00    +0.045 C 
ENDROOT
BRANCH  10   9
ATOM      4  C   UNL     1      28.529  71.795  21.778  0.00  0.00    +0.077 A 
ATOM      5  C   UNL     1      28.681  70.447  22.244  0.00  0.00    +0.048 A 
ATOM      6  C   UNL     1      27.735  69.974  23.182  0.00  0.00    +0.116 A 
ATOM      7  N   UNL     1      26.718  70.797  23.614  0.00  0.00    -0.223 NA
ATOM      8  C   UNL     1      26.602  72.093  23.146  0.00  0.00    +0.220 A 
ATOM      9  N   UNL     1      25.582  72.936  23.561  0.00  0.00    -0.283 N 
ATOM     36  H   UNL     1      25.535  73.888  23.198  0.00  0.00    +0.155 HD
ATOM     37  N   UNL     1      27.493  72.569  22.251  0.00  0.00    -0.214 NA
BRANCH   4   3
ATOM      1  C   UNL     1      30.048  74.264  19.152  0.00  0.00    +0.020 A 
ATOM      2  C   UNL     1      29.127  73.685  20.102  0.00  0.00    +0.013 A 
ATOM      3  C   UNL     1      29.447  72.438  20.785  0.00  0.00    +0.019 A 
ATOM     38  C   UNL     1      30.717  71.797  20.481  0.00  0.00    +0.120 A 
ATOM     39  N   UNL     1      31.584  72.377  19.560  0.00  0.00    -0.263 NA
ATOM     40  C   UNL     1      31.286  73.576  18.896  0.00  0.00    +0.111 A 
ENDBRANCH   4   3
ENDBRANCH  10   9
BRANCH  12  13
ATOM     13  N   UNL     1      20.976  71.277  24.448  0.00  0.00    -0.281 N 
ATOM     14  C   UNL     1      19.925  72.098  24.074  0.00  0.00    +0.248 C 
ATOM     30  O   UNL     1      19.889  73.304  24.263  0.00  0.00    -0.270 OA
ATOM     31  H   UNL     1      20.797  70.273  24.410  0.00  0.00    +0.155 HD
BRANCH  14  15
ATOM     15  C   UNL     1      18.735  71.488  23.405  0.00  0.00    +0.037 A 
ATOM     16  C   UNL     1      17.700  70.797  24.178  0.00  0.00    +0.013 A 
ATOM     17  C   UNL     1      16.572  70.203  23.506  0.00  0.00    +0.005 A 
ATOM     18  C   UNL     1      16.472  70.299  22.052  0.00  0.00    -0.033 A 
ATOM     28  C   UNL     1      17.510  70.995  21.310  0.00  0.00    +0.005 A 
ATOM     29  C   UNL     1      18.618  71.578  21.965  0.00  0.00    +0.013 A 
BRANCH  18  19
ATOM     19  C   UNL     1      15.313  69.677  21.250  0.00  0.00    +0.119 C 
BRANCH  19  20
ATOM     20  N   UNL     1      14.153  69.145  22.026  0.00  0.00    -0.302 NA
ATOM     21  C   UNL     1      14.167  67.616  22.104  0.00  0.00    +0.066 C 
ATOM     22  C   UNL     1      12.958  67.078  22.938  0.00  0.00    -0.064 C 
ATOM     23  N   UNL     1      11.652  67.577  22.318  0.00  0.00    +0.379 N 
ATOM     24  C   UNL     1      10.512  67.026  23.065  0.00  0.00    -0.096 C 
ATOM     25  H   UNL     1      11.599  67.180  21.277  0.00  0.00    -0.082 HD
ATOM     26  C   UNL     1      11.631  69.097  22.233  0.00  0.00    -0.064 C 
ATOM     27  C   UNL     1      12.852  69.622  21.428  0.00  0.00    +0.066 C 
ENDBRANCH  19  20
ENDBRANCH  18  19
ENDBRANCH  14  15
ENDBRANCH  12  13
TORSDOF 6
ENDMDL
MODEL 4
REMARK VINA RESULT:      -6.9      9.804     14.719
REMARK  Name = C:\Users\Docking\Desktop\test protocol\1iep_ligandH.pdb
REMARK  8 active torsions:
REMARK  status: ('A' for Active; 'I' for Inactive)
REMARK    1  A    between atoms: _5  and  _11
REMARK    2  A    between atoms: _19  and  _21
REMARK    3  A    between atoms: _22  and  _66
REMARK    4  A    between atoms: _27  and  _30
REMARK    5  A    between atoms: _32  and  _33
REMARK    6  A    between atoms: _38  and  _43
REMARK    7  A    between atoms: _43  and  _46
REMARK    8  A    between atoms: _53  and  _55
REMARK                            x       y       z     vdW  Elec       q    Type
REMARK                         _______ _______ _______ _____ _____    ______ ____
ROOT
ATOM     10  C   UNL     1      28.377  77.997  20.825  0.00  0.00    +0.038 A 
ATOM     11  C   UNL     1      27.287  78.550  20.107  0.00  0.00    +0.047 A 
ATOM     12  C   UNL     1      27.399  79.841  19.445  0.00  0.00    +0.035 A 
ATOM     32  C   UNL     1      28.638  80.540  19.533  0.00  0.00    +0.024 A 
ATOM     33  C   UNL     1      29.756  79.992  20.260  0.00  0.00    +0.007 A 
ATOM     34  C   UNL     1      29.651  78.721  20.917  0.00  0.00    -0.029 A 
ATOM     35  C   UNL     1      30.880  78.186  21.688  0.00  0.00    +0.045 C 
ENDROOT
BRANCH  10   9
ATOM      4  C   UNL     1      28.987  73.239  20.984  0.00  0.00    +0.077 A 
ATOM      5  C   UNL     1      29.664  73.224  19.719  0.00  0.00    +0.048 A 
ATOM      6  C   UNL     1      29.829  74.461  19.057  0.00  0.00    +0.116 A 
ATOM      7  N   UNL     1      29.348  75.620  19.626  0.00  0.00    -0.223 NA
ATOM      8  C   UNL     1      28.698  75.599  20.847  0.00  0.00    +0.220 A 
ATOM      9  N   UNL     1      28.214  76.754  21.442  0.00  0.00    -0.283 N 
ATOM     36  H   UNL     1      27.734  76.695  22.339  0.00  0.00    +0.155 HD
ATOM     37  N   UNL     1      28.527  74.430  21.498  0.00  0.00    -0.214 NA
BRANCH   4   3
ATOM      1  C   UNL     1      27.285  70.554  23.264  0.00  0.00    +0.020 A 
ATOM      2  C   UNL     1      27.473  71.754  22.482  0.00  0.00    +0.013 A 
ATOM      3  C   UNL     1      28.739  72.013  21.807  0.00  0.00    +0.019 A 
ATOM     38  C   UNL     1      29.801  71.028  21.943  0.00  0.00    +0.120 A 
ATOM     39  N   UNL     1      29.592  69.882  22.704  0.00  0.00    -0.263 NA
ATOM     40  C   UNL     1      28.379  69.624  23.360  0.00  0.00    +0.111 A 
ENDBRANCH   4   3
ENDBRANCH  10   9
BRANCH  12  13
ATOM     13  N   UNL     1      26.323  80.456  18.708  0.00  0.00    -0.281 N 
ATOM     14  C   UNL     1      25.341  81.307  19.187  0.00  0.00    +0.248 C 
ATOM     30  O   UNL     1      25.110  81.500  20.372  0.00  0.00    -0.270 OA
ATOM     31  H   UNL     1      26.281  80.238  17.713  0.00  0.00    +0.155 HD
BRANCH  14  15
ATOM     15  C   UNL     1      24.480  82.039  18.209  0.00  0.00    +0.037 A 
ATOM     16  C   UNL     1      24.269  83.485  18.315  0.00  0.00    +0.013 A 
ATOM     17  C   UNL     1      23.420  84.164  17.368  0.00  0.00    +0.005 A 
ATOM     18  C   UNL     1      22.777  83.396  16.305  0.00  0.00    -0.033 A 
ATOM     28  C   UNL     1      23.008  81.964  16.219  0.00  0.00    +0.005 A 
ATOM     29  C   UNL     1      23.838  81.295  17.146  0.00  0.00    +0.013 A 
BRANCH  18  19
ATOM     19  C   UNL     1      21.838  84.034  15.263  0.00  0.00    +0.119 C 
BRANCH  19  20
ATOM     20  N   UNL     1      22.367  84.199  13.876  0.00  0.00    -0.302 NA
ATOM     21  C   UNL     1      23.857  84.552  13.868  0.00  0.00    +0.066 C 
ATOM     22  C   UNL     1      24.399  84.698  12.409  0.00  0.00    -0.064 C 
ATOM     23  N   UNL     1      23.587  85.763  11.671  0.00  0.00    +0.379 N 
ATOM     24  C   UNL     1      24.131  85.945  10.317  0.00  0.00    -0.096 C 
ATOM     25  H   UNL     1      23.714  86.726  12.219  0.00  0.00    -0.082 HD
ATOM     26  C   UNL     1      22.103  85.422  11.677  0.00  0.00    -0.064 C 
ATOM     27  C   UNL     1      21.582  85.250  13.131  0.00  0.00    +0.066 C 
ENDBRANCH  19  20
ENDBRANCH  18  19
ENDBRANCH  14  15
ENDBRANCH  12  13
TORSDOF 6
ENDMDL
MODEL 5
REMARK VINA RESULT:      -6.8     13.210     15.569
REMARK  Name = C:\Users\Docking\Desktop\test protocol\1iep_ligandH.pdb
REMARK  8 active torsions:
REMARK  status: ('A' for Active; 'I' for Inactive)
REMARK    1  A    between atoms: _5  and  _11
REMARK    2  A    between atoms: _19  and  _21
REMARK    3  A    between atoms: _22  and  _66
REMARK    4  A    between atoms: _27  and  _30
REMARK    5  A    between atoms: _32  and  _33
REMARK    6  A    between atoms: _38  and  _43
REMARK    7  A    between atoms: _43  and  _46
REMARK    8  A    between atoms: _53  and  _55
REMARK                            x       y       z     vdW  Elec       q    Type
REMARK                         _______ _______ _______ _____ _____    ______ ____
ROOT
ATOM     10  C   UNL     1      24.239  55.861  22.092  0.00  0.00    +0.038 A 
ATOM     11  C   UNL     1      24.875  56.776  21.215  0.00  0.00    +0.047 A 
ATOM     12  C   UNL     1      24.764  56.637  19.772  0.00  0.00    +0.035 A 
ATOM     32  C   UNL     1      23.994  55.554  19.255  0.00  0.00    +0.024 A 
ATOM     33  C   UNL     1      23.342  54.614  20.132  0.00  0.00    +0.007 A 
ATOM     34  C   UNL     1      23.451  54.744  21.556  0.00  0.00    -0.029 A 
ATOM     35  C   UNL     1      22.736  53.703  22.448  0.00  0.00    +0.045 C 
ENDROOT
BRANCH  10   9
ATOM      4  C   UNL     1      26.802  55.674  26.146  0.00  0.00    +0.077 A 
ATOM      5  C   UNL     1      27.949  55.146  25.466  0.00  0.00    +0.048 A 
ATOM      6  C   UNL     1      27.837  54.930  24.075  0.00  0.00    +0.116 A 
ATOM      7  N   UNL     1      26.659  55.224  23.422  0.00  0.00    -0.223 NA
ATOM      8  C   UNL     1      25.571  55.731  24.108  0.00  0.00    +0.220 A 
ATOM      9  N   UNL     1      24.380  56.042  23.470  0.00  0.00    -0.283 N 
ATOM     36  H   UNL     1      23.598  56.407  24.013  0.00  0.00    +0.155 HD
ATOM     37  N   UNL     1      25.653  55.945  25.437  0.00  0.00    -0.214 NA
BRANCH   4   3
ATOM      1  C   UNL     1      27.092  57.474  29.607  0.00  0.00    +0.020 A 
ATOM      2  C   UNL     1      27.145  57.249  28.181  0.00  0.00    +0.013 A 
ATOM      3  C   UNL     1      26.767  55.960  27.615  0.00  0.00    +0.019 A 
ATOM     38  C   UNL     1      26.336  54.911  28.528  0.00  0.00    +0.120 A 
ATOM     39  N   UNL     1      26.297  55.156  29.897  0.00  0.00    -0.263 NA
ATOM     40  C   UNL     1      26.660  56.392  30.453  0.00  0.00    +0.111 A 
ENDBRANCH   4   3
ENDBRANCH  10   9
BRANCH  12  13
ATOM     13  N   UNL     1      25.394  57.531  18.832  0.00  0.00    -0.281 N 
ATOM     14  C   UNL     1      24.898  58.721  18.325  0.00  0.00    +0.248 C 
ATOM     30  O   UNL     1      23.739  59.092  18.441  0.00  0.00    -0.270 OA
ATOM     31  H   UNL     1      26.317  57.253  18.500  0.00  0.00    +0.155 HD
BRANCH  14  15
ATOM     15  C   UNL     1      25.818  59.623  17.568  0.00  0.00    +0.037 A 
ATOM     16  C   UNL     1      25.480  61.029  17.332  0.00  0.00    +0.013 A 
ATOM     17  C   UNL     1      26.379  61.873  16.584  0.00  0.00    +0.005 A 
ATOM     18  C   UNL     1      27.625  61.312  16.068  0.00  0.00    -0.033 A 
ATOM     28  C   UNL     1      27.938  59.915  16.322  0.00  0.00    +0.005 A 
ATOM     29  C   UNL     1      27.059  59.085  17.053  0.00  0.00    +0.013 A 
BRANCH  18  19
ATOM     19  C   UNL     1      28.633  62.133  15.242  0.00  0.00    +0.119 C 
BRANCH  19  20
ATOM     20  N   UNL     1      30.011  62.282  15.796  0.00  0.00    -0.302 NA
ATOM     21  C   UNL     1      30.005  62.923  17.187  0.00  0.00    +0.066 C 
ATOM     22  C   UNL     1      31.453  63.050  17.761  0.00  0.00    -0.064 C 
ATOM     23  N   UNL     1      32.313  63.866  16.793  0.00  0.00    +0.379 N 
ATOM     24  C   UNL     1      33.659  64.037  17.358  0.00  0.00    -0.096 C 
ATOM     25  H   UNL     1      31.853  64.877  16.703  0.00  0.00    -0.082 HD
ATOM     26  C   UNL     1      32.322  63.237  15.407  0.00  0.00    -0.064 C 
ATOM     27  C   UNL     1      30.876  63.088  14.858  0.00  0.00    +0.066 C 
ENDBRANCH  19  20
ENDBRANCH  18  19
ENDBRANCH  14  15
ENDBRANCH  12  13
TORSDOF 6
ENDMDL
