MODEL 1
REMARK VINA RESULT:      -9.1      0.000      0.000
REMARK  Name = C:\Users\Docking\Desktop\test protocol\1iep_ligandH.pdb
REMARK  8 active torsions:
REMARK  status: ('A' for Active; 'I' for Inactive)
REMARK    1  A    between atoms: _5  and  _11
REMARK    2  A    between atoms: _19  and  _21
REMARK    3  A    between atoms: _22  and  _66
REMARK    4  A    between atoms: _27  and  _30
REMARK    5  A    between atoms: _32  and  _33
REMARK    6  A    between atoms: _38  and  _43
REMARK    7  A    between atoms: _43  and  _46
REMARK    8  A    between atoms: _53  and  _55
REMARK                            x       y       z     vdW  Elec       q    Type
REMARK                         _______ _______ _______ _____ _____    ______ ____
ROOT
ATOM     10  C   UNL     1      22.034  79.917  83.959  0.00  0.00    +0.038 A 
ATOM     11  C   UNL     1      22.882  79.183  83.091  0.00  0.00    +0.047 A 
ATOM     12  C   UNL     1      23.567  77.983  83.545  0.00  0.00    +0.035 A 
ATOM     32  C   UNL     1      23.362  77.556  84.889  0.00  0.00    +0.024 A 
ATOM     33  C   UNL     1      22.504  78.291  85.786  0.00  0.00    +0.007 A 
ATOM     34  C   UNL     1      21.828  79.477  85.344  0.00  0.00    -0.029 A 
ATOM     35  C   UNL     1      20.925  80.228  86.350  0.00  0.00    +0.045 C 
ENDROOT
BRANCH  10   9
ATOM      4  C   UNL     1      22.010  84.581  82.824  0.00  0.00    +0.077 A 
ATOM      5  C   UNL     1      23.364  84.756  83.267  0.00  0.00    +0.048 A 
ATOM      6  C   UNL     1      24.028  83.622  83.787  0.00  0.00    +0.116 A 
ATOM      7  N   UNL     1      23.378  82.409  83.854  0.00  0.00    -0.223 NA
ATOM      8  C   UNL     1      22.072  82.275  83.420  0.00  0.00    +0.220 A 
ATOM      9  N   UNL     1      21.402  81.063  83.470  0.00  0.00    -0.283 N 
ATOM     36  H   UNL     1      20.436  81.007  83.147  0.00  0.00    +0.155 HD
ATOM     37  N   UNL     1      21.415  83.343  82.920  0.00  0.00    -0.214 NA
BRANCH   4   3
ATOM      1  C   UNL     1      20.849  88.050  81.439  0.00  0.00    +0.020 A 
ATOM      2  C   UNL     1      21.696  87.021  81.998  0.00  0.00    +0.013 A 
ATOM      3  C   UNL     1      21.177  85.683  82.247  0.00  0.00    +0.019 A 
ATOM     38  C   UNL     1      19.785  85.415  81.916  0.00  0.00    +0.120 A 
ATOM     39  N   UNL     1      18.993  86.425  81.381  0.00  0.00    -0.263 NA
ATOM     40  C   UNL     1      19.481  87.718  81.138  0.00  0.00    +0.111 A 
ENDBRANCH   4   3
ENDBRANCH  10   9
BRANCH  12  13
ATOM     13  N   UNL     1      24.446  77.202  82.711  0.00  0.00    -0.281 N 
ATOM     14  C   UNL     1      25.005  77.557  81.494  0.00  0.00    +0.248 C 
ATOM     30  O   UNL     1      24.660  78.524  80.832  0.00  0.00    -0.270 OA
ATOM     31  H   UNL     1      24.687  76.274  83.061  0.00  0.00    +0.155 HD
BRANCH  14  15
ATOM     15  C   UNL     1      26.094  76.707  80.924  0.00  0.00    +0.037 A 
ATOM     16  C   UNL     1      26.945  77.192  79.834  0.00  0.00    +0.013 A 
ATOM     17  C   UNL     1      27.977  76.346  79.291  0.00  0.00    +0.005 A 
ATOM     18  C   UNL     1      28.166  75.005  79.839  0.00  0.00    -0.033 A 
ATOM     28  C   UNL     1      27.311  74.551  80.923  0.00  0.00    +0.005 A 
ATOM     29  C   UNL     1      26.297  75.377  81.458  0.00  0.00    +0.013 A 
BRANCH  18  19
ATOM     19  C   UNL     1      29.228  74.026  79.306  0.00  0.00    +0.119 C 
BRANCH  19  20
ATOM     20  N   UNL     1      28.978  73.405  77.971  0.00  0.00    -0.302 NA
ATOM     21  C   UNL     1      29.222  71.893  77.986  0.00  0.00    +0.066 C 
ATOM     22  C   UNL     1      28.934  71.256  76.588  0.00  0.00    -0.064 C 
ATOM     23  N   UNL     1      29.808  71.935  75.532  0.00  0.00    +0.379 N 
ATOM     24  C   UNL     1      29.582  71.299  74.226  0.00  0.00    -0.096 C 
ATOM     25  H   UNL     1      30.873  71.762  75.813  0.00  0.00    -0.082 HD
ATOM     26  C   UNL     1      29.574  73.439  75.512  0.00  0.00    -0.064 C 
ATOM     27  C   UNL     1      29.835  74.057  76.914  0.00  0.00    +0.066 C 
ENDBRANCH  19  20
ENDBRANCH  18  19
ENDBRANCH  14  15
ENDBRANCH  12  13
TORSDOF 6
ENDMDL
MODEL 2
REMARK VINA RESULT:      -9.0      2.752      3.696
REMARK  Name = C:\Users\Docking\Desktop\test protocol\1iep_ligandH.pdb
REMARK  8 active torsions:
REMARK  status: ('A' for Active; 'I' for Inactive)
REMARK    1  A    between atoms: _5  and  _11
REMARK    2  A    between atoms: _19  and  _21
REMARK    3  A    between atoms: _22  and  _66
REMARK    4  A    between atoms: _27  and  _30
REMARK    5  A    between atoms: _32  and  _33
REMARK    6  A    between atoms: _38  and  _43
REMARK    7  A    between atoms: _43  and  _46
REMARK    8  A    between atoms: _53  and  _55
REMARK                            x       y       z     vdW  Elec       q    Type
REMARK                         _______ _______ _______ _____ _____    ______ ____
ROOT
ATOM     10  C   UNL     1      23.291  81.727  84.009  0.00  0.00    +0.038 A 
ATOM     11  C   UNL     1      24.126  80.751  83.408  0.00  0.00    +0.047 A 
ATOM     12  C   UNL     1      23.736  79.350  83.366  0.00  0.00    +0.035 A 
ATOM     32  C   UNL     1      22.487  78.979  83.944  0.00  0.00    +0.024 A 
ATOM     33  C   UNL     1      21.626  79.958  84.559  0.00  0.00    +0.007 A 
ATOM     34  C   UNL     1      22.006  81.341  84.606  0.00  0.00    -0.029 A 
ATOM     35  C   UNL     1      21.047  82.346  85.285  0.00  0.00    +0.045 C 
ENDROOT
BRANCH  10   9
ATOM      4  C   UNL     1      25.728  85.375  85.955  0.00  0.00    +0.077 A 
ATOM      5  C   UNL     1      26.173  84.569  87.054  0.00  0.00    +0.048 A 
ATOM      6  C   UNL     1      25.747  83.222  87.086  0.00  0.00    +0.116 A 
ATOM      7  N   UNL     1      24.936  82.729  86.087  0.00  0.00    -0.223 NA
ATOM      8  C   UNL     1      24.523  83.534  85.041  0.00  0.00    +0.220 A 
ATOM      9  N   UNL     1      23.714  83.058  84.021  0.00  0.00    -0.283 N 
ATOM     36  H   UNL     1      23.425  83.686  83.271  0.00  0.00    +0.155 HD
ATOM     37  N   UNL     1      24.916  84.824  84.989  0.00  0.00    -0.214 NA
BRANCH   4   3
ATOM      1  C   UNL     1      27.758  88.660  85.329  0.00  0.00    +0.020 A 
ATOM      2  C   UNL     1      27.456  87.256  85.490  0.00  0.00    +0.013 A 
ATOM      3  C   UNL     1      26.097  86.816  85.780  0.00  0.00    +0.019 A 
ATOM     38  C   UNL     1      25.059  87.829  85.901  0.00  0.00    +0.120 A 
ATOM     39  N   UNL     1      25.381  89.173  85.743  0.00  0.00    -0.263 NA
ATOM     40  C   UNL     1      26.685  89.609  85.465  0.00  0.00    +0.111 A 
ENDBRANCH   4   3
ENDBRANCH  10   9
BRANCH  12  13
ATOM     13  N   UNL     1      24.546  78.313  82.777  0.00  0.00    -0.281 N 
ATOM     14  C   UNL     1      24.523  77.854  81.470  0.00  0.00    +0.248 C 
ATOM     30  O   UNL     1      23.649  78.120  80.659  0.00  0.00    -0.270 OA
ATOM     31  H   UNL     1      25.218  77.863  83.398  0.00  0.00    +0.155 HD
BRANCH  14  15
ATOM     15  C   UNL     1      25.623  76.957  81.000  0.00  0.00    +0.037 A 
ATOM     16  C   UNL     1      25.589  75.515  81.256  0.00  0.00    +0.013 A 
ATOM     17  C   UNL     1      26.671  74.675  80.807  0.00  0.00    +0.005 A 
ATOM     18  C   UNL     1      27.797  75.276  80.096  0.00  0.00    -0.033 A 
ATOM     28  C   UNL     1      27.802  76.709  79.851  0.00  0.00    +0.005 A 
ATOM     29  C   UNL     1      26.744  77.536  80.291  0.00  0.00    +0.013 A 
BRANCH  18  19
ATOM     19  C   UNL     1      29.005  74.460  79.599  0.00  0.00    +0.119 C 
BRANCH  19  20
ATOM     20  N   UNL     1      28.825  73.666  78.347  0.00  0.00    -0.302 NA
ATOM     21  C   UNL     1      29.106  72.177  78.567  0.00  0.00    +0.066 C 
ATOM     22  C   UNL     1      28.891  71.358  77.252  0.00  0.00    -0.064 C 
ATOM     23  N   UNL     1      29.791  71.922  76.151  0.00  0.00    +0.379 N 
ATOM     24  C   UNL     1      29.634  71.118  74.930  0.00  0.00    -0.096 C 
ATOM     25  H   UNL     1      30.847  71.818  76.491  0.00  0.00    -0.082 HD
ATOM     26  C   UNL     1      29.520  73.403  75.928  0.00  0.00    -0.064 C 
ATOM     27  C   UNL     1      29.707  74.203  77.247  0.00  0.00    +0.066 C 
ENDBRANCH  19  20
ENDBRANCH  18  19
ENDBRANCH  14  15
ENDBRANCH  12  13
TORSDOF 6
ENDMDL
MODEL 3
REMARK VINA RESULT:      -8.9      2.765      3.946
REMARK  Name = C:\Users\Docking\Desktop\test protocol\1iep_ligandH.pdb
REMARK  8 active torsions:
REMARK  status: ('A' for Active; 'I' for Inactive)
REMARK    1  A    between atoms: _5  and  _11
REMARK    2  A    between atoms: _19  and  _21
REMARK    3  A    between atoms: _22  and  _66
REMARK    4  A    between atoms: _27  and  _30
REMARK    5  A    between atoms: _32  and  _33
REMARK    6  A    between atoms: _38  and  _43
REMARK    7  A    between atoms: _43  and  _46
REMARK    8  A    between atoms: _53  and  _55
REMARK                            x       y       z     vdW  Elec       q    Type
REMARK                         _______ _______ _______ _____ _____    ______ ____
ROOT
ATOM     10  C   UNL     1      22.423  82.169  83.426  0.00  0.00    +0.038 A 
ATOM     11  C   UNL     1      23.474  81.390  82.879  0.00  0.00    +0.047 A 
ATOM     12  C   UNL     1      23.243  80.029  82.421  0.00  0.00    +0.035 A 
ATOM     32  C   UNL     1      21.928  79.493  82.534  0.00  0.00    +0.024 A 
ATOM     33  C   UNL     1      20.847  80.269  83.089  0.00  0.00    +0.007 A 
ATOM     34  C   UNL     1      21.070  81.612  83.544  0.00  0.00    -0.029 A 
ATOM     35  C   UNL     1      19.876  82.396  84.137  0.00  0.00    +0.045 C 
ENDROOT
BRANCH  10   9
ATOM      4  C   UNL     1      25.392  85.503  85.188  0.00  0.00    +0.077 A 
ATOM      5  C   UNL     1      26.473  84.567  85.299  0.00  0.00    +0.048 A 
ATOM      6  C   UNL     1      26.221  83.235  84.899  0.00  0.00    +0.116 A 
ATOM      7  N   UNL     1      24.978  82.878  84.425  0.00  0.00    -0.223 NA
ATOM      8  C   UNL     1      23.957  83.806  84.332  0.00  0.00    +0.220 A 
ATOM      9  N   UNL     1      22.701  83.470  83.850  0.00  0.00    -0.283 N 
ATOM     36  H   UNL     1      21.972  84.182  83.804  0.00  0.00    +0.155 HD
ATOM     37  N   UNL     1      24.171  85.083  84.709  0.00  0.00    -0.214 NA
BRANCH   4   3
ATOM      1  C   UNL     1      24.512  89.150  86.296  0.00  0.00    +0.020 A 
ATOM      2  C   UNL     1      24.350  87.760  85.937  0.00  0.00    +0.013 A 
ATOM      3  C   UNL     1      25.502  86.947  85.568  0.00  0.00    +0.019 A 
ATOM     38  C   UNL     1      26.815  87.576  85.573  0.00  0.00    +0.120 A 
ATOM     39  N   UNL     1      26.940  88.917  85.922  0.00  0.00    -0.263 NA
ATOM     40  C   UNL     1      25.838  89.710  86.277  0.00  0.00    +0.111 A 
ENDBRANCH   4   3
ENDBRANCH  10   9
BRANCH  12  13
ATOM     13  N   UNL     1      24.274  79.188  81.864  0.00  0.00    -0.281 N 
ATOM     14  C   UNL     1      24.603  77.892  82.225  0.00  0.00    +0.248 C 
ATOM     30  O   UNL     1      24.198  77.331  83.232  0.00  0.00    -0.270 OA
ATOM     31  H   UNL     1      24.828  79.599  81.113  0.00  0.00    +0.155 HD
BRANCH  14  15
ATOM     15  C   UNL     1      25.526  77.110  81.347  0.00  0.00    +0.037 A 
ATOM     16  C   UNL     1      25.571  75.647  81.404  0.00  0.00    +0.013 A 
ATOM     17  C   UNL     1      26.483  74.918  80.558  0.00  0.00    +0.005 A 
ATOM     18  C   UNL     1      27.357  75.653  79.646  0.00  0.00    -0.033 A 
ATOM     28  C   UNL     1      27.287  77.104  79.606  0.00  0.00    +0.005 A 
ATOM     29  C   UNL     1      26.395  77.822  80.434  0.00  0.00    +0.013 A 
BRANCH  18  19
ATOM     19  C   UNL     1      28.375  74.959  78.723  0.00  0.00    +0.119 C 
BRANCH  19  20
ATOM     20  N   UNL     1      28.687  73.526  79.004  0.00  0.00    -0.302 NA
ATOM     21  C   UNL     1      29.798  73.374  80.047  0.00  0.00    +0.066 C 
ATOM     22  C   UNL     1      30.096  71.868  80.345  0.00  0.00    -0.064 C 
ATOM     23  N   UNL     1      30.474  71.158  79.044  0.00  0.00    +0.379 N 
ATOM     24  C   UNL     1      30.811  69.756  79.330  0.00  0.00    -0.096 C 
ATOM     25  H   UNL     1      31.390  71.651  78.643  0.00  0.00    -0.082 HD
ATOM     26  C   UNL     1      29.376  71.307  78.000  0.00  0.00    -0.064 C 
ATOM     27  C   UNL     1      29.067  72.806  77.733  0.00  0.00    +0.066 C 
ENDBRANCH  19  20
ENDBRANCH  18  19
ENDBRANCH  14  15
ENDBRANCH  12  13
TORSDOF 6
ENDMDL
MODEL 4
REMARK VINA RESULT:      -8.7      2.247      3.188
REMARK  Name = C:\Users\Docking\Desktop\test protocol\1iep_ligandH.pdb
REMARK  8 active torsions:
REMARK  status: ('A' for Active; 'I' for Inactive)
REMARK    1  A    between atoms: _5  and  _11
REMARK    2  A    between atoms: _19  and  _21
REMARK    3  A    between atoms: _22  and  _66
REMARK    4  A    between atoms: _27  and  _30
REMARK    5  A    between atoms: _32  and  _33
REMARK    6  A    between atoms: _38  and  _43
REMARK    7  A    between atoms: _43  and  _46
REMARK    8  A    between atoms: _53  and  _55
REMARK                            x       y       z     vdW  Elec       q    Type
REMARK                         _______ _______ _______ _____ _____    ______ ____
ROOT
ATOM     10  C   UNL     1      23.268  80.238  85.555  0.00  0.00    +0.038 A 
ATOM     11  C   UNL     1      24.029  79.544  84.580  0.00  0.00    +0.047 A 
ATOM     12  C   UNL     1      23.675  78.194  84.170  0.00  0.00    +0.035 A 
ATOM     32  C   UNL     1      22.537  77.582  84.772  0.00  0.00    +0.024 A 
ATOM     33  C   UNL     1      21.753  78.272  85.765  0.00  0.00    +0.007 A 
ATOM     34  C   UNL     1      22.099  79.603  86.176  0.00  0.00    -0.029 A 
ATOM     35  C   UNL     1      21.226  80.293  87.250  0.00  0.00    +0.045 C 
ENDROOT
BRANCH  10   9
ATOM      4  C   UNL     1      23.884  84.894  84.566  0.00  0.00    +0.077 A 
ATOM      5  C   UNL     1      23.425  84.729  83.217  0.00  0.00    +0.048 A 
ATOM      6  C   UNL     1      23.046  83.428  82.815  0.00  0.00    +0.116 A 
ATOM      7  N   UNL     1      23.125  82.379  83.704  0.00  0.00    -0.223 NA
ATOM      8  C   UNL     1      23.574  82.572  84.998  0.00  0.00    +0.220 A 
ATOM      9  N   UNL     1      23.653  81.532  85.911  0.00  0.00    -0.283 N 
ATOM     36  H   UNL     1      23.996  81.714  86.854  0.00  0.00    +0.155 HD
ATOM     37  N   UNL     1      23.942  83.804  85.406  0.00  0.00    -0.214 NA
BRANCH   4   3
ATOM      1  C   UNL     1      26.066  87.791  86.031  0.00  0.00    +0.020 A 
ATOM      2  C   UNL     1      25.702  86.506  85.479  0.00  0.00    +0.013 A 
ATOM      3  C   UNL     1      24.316  86.207  85.141  0.00  0.00    +0.019 A 
ATOM     38  C   UNL     1      23.316  87.238  85.374  0.00  0.00    +0.120 A 
ATOM     39  N   UNL     1      23.696  88.465  85.908  0.00  0.00    -0.263 NA
ATOM     40  C   UNL     1      25.026  88.764  86.240  0.00  0.00    +0.111 A 
ENDBRANCH   4   3
ENDBRANCH  10   9
BRANCH  12  13
ATOM     13  N   UNL     1      24.414  77.437  83.190  0.00  0.00    -0.281 N 
ATOM     14  C   UNL     1      24.637  77.753  81.860  0.00  0.00    +0.248 C 
ATOM     30  O   UNL     1      24.050  78.636  81.252  0.00  0.00    -0.270 OA
ATOM     31  H   UNL     1      24.824  76.562  83.518  0.00  0.00    +0.155 HD
BRANCH  14  15
ATOM     15  C   UNL     1      25.647  76.966  81.090  0.00  0.00    +0.037 A 
ATOM     16  C   UNL     1      25.734  75.509  81.219  0.00  0.00    +0.013 A 
ATOM     17  C   UNL     1      26.729  74.775  80.478  0.00  0.00    +0.005 A 
ATOM     18  C   UNL     1      27.645  75.499  79.599  0.00  0.00    -0.033 A 
ATOM     28  C   UNL     1      27.533  76.943  79.485  0.00  0.00    +0.005 A 
ATOM     29  C   UNL     1      26.560  77.666  80.211  0.00  0.00    +0.013 A 
BRANCH  18  19
ATOM     19  C   UNL     1      28.751  74.800  78.786  0.00  0.00    +0.119 C 
BRANCH  19  20
ATOM     20  N   UNL     1      28.871  73.318  78.928  0.00  0.00    -0.302 NA
ATOM     21  C   UNL     1      29.996  72.923  79.889  0.00  0.00    +0.066 C 
ATOM     22  C   UNL     1      30.093  71.370  80.043  0.00  0.00    -0.064 C 
ATOM     23  N   UNL     1      30.308  70.736  78.668  0.00  0.00    +0.379 N 
ATOM     24  C   UNL     1      30.458  69.281  78.816  0.00  0.00    -0.096 C 
ATOM     25  H   UNL     1      31.265  71.135  78.258  0.00  0.00    -0.082 HD
ATOM     26  C   UNL     1      29.196  71.126  77.705  0.00  0.00    -0.064 C 
ATOM     27  C   UNL     1      29.089  72.672  77.582  0.00  0.00    +0.066 C 
ENDBRANCH  19  20
ENDBRANCH  18  19
ENDBRANCH  14  15
ENDBRANCH  12  13
TORSDOF 6
ENDMDL
MODEL 5
REMARK VINA RESULT:      -8.5      1.909      2.787
REMARK  Name = C:\Users\Docking\Desktop\test protocol\1iep_ligandH.pdb
REMARK  8 active torsions:
REMARK  status: ('A' for Active; 'I' for Inactive)
REMARK    1  A    between atoms: _5  and  _11
REMARK    2  A    between atoms: _19  and  _21
REMARK    3  A    between atoms: _22  and  _66
REMARK    4  A    between atoms: _27  and  _30
REMARK    5  A    between atoms: _32  and  _33
REMARK    6  A    between atoms: _38  and  _43
REMARK    7  A    between atoms: _43  and  _46
REMARK    8  A    between atoms: _53  and  _55
REMARK                            x       y       z     vdW  Elec       q    Type
REMARK                         _______ _______ _______ _____ _____    ______ ____
ROOT
ATOM     10  C   UNL     1      21.370  81.736  83.318  0.00  0.00    +0.038 A 
ATOM     11  C   UNL     1      22.297  80.948  82.588  0.00  0.00    +0.047 A 
ATOM     12  C   UNL     1      23.296  80.139  83.268  0.00  0.00    +0.035 A 
ATOM     32  C   UNL     1      23.321  80.152  84.693  0.00  0.00    +0.024 A 
ATOM     33  C   UNL     1      22.386  80.948  85.450  0.00  0.00    +0.007 A 
ATOM     34  C   UNL     1      21.400  81.750  84.785  0.00  0.00    -0.029 A 
ATOM     35  C   UNL     1      20.428  82.588  85.648  0.00  0.00    +0.045 C 
ENDROOT
BRANCH  10   9
ATOM      4  C   UNL     1      19.782  85.889  81.509  0.00  0.00    +0.077 A 
ATOM      5  C   UNL     1      20.903  86.614  82.035  0.00  0.00    +0.048 A 
ATOM      6  C   UNL     1      21.862  85.882  82.771  0.00  0.00    +0.116 A 
ATOM      7  N   UNL     1      21.702  84.527  82.961  0.00  0.00    -0.223 NA
ATOM      8  C   UNL     1      20.609  83.858  82.442  0.00  0.00    +0.220 A 
ATOM      9  N   UNL     1      20.432  82.494  82.613  0.00  0.00    -0.283 N 
ATOM     36  H   UNL     1      19.608  82.039  82.221  0.00  0.00    +0.155 HD
ATOM     37  N   UNL     1      19.678  84.534  81.736  0.00  0.00    -0.214 NA
BRANCH   4   3
ATOM      1  C   UNL     1      17.828  88.185  79.018  0.00  0.00    +0.020 A 
ATOM      2  C   UNL     1      18.920  87.610  79.768  0.00  0.00    +0.013 A 
ATOM      3  C   UNL     1      18.687  86.521  80.708  0.00  0.00    +0.019 A 
ATOM     38  C   UNL     1      17.326  86.032  80.866  0.00  0.00    +0.120 A 
ATOM     39  N   UNL     1      16.293  86.606  80.131  0.00  0.00    -0.263 NA
ATOM     40  C   UNL     1      16.505  87.656  79.225  0.00  0.00    +0.111 A 
ENDBRANCH   4   3
ENDBRANCH  10   9
BRANCH  12  13
ATOM     13  N   UNL     1      24.268  79.326  82.580  0.00  0.00    -0.281 N 
ATOM     14  C   UNL     1      24.369  77.944  82.570  0.00  0.00    +0.248 C 
ATOM     30  O   UNL     1      23.763  77.201  83.328  0.00  0.00    -0.270 OA
ATOM     31  H   UNL     1      24.967  79.830  82.034  0.00  0.00    +0.155 HD
BRANCH  14  15
ATOM     15  C   UNL     1      25.286  77.294  81.585  0.00  0.00    +0.037 A 
ATOM     16  C   UNL     1      26.105  78.091  80.668  0.00  0.00    +0.013 A 
ATOM     17  C   UNL     1      26.968  77.439  79.716  0.00  0.00    +0.005 A 
ATOM     18  C   UNL     1      27.017  75.979  79.677  0.00  0.00    -0.033 A 
ATOM     28  C   UNL     1      26.198  75.213  80.601  0.00  0.00    +0.005 A 
ATOM     29  C   UNL     1      25.350  75.849  81.535  0.00  0.00    +0.013 A 
BRANCH  18  19
ATOM     19  C   UNL     1      27.894  75.199  78.680  0.00  0.00    +0.119 C 
BRANCH  19  20
ATOM     20  N   UNL     1      28.455  73.893  79.139  0.00  0.00    -0.302 NA
ATOM     21  C   UNL     1      29.511  74.075  80.233  0.00  0.00    +0.066 C 
ATOM     22  C   UNL     1      30.072  72.698  80.718  0.00  0.00    -0.064 C 
ATOM     23  N   UNL     1      30.654  71.939  79.524  0.00  0.00    +0.379 N 
ATOM     24  C   UNL     1      31.233  70.669  79.986  0.00  0.00    -0.096 C 
ATOM     25  H   UNL     1      31.481  72.555  79.103  0.00  0.00    -0.082 HD
ATOM     26  C   UNL     1      29.611  71.756  78.431  0.00  0.00    -0.064 C 
ATOM     27  C   UNL     1      29.039  73.128  77.977  0.00  0.00    +0.066 C 
ENDBRANCH  19  20
ENDBRANCH  18  19
ENDBRANCH  14  15
ENDBRANCH  12  13
TORSDOF 6
ENDMDL
