MODEL 1
REMARK VINA RESULT:      -8.3      0.000      0.000
REMARK  Name = C:\Users\Docking\Desktop\test protocol\1iep_ligandH.pdb
REMARK  8 active torsions:
REMARK  status: ('A' for Active; 'I' for Inactive)
REMARK    1  A    between atoms: _5  and  _11
REMARK    2  A    between atoms: _19  and  _21
REMARK    3  A    between atoms: _22  and  _66
REMARK    4  A    between atoms: _27  and  _30
REMARK    5  A    between atoms: _32  and  _33
REMARK    6  A    between atoms: _38  and  _43
REMARK    7  A    between atoms: _43  and  _46
REMARK    8  A    between atoms: _53  and  _55
REMARK                            x       y       z     vdW  Elec       q    Type
REMARK                         _______ _______ _______ _____ _____    ______ ____
ROOT
ATOM     10  C   UNL     1       7.209 -12.482  23.145  0.00  0.00    +0.038 A 
ATOM     11  C   UNL     1       6.034 -11.986  23.765  0.00  0.00    +0.047 A 
ATOM     12  C   UNL     1       5.229 -12.828  24.635  0.00  0.00    +0.035 A 
ATOM     32  C   UNL     1       5.651 -14.172  24.854  0.00  0.00    +0.024 A 
ATOM     33  C   UNL     1       6.842 -14.693  24.231  0.00  0.00    +0.007 A 
ATOM     34  C   UNL     1       7.639 -13.868  23.370  0.00  0.00    -0.029 A 
ATOM     35  C   UNL     1       8.903 -14.482  22.723  0.00  0.00    +0.045 C 
ENDROOT
BRANCH  10   9
ATOM      4  C   UNL     1      10.693  -9.262  22.415  0.00  0.00    +0.077 A 
ATOM      5  C   UNL     1      11.061  -9.258  23.802  0.00  0.00    +0.048 A 
ATOM      6  C   UNL     1      10.324 -10.094  24.671  0.00  0.00    +0.116 A 
ATOM      7  N   UNL     1       9.298 -10.871  24.179  0.00  0.00    -0.223 NA
ATOM      8  C   UNL     1       8.968 -10.850  22.837  0.00  0.00    +0.220 A 
ATOM      9  N   UNL     1       7.945 -11.629  22.319  0.00  0.00    -0.283 N 
ATOM     36  H   UNL     1       7.727 -11.580  21.324  0.00  0.00    +0.155 HD
ATOM     37  N   UNL     1       9.655 -10.059  21.986  0.00  0.00    -0.214 NA
BRANCH   4   3
ATOM      1  C   UNL     1      11.366  -6.821  19.434  0.00  0.00    +0.020 A 
ATOM      2  C   UNL     1      10.656  -7.601  20.421  0.00  0.00    +0.013 A 
ATOM      3  C   UNL     1      11.379  -8.435  21.372  0.00  0.00    +0.019 A 
ATOM     38  C   UNL     1      12.832  -8.458  21.298  0.00  0.00    +0.120 A 
ATOM     39  N   UNL     1      13.489  -7.698  20.336  0.00  0.00    -0.263 NA
ATOM     40  C   UNL     1      12.804  -6.892  19.414  0.00  0.00    +0.111 A 
ENDBRANCH   4   3
ENDBRANCH  10   9
BRANCH  12  13
ATOM     13  N   UNL     1       4.022 -12.381  25.285  0.00  0.00    -0.281 N 
ATOM     14  C   UNL     1       3.899 -11.751  26.512  0.00  0.00    +0.248 C 
ATOM     30  O   UNL     1       4.796 -11.667  27.339  0.00  0.00    -0.270 OA
ATOM     31  H   UNL     1       3.152 -12.551  24.779  0.00  0.00    +0.155 HD
BRANCH  14  15
ATOM     15  C   UNL     1       2.587 -11.138  26.881  0.00  0.00    +0.037 A 
ATOM     16  C   UNL     1       2.116  -9.908  26.240  0.00  0.00    +0.013 A 
ATOM     17  C   UNL     1       0.854  -9.328  26.627  0.00  0.00    +0.005 A 
ATOM     18  C   UNL     1       0.053  -9.980  27.660  0.00  0.00    -0.033 A 
ATOM     28  C   UNL     1       0.542 -11.203  28.276  0.00  0.00    +0.005 A 
ATOM     29  C   UNL     1       1.778 -11.773  27.900  0.00  0.00    +0.013 A 
BRANCH  18  19
ATOM     19  C   UNL     1      -1.296  -9.421  28.150  0.00  0.00    +0.119 C 
BRANCH  19  20
ATOM     20  N   UNL     1      -1.737  -9.805  29.524  0.00  0.00    -0.302 NA
ATOM     21  C   UNL     1      -3.129 -10.443  29.524  0.00  0.00    +0.066 C 
ATOM     22  C   UNL     1      -3.565 -10.858  30.966  0.00  0.00    -0.064 C 
ATOM     23  N   UNL     1      -3.531  -9.632  31.880  0.00  0.00    +0.379 N 
ATOM     24  C   UNL     1      -3.996 -10.008  33.223  0.00  0.00    -0.096 C 
ATOM     25  H   UNL     1      -4.250  -8.885  31.469  0.00  0.00    -0.082 HD
ATOM     26  C   UNL     1      -2.151  -8.990  31.884  0.00  0.00    -0.064 C 
ATOM     27  C   UNL     1      -1.715  -8.607  30.442  0.00  0.00    +0.066 C 
ENDBRANCH  19  20
ENDBRANCH  18  19
ENDBRANCH  14  15
ENDBRANCH  12  13
TORSDOF 6
ENDMDL
MODEL 2
REMARK VINA RESULT:      -8.2      1.027      1.102
REMARK  Name = C:\Users\Docking\Desktop\test protocol\1iep_ligandH.pdb
REMARK  8 active torsions:
REMARK  status: ('A' for Active; 'I' for Inactive)
REMARK    1  A    between atoms: _5  and  _11
REMARK    2  A    between atoms: _19  and  _21
REMARK    3  A    between atoms: _22  and  _66
REMARK    4  A    between atoms: _27  and  _30
REMARK    5  A    between atoms: _32  and  _33
REMARK    6  A    between atoms: _38  and  _43
REMARK    7  A    between atoms: _43  and  _46
REMARK    8  A    between atoms: _53  and  _55
REMARK                            x       y       z     vdW  Elec       q    Type
REMARK                         _______ _______ _______ _____ _____    ______ ____
ROOT
ATOM     10  C   UNL     1       7.956 -12.073  22.818  0.00  0.00    +0.038 A 
ATOM     11  C   UNL     1       6.825 -11.521  23.472  0.00  0.00    +0.047 A 
ATOM     12  C   UNL     1       6.003 -12.326  24.362  0.00  0.00    +0.035 A 
ATOM     32  C   UNL     1       6.364 -13.690  24.565  0.00  0.00    +0.024 A 
ATOM     33  C   UNL     1       7.509 -14.268  23.907  0.00  0.00    +0.007 A 
ATOM     34  C   UNL     1       8.322 -13.479  23.026  0.00  0.00    -0.029 A 
ATOM     35  C   UNL     1       9.535 -14.153  22.343  0.00  0.00    +0.045 C 
ENDROOT
BRANCH  10   9
ATOM      4  C   UNL     1      11.338  -8.754  22.054  0.00  0.00    +0.077 A 
ATOM      5  C   UNL     1      11.607  -8.620  23.457  0.00  0.00    +0.048 A 
ATOM      6  C   UNL     1      10.848  -9.418  24.342  0.00  0.00    +0.116 A 
ATOM      7  N   UNL     1       9.894 -10.282  23.850  0.00  0.00    -0.223 NA
ATOM      8  C   UNL     1       9.659 -10.386  22.491  0.00  0.00    +0.220 A 
ATOM      9  N   UNL     1       8.710 -11.254  21.974  0.00  0.00    -0.283 N 
ATOM     36  H   UNL     1       8.561 -11.296  20.966  0.00  0.00    +0.155 HD
ATOM     37  N   UNL     1      10.369  -9.633  21.625  0.00  0.00    -0.214 NA
BRANCH   4   3
ATOM      1  C   UNL     1      12.131  -6.685  18.830  0.00  0.00    +0.020 A 
ATOM      2  C   UNL     1      11.388  -7.424  19.825  0.00  0.00    +0.013 A 
ATOM      3  C   UNL     1      12.059  -7.981  20.993  0.00  0.00    +0.019 A 
ATOM     38  C   UNL     1      13.492  -7.771  21.126  0.00  0.00    +0.120 A 
ATOM     39  N   UNL     1      14.181  -7.056  20.151  0.00  0.00    -0.263 NA
ATOM     40  C   UNL     1      13.547  -6.517  19.022  0.00  0.00    +0.111 A 
ENDBRANCH   4   3
ENDBRANCH  10   9
BRANCH  12  13
ATOM     13  N   UNL     1       4.839 -11.822  25.048  0.00  0.00    -0.281 N 
ATOM     14  C   UNL     1       4.759 -10.738  25.906  0.00  0.00    +0.248 C 
ATOM     30  O   UNL     1       5.725 -10.163  26.385  0.00  0.00    -0.270 OA
ATOM     31  H   UNL     1       3.968 -12.326  24.879  0.00  0.00    +0.155 HD
BRANCH  14  15
ATOM     15  C   UNL     1       3.411 -10.228  26.302  0.00  0.00    +0.037 A 
ATOM     16  C   UNL     1       3.137  -8.792  26.391  0.00  0.00    +0.013 A 
ATOM     17  C   UNL     1       1.833  -8.327  26.791  0.00  0.00    +0.005 A 
ATOM     18  C   UNL     1       0.791  -9.301  27.105  0.00  0.00    -0.033 A 
ATOM     28  C   UNL     1       1.088 -10.721  27.004  0.00  0.00    +0.005 A 
ATOM     29  C   UNL     1       2.365 -11.180  26.612  0.00  0.00    +0.013 A 
BRANCH  18  19
ATOM     19  C   UNL     1      -0.623  -8.896  27.561  0.00  0.00    +0.119 C 
BRANCH  19  20
ATOM     20  N   UNL     1      -1.012  -9.231  28.963  0.00  0.00    -0.302 NA
ATOM     21  C   UNL     1      -2.271 -10.101  29.018  0.00  0.00    +0.066 C 
ATOM     22  C   UNL     1      -2.650 -10.462  30.491  0.00  0.00    -0.064 C 
ATOM     23  N   UNL     1      -2.847  -9.174  31.293  0.00  0.00    +0.379 N 
ATOM     24  C   UNL     1      -3.260  -9.508  32.664  0.00  0.00    -0.096 C 
ATOM     25  H   UNL     1      -3.679  -8.604  30.819  0.00  0.00    -0.082 HD
ATOM     26  C   UNL     1      -1.601  -8.301  31.242  0.00  0.00    -0.064 C 
ATOM     27  C   UNL     1      -1.215  -7.974  29.772  0.00  0.00    +0.066 C 
ENDBRANCH  19  20
ENDBRANCH  18  19
ENDBRANCH  14  15
ENDBRANCH  12  13
TORSDOF 6
ENDMDL
MODEL 3
REMARK VINA RESULT:      -8.1      1.918     12.840
REMARK  Name = C:\Users\Docking\Desktop\test protocol\1iep_ligandH.pdb
REMARK  8 active torsions:
REMARK  status: ('A' for Active; 'I' for Inactive)
REMARK    1  A    between atoms: _5  and  _11
REMARK    2  A    between atoms: _19  and  _21
REMARK    3  A    between atoms: _22  and  _66
REMARK    4  A    between atoms: _27  and  _30
REMARK    5  A    between atoms: _32  and  _33
REMARK    6  A    between atoms: _38  and  _43
REMARK    7  A    between atoms: _43  and  _46
REMARK    8  A    between atoms: _53  and  _55
REMARK                            x       y       z     vdW  Elec       q    Type
REMARK                         _______ _______ _______ _____ _____    ______ ____
ROOT
ATOM     10  C   UNL     1       4.676 -13.176  24.674  0.00  0.00    +0.038 A 
ATOM     11  C   UNL     1       5.434 -12.184  24.001  0.00  0.00    +0.047 A 
ATOM     12  C   UNL     1       6.754 -12.481  23.467  0.00  0.00    +0.035 A 
ATOM     32  C   UNL     1       7.271 -13.798  23.635  0.00  0.00    +0.024 A 
ATOM     33  C   UNL     1       6.514 -14.818  24.318  0.00  0.00    +0.007 A 
ATOM     34  C   UNL     1       5.212 -14.531  24.849  0.00  0.00    -0.029 A 
ATOM     35  C   UNL     1       4.448 -15.661  25.578  0.00  0.00    +0.045 C 
ENDROOT
BRANCH  10   9
ATOM      4  C   UNL     1       1.808 -11.285  28.027  0.00  0.00    +0.077 A 
ATOM      5  C   UNL     1       2.917 -10.970  28.882  0.00  0.00    +0.048 A 
ATOM      6  C   UNL     1       4.208 -11.318  28.425  0.00  0.00    +0.116 A 
ATOM      7  N   UNL     1       4.366 -11.934  27.203  0.00  0.00    -0.223 NA
ATOM      8  C   UNL     1       3.276 -12.225  26.403  0.00  0.00    +0.220 A 
ATOM      9  N   UNL     1       3.413 -12.836  25.167  0.00  0.00    -0.283 N 
ATOM     36  H   UNL     1       2.584 -13.041  24.611  0.00  0.00    +0.155 HD
ATOM     37  N   UNL     1       2.033 -11.904  26.818  0.00  0.00    -0.214 NA
BRANCH   4   3
ATOM      1  C   UNL     1      -1.635  -9.463  28.388  0.00  0.00    +0.020 A 
ATOM      2  C   UNL     1      -0.255  -9.710  28.036  0.00  0.00    +0.013 A 
ATOM      3  C   UNL     1       0.383 -10.977  28.369  0.00  0.00    +0.019 A 
ATOM     38  C   UNL     1      -0.408 -11.982  29.063  0.00  0.00    +0.120 A 
ATOM     39  N   UNL     1      -1.734 -11.715  29.391  0.00  0.00    -0.263 NA
ATOM     40  C   UNL     1      -2.358 -10.499  29.077  0.00  0.00    +0.111 A 
ENDBRANCH   4   3
ENDBRANCH  10   9
BRANCH  12  13
ATOM     13  N   UNL     1       7.574 -11.513  22.781  0.00  0.00    -0.281 N 
ATOM     14  C   UNL     1       8.514 -10.654  23.326  0.00  0.00    +0.248 C 
ATOM     30  O   UNL     1       8.641 -10.437  24.522  0.00  0.00    -0.270 OA
ATOM     31  H   UNL     1       7.445 -11.453  21.771  0.00  0.00    +0.155 HD
BRANCH  14  15
ATOM     15  C   UNL     1       9.437  -9.918  22.410  0.00  0.00    +0.037 A 
ATOM     16  C   UNL     1      10.471 -10.622  21.646  0.00  0.00    +0.013 A 
ATOM     17  C   UNL     1      11.360  -9.886  20.782  0.00  0.00    +0.005 A 
ATOM     18  C   UNL     1      11.217  -8.436  20.676  0.00  0.00    -0.033 A 
ATOM     28  C   UNL     1      10.180  -7.764  21.440  0.00  0.00    +0.005 A 
ATOM     29  C   UNL     1       9.308  -8.482  22.289  0.00  0.00    +0.013 A 
BRANCH  18  19
ATOM     19  C   UNL     1      12.135  -7.568  19.795  0.00  0.00    +0.119 C 
BRANCH  19  20
ATOM     20  N   UNL     1      13.197  -6.778  20.485  0.00  0.00    -0.302 NA
ATOM     21  C   UNL     1      12.671  -5.436  21.002  0.00  0.00    +0.066 C 
ATOM     22  C   UNL     1      13.790  -4.632  21.741  0.00  0.00    -0.064 C 
ATOM     23  N   UNL     1      14.972  -4.421  20.794  0.00  0.00    +0.379 N 
ATOM     24  C   UNL     1      16.002  -3.616  21.467  0.00  0.00    -0.096 C 
ATOM     25  H   UNL     1      14.604  -3.837  19.918  0.00  0.00    -0.082 HD
ATOM     26  C   UNL     1      15.500  -5.751  20.273  0.00  0.00    -0.064 C 
ATOM     27  C   UNL     1      14.373  -6.554  19.566  0.00  0.00    +0.066 C 
ENDBRANCH  19  20
ENDBRANCH  18  19
ENDBRANCH  14  15
ENDBRANCH  12  13
TORSDOF 6
ENDMDL
MODEL 4
REMARK VINA RESULT:      -8.1      3.117     12.944
REMARK  Name = C:\Users\Docking\Desktop\test protocol\1iep_ligandH.pdb
REMARK  8 active torsions:
REMARK  status: ('A' for Active; 'I' for Inactive)
REMARK    1  A    between atoms: _5  and  _11
REMARK    2  A    between atoms: _19  and  _21
REMARK    3  A    between atoms: _22  and  _66
REMARK    4  A    between atoms: _27  and  _30
REMARK    5  A    between atoms: _32  and  _33
REMARK    6  A    between atoms: _38  and  _43
REMARK    7  A    between atoms: _43  and  _46
REMARK    8  A    between atoms: _53  and  _55
REMARK                            x       y       z     vdW  Elec       q    Type
REMARK                         _______ _______ _______ _____ _____    ______ ____
ROOT
ATOM     10  C   UNL     1       4.021 -10.199  26.608  0.00  0.00    +0.038 A 
ATOM     11  C   UNL     1       5.179  -9.717  25.944  0.00  0.00    +0.047 A 
ATOM     12  C   UNL     1       5.790 -10.466  24.857  0.00  0.00    +0.035 A 
ATOM     32  C   UNL     1       5.194 -11.702  24.470  0.00  0.00    +0.024 A 
ATOM     33  C   UNL     1       4.018 -12.207  25.134  0.00  0.00    +0.007 A 
ATOM     34  C   UNL     1       3.413 -11.473  26.208  0.00  0.00    -0.029 A 
ATOM     35  C   UNL     1       2.157 -12.066  26.889  0.00  0.00    +0.045 C 
ENDROOT
BRANCH  10   9
ATOM      4  C   UNL     1       1.107  -6.759  28.255  0.00  0.00    +0.077 A 
ATOM      5  C   UNL     1       0.652  -6.431  26.934  0.00  0.00    +0.048 A 
ATOM      6  C   UNL     1       1.198  -7.166  25.858  0.00  0.00    +0.116 A 
ATOM      7  N   UNL     1       2.128  -8.153  26.096  0.00  0.00    -0.223 NA
ATOM      8  C   UNL     1       2.547  -8.444  27.382  0.00  0.00    +0.220 A 
ATOM      9  N   UNL     1       3.476  -9.439  27.645  0.00  0.00    -0.283 N 
ATOM     36  H   UNL     1       3.765  -9.618  28.606  0.00  0.00    +0.155 HD
ATOM     37  N   UNL     1       2.042  -7.756  28.426  0.00  0.00    -0.214 NA
BRANCH   4   3
ATOM      1  C   UNL     1      -1.207  -5.181  30.985  0.00  0.00    +0.020 A 
ATOM      2  C   UNL     1      -0.791  -5.847  29.772  0.00  0.00    +0.013 A 
ATOM      3  C   UNL     1       0.621  -6.074  29.494  0.00  0.00    +0.019 A 
ATOM     38  C   UNL     1       1.595  -5.612  30.472  0.00  0.00    +0.120 A 
ATOM     39  N   UNL     1       1.165  -4.972  31.630  0.00  0.00    -0.263 NA
ATOM     40  C   UNL     1      -0.192  -4.747  31.907  0.00  0.00    +0.111 A 
ENDBRANCH   4   3
ENDBRANCH  10   9
BRANCH  12  13
ATOM     13  N   UNL     1       6.970 -10.031  24.152  0.00  0.00    -0.281 N 
ATOM     14  C   UNL     1       7.962 -10.815  23.587  0.00  0.00    +0.248 C 
ATOM     30  O   UNL     1       8.095 -12.013  23.790  0.00  0.00    -0.270 OA
ATOM     31  H   UNL     1       7.088  -9.022  24.058  0.00  0.00    +0.155 HD
BRANCH  14  15
ATOM     15  C   UNL     1       8.959 -10.173  22.677  0.00  0.00    +0.037 A 
ATOM     16  C   UNL     1       9.910 -10.977  21.904  0.00  0.00    +0.013 A 
ATOM     17  C   UNL     1      10.872 -10.332  21.047  0.00  0.00    +0.005 A 
ATOM     18  C   UNL     1      10.888  -8.874  20.957  0.00  0.00    -0.033 A 
ATOM     28  C   UNL     1       9.930  -8.101  21.731  0.00  0.00    +0.005 A 
ATOM     29  C   UNL     1       8.986  -8.730  22.573  0.00  0.00    +0.013 A 
BRANCH  18  19
ATOM     19  C   UNL     1      11.894  -8.100  20.084  0.00  0.00    +0.119 C 
BRANCH  19  20
ATOM     20  N   UNL     1      12.800  -7.135  20.777  0.00  0.00    -0.302 NA
ATOM     21  C   UNL     1      12.425  -5.681  20.479  0.00  0.00    +0.066 C 
ATOM     22  C   UNL     1      13.368  -4.685  21.229  0.00  0.00    -0.064 C 
ATOM     23  N   UNL     1      14.819  -4.963  20.831  0.00  0.00    +0.379 N 
ATOM     24  C   UNL     1      15.703  -3.991  21.489  0.00  0.00    -0.096 C 
ATOM     25  H   UNL     1      14.902  -4.805  19.730  0.00  0.00    -0.082 HD
ATOM     26  C   UNL     1      15.199  -6.408  21.120  0.00  0.00    -0.064 C 
ATOM     27  C   UNL     1      14.237  -7.389  20.394  0.00  0.00    +0.066 C 
ENDBRANCH  19  20
ENDBRANCH  18  19
ENDBRANCH  14  15
ENDBRANCH  12  13
TORSDOF 6
ENDMDL
MODEL 5
REMARK VINA RESULT:      -8.0      1.089      1.726
REMARK  Name = C:\Users\Docking\Desktop\test protocol\1iep_ligandH.pdb
REMARK  8 active torsions:
REMARK  status: ('A' for Active; 'I' for Inactive)
REMARK    1  A    between atoms: _5  and  _11
REMARK    2  A    between atoms: _19  and  _21
REMARK    3  A    between atoms: _22  and  _66
REMARK    4  A    between atoms: _27  and  _30
REMARK    5  A    between atoms: _32  and  _33
REMARK    6  A    between atoms: _38  and  _43
REMARK    7  A    between atoms: _43  and  _46
REMARK    8  A    between atoms: _53  and  _55
REMARK                            x       y       z     vdW  Elec       q    Type
REMARK                         _______ _______ _______ _____ _____    ______ ____
ROOT
ATOM     10  C   UNL     1       7.435 -12.456  23.016  0.00  0.00    +0.038 A 
ATOM     11  C   UNL     1       6.234 -11.965  23.590  0.00  0.00    +0.047 A 
ATOM     12  C   UNL     1       5.418 -12.800  24.458  0.00  0.00    +0.035 A 
ATOM     32  C   UNL     1       5.857 -14.130  24.723  0.00  0.00    +0.024 A 
ATOM     33  C   UNL     1       7.075 -14.645  24.148  0.00  0.00    +0.007 A 
ATOM     34  C   UNL     1       7.882 -13.827  23.289  0.00  0.00    -0.029 A 
ATOM     35  C   UNL     1       9.174 -14.434  22.694  0.00  0.00    +0.045 C 
ENDROOT
BRANCH  10   9
ATOM      4  C   UNL     1      10.766  -9.070  22.326  0.00  0.00    +0.077 A 
ATOM      5  C   UNL     1      11.026  -8.956  23.732  0.00  0.00    +0.048 A 
ATOM      6  C   UNL     1      10.277  -9.781  24.600  0.00  0.00    +0.116 A 
ATOM      7  N   UNL     1       9.339 -10.652  24.088  0.00  0.00    -0.223 NA
ATOM      8  C   UNL     1       9.111 -10.736  22.727  0.00  0.00    +0.220 A 
ATOM      9  N   UNL     1       8.179 -11.610  22.190  0.00  0.00    -0.283 N 
ATOM     36  H   UNL     1       8.035 -11.637  21.181  0.00  0.00    +0.155 HD
ATOM     37  N   UNL     1       9.813  -9.957  21.877  0.00  0.00    -0.214 NA
BRANCH   4   3
ATOM      1  C   UNL     1      13.570  -7.430  20.147  0.00  0.00    +0.020 A 
ATOM      2  C   UNL     1      12.931  -8.221  21.173  0.00  0.00    +0.013 A 
ATOM      3  C   UNL     1      11.478  -8.267  21.282  0.00  0.00    +0.019 A 
ATOM     38  C   UNL     1      10.695  -7.497  20.328  0.00  0.00    +0.120 A 
ATOM     39  N   UNL     1      11.338  -6.743  19.351  0.00  0.00    -0.263 NA
ATOM     40  C   UNL     1      12.735  -6.690  19.238  0.00  0.00    +0.111 A 
ENDBRANCH   4   3
ENDBRANCH  10   9
BRANCH  12  13
ATOM     13  N   UNL     1       4.185 -12.359  25.062  0.00  0.00    -0.281 N 
ATOM     14  C   UNL     1       3.855 -12.340  26.407  0.00  0.00    +0.248 C 
ATOM     30  O   UNL     1       4.495 -12.902  27.284  0.00  0.00    -0.270 OA
ATOM     31  H   UNL     1       3.469 -12.020  24.420  0.00  0.00    +0.155 HD
BRANCH  14  15
ATOM     15  C   UNL     1       2.630 -11.602  26.840  0.00  0.00    +0.037 A 
ATOM     16  C   UNL     1       1.826 -12.062  27.975  0.00  0.00    +0.013 A 
ATOM     17  C   UNL     1       0.639 -11.341  28.361  0.00  0.00    +0.005 A 
ATOM     18  C   UNL     1       0.249 -10.150  27.610  0.00  0.00    -0.033 A 
ATOM     28  C   UNL     1       1.068  -9.712  26.491  0.00  0.00    +0.005 A 
ATOM     29  C   UNL     1       2.231 -10.417  26.110  0.00  0.00    +0.013 A 
BRANCH  18  19
ATOM     19  C   UNL     1      -1.013  -9.331  27.938  0.00  0.00    +0.119 C 
BRANCH  19  20
ATOM     20  N   UNL     1      -1.012  -8.554  29.213  0.00  0.00    -0.302 NA
ATOM     21  C   UNL     1      -1.869  -9.220  30.293  0.00  0.00    +0.066 C 
ATOM     22  C   UNL     1      -1.838  -8.406  31.627  0.00  0.00    -0.064 C 
ATOM     23  N   UNL     1      -2.317  -6.977  31.360  0.00  0.00    +0.379 N 
ATOM     24  C   UNL     1      -2.345  -6.225  32.623  0.00  0.00    -0.096 C 
ATOM     25  H   UNL     1      -3.363  -7.037  30.979  0.00  0.00    -0.082 HD
ATOM     26  C   UNL     1      -1.472  -6.308  30.286  0.00  0.00    -0.064 C 
ATOM     27  C   UNL     1      -1.486  -7.141  28.973  0.00  0.00    +0.066 C 
ENDBRANCH  19  20
ENDBRANCH  18  19
ENDBRANCH  14  15
ENDBRANCH  12  13
TORSDOF 6
ENDMDL
