MODEL 1
REMARK VINA RESULT:      -8.5      0.000      0.000
REMARK  Name = C:\Users\Docking\Desktop\test protocol\1iep_ligandH.pdb
REMARK  8 active torsions:
REMARK  status: ('A' for Active; 'I' for Inactive)
REMARK    1  A    between atoms: _5  and  _11
REMARK    2  A    between atoms: _19  and  _21
REMARK    3  A    between atoms: _22  and  _66
REMARK    4  A    between atoms: _27  and  _30
REMARK    5  A    between atoms: _32  and  _33
REMARK    6  A    between atoms: _38  and  _43
REMARK    7  A    between atoms: _43  and  _46
REMARK    8  A    between atoms: _53  and  _55
REMARK                            x       y       z     vdW  Elec       q    Type
REMARK                         _______ _______ _______ _____ _____    ______ ____
ROOT
ATOM     10  C   UNL     1      11.661  -3.531   6.106  0.00  0.00    +0.038 A 
ATOM     11  C   UNL     1      12.124  -3.644   7.442  0.00  0.00    +0.047 A 
ATOM     12  C   UNL     1      11.729  -4.764   8.282  0.00  0.00    +0.035 A 
ATOM     32  C   UNL     1      10.864  -5.752   7.729  0.00  0.00    +0.024 A 
ATOM     33  C   UNL     1      10.383  -5.652   6.374  0.00  0.00    +0.007 A 
ATOM     34  C   UNL     1      10.767  -4.549   5.540  0.00  0.00    -0.029 A 
ATOM     35  C   UNL     1      10.216  -4.489   4.097  0.00  0.00    +0.045 C 
ENDROOT
BRANCH  10   9
ATOM      4  C   UNL     1      10.976   0.862   4.297  0.00  0.00    +0.077 A 
ATOM      5  C   UNL     1       9.680   0.973   4.900  0.00  0.00    +0.048 A 
ATOM      6  C   UNL     1       9.222  -0.126   5.662  0.00  0.00    +0.116 A 
ATOM      7  N   UNL     1      10.012  -1.246   5.804  0.00  0.00    -0.223 NA
ATOM      8  C   UNL     1      11.257  -1.321   5.208  0.00  0.00    +0.220 A 
ATOM      9  N   UNL     1      12.072  -2.435   5.343  0.00  0.00    -0.283 N 
ATOM     36  H   UNL     1      12.980  -2.455   4.881  0.00  0.00    +0.155 HD
ATOM     37  N   UNL     1      11.716  -0.286   4.474  0.00  0.00    -0.214 NA
BRANCH   4   3
ATOM      1  C   UNL     1      11.483   3.804   1.770  0.00  0.00    +0.020 A 
ATOM      2  C   UNL     1      10.833   2.777   2.550  0.00  0.00    +0.013 A 
ATOM      3  C   UNL     1      11.599   1.940   3.465  0.00  0.00    +0.019 A 
ATOM     38  C   UNL     1      13.032   2.171   3.569  0.00  0.00    +0.120 A 
ATOM     39  N   UNL     1      13.631   3.167   2.804  0.00  0.00    -0.263 NA
ATOM     40  C   UNL     1      12.905   3.977   1.918  0.00  0.00    +0.111 A 
ENDBRANCH   4   3
ENDBRANCH  10   9
BRANCH  12  13
ATOM     13  N   UNL     1      12.161  -4.927   9.648  0.00  0.00    -0.281 N 
ATOM     14  C   UNL     1      12.938  -5.944  10.180  0.00  0.00    +0.248 C 
ATOM     30  O   UNL     1      13.203  -6.986   9.600  0.00  0.00    -0.270 OA
ATOM     31  H   UNL     1      11.856  -4.207  10.303  0.00  0.00    +0.155 HD
BRANCH  14  15
ATOM     15  C   UNL     1      13.487  -5.785  11.561  0.00  0.00    +0.037 A 
ATOM     16  C   UNL     1      12.831  -4.921  12.546  0.00  0.00    +0.013 A 
ATOM     17  C   UNL     1      13.392  -4.773  13.865  0.00  0.00    +0.005 A 
ATOM     18  C   UNL     1      14.616  -5.492  14.208  0.00  0.00    -0.033 A 
ATOM     28  C   UNL     1      15.244  -6.347  13.214  0.00  0.00    +0.005 A 
ATOM     29  C   UNL     1      14.698  -6.494  11.919  0.00  0.00    +0.013 A 
BRANCH  18  19
ATOM     19  C   UNL     1      15.296  -5.377  15.585  0.00  0.00    +0.119 C 
BRANCH  19  20
ATOM     20  N   UNL     1      15.594  -6.648  16.310  0.00  0.00    -0.302 NA
ATOM     21  C   UNL     1      14.339  -7.503  16.509  0.00  0.00    +0.066 C 
ATOM     22  C   UNL     1      14.672  -8.840  17.249  0.00  0.00    -0.064 C 
ATOM     23  N   UNL     1      15.333  -8.525  18.592  0.00  0.00    +0.379 N 
ATOM     24  C   UNL     1      15.595  -9.778  19.315  0.00  0.00    -0.096 C 
ATOM     25  H   UNL     1      14.607  -7.932  19.195  0.00  0.00    -0.082 HD
ATOM     26  C   UNL     1      16.580  -7.673  18.403  0.00  0.00    -0.064 C 
ATOM     27  C   UNL     1      16.243  -6.361  17.641  0.00  0.00    +0.066 C 
ENDBRANCH  19  20
ENDBRANCH  18  19
ENDBRANCH  14  15
ENDBRANCH  12  13
TORSDOF 6
ENDMDL
MODEL 2
REMARK VINA RESULT:      -8.3      1.985      2.896
REMARK  Name = C:\Users\Docking\Desktop\test protocol\1iep_ligandH.pdb
REMARK  8 active torsions:
REMARK  status: ('A' for Active; 'I' for Inactive)
REMARK    1  A    between atoms: _5  and  _11
REMARK    2  A    between atoms: _19  and  _21
REMARK    3  A    between atoms: _22  and  _66
REMARK    4  A    between atoms: _27  and  _30
REMARK    5  A    between atoms: _32  and  _33
REMARK    6  A    between atoms: _38  and  _43
REMARK    7  A    between atoms: _43  and  _46
REMARK    8  A    between atoms: _53  and  _55
REMARK                            x       y       z     vdW  Elec       q    Type
REMARK                         _______ _______ _______ _____ _____    ______ ____
ROOT
ATOM     10  C   UNL     1      10.906  -2.708   5.511  0.00  0.00    +0.038 A 
ATOM     11  C   UNL     1      11.433  -3.010   6.792  0.00  0.00    +0.047 A 
ATOM     12  C   UNL     1      10.807  -4.006   7.648  0.00  0.00    +0.035 A 
ATOM     32  C   UNL     1       9.646  -4.678   7.164  0.00  0.00    +0.024 A 
ATOM     33  C   UNL     1       9.097  -4.382   5.865  0.00  0.00    +0.007 A 
ATOM     34  C   UNL     1       9.709  -3.399   5.017  0.00  0.00    -0.029 A 
ATOM     35  C   UNL     1       9.073  -3.118   3.636  0.00  0.00    +0.045 C 
ENDROOT
BRANCH  10   9
ATOM      4  C   UNL     1      11.232   1.711   3.666  0.00  0.00    +0.077 A 
ATOM      5  C   UNL     1      10.006   2.124   4.286  0.00  0.00    +0.048 A 
ATOM      6  C   UNL     1       9.318   1.167   5.065  0.00  0.00    +0.116 A 
ATOM      7  N   UNL     1       9.828  -0.105   5.208  0.00  0.00    -0.223 NA
ATOM      8  C   UNL     1      11.013  -0.471   4.595  0.00  0.00    +0.220 A 
ATOM      9  N   UNL     1      11.548  -1.743   4.731  0.00  0.00    -0.283 N 
ATOM     36  H   UNL     1      12.420  -1.976   4.257  0.00  0.00    +0.155 HD
ATOM     37  N   UNL     1      11.687   0.424   3.844  0.00  0.00    -0.214 NA
BRANCH   4   3
ATOM      1  C   UNL     1      14.090   3.077   1.372  0.00  0.00    +0.020 A 
ATOM      2  C   UNL     1      13.314   2.170   2.185  0.00  0.00    +0.013 A 
ATOM      3  C   UNL     1      12.075   2.609   2.815  0.00  0.00    +0.019 A 
ATOM     38  C   UNL     1      11.646   3.983   2.599  0.00  0.00    +0.120 A 
ATOM     39  N   UNL     1      12.415   4.834   1.812  0.00  0.00    -0.263 NA
ATOM     40  C   UNL     1      13.610   4.423   1.202  0.00  0.00    +0.111 A 
ENDBRANCH   4   3
ENDBRANCH  10   9
BRANCH  12  13
ATOM     13  N   UNL     1      11.292  -4.349   8.961  0.00  0.00    -0.281 N 
ATOM     14  C   UNL     1      11.942  -5.508   9.354  0.00  0.00    +0.248 C 
ATOM     30  O   UNL     1      12.015  -6.522   8.676  0.00  0.00    -0.270 OA
ATOM     31  H   UNL     1      11.137  -3.653   9.691  0.00  0.00    +0.155 HD
BRANCH  14  15
ATOM     15  C   UNL     1      12.591  -5.551  10.699  0.00  0.00    +0.037 A 
ATOM     16  C   UNL     1      13.950  -6.071  10.870  0.00  0.00    +0.013 A 
ATOM     17  C   UNL     1      14.547  -6.118  12.182  0.00  0.00    +0.005 A 
ATOM     18  C   UNL     1      13.785  -5.640  13.333  0.00  0.00    -0.033 A 
ATOM     28  C   UNL     1      12.441  -5.124  13.134  0.00  0.00    +0.005 A 
ATOM     29  C   UNL     1      11.852  -5.078  11.850  0.00  0.00    +0.013 A 
BRANCH  18  19
ATOM     19  C   UNL     1      14.334  -5.671  14.771  0.00  0.00    +0.119 C 
BRANCH  19  20
ATOM     20  N   UNL     1      15.315  -4.611  15.152  0.00  0.00    -0.302 NA
ATOM     21  C   UNL     1      16.168  -5.023  16.355  0.00  0.00    +0.066 C 
ATOM     22  C   UNL     1      17.203  -3.912  16.726  0.00  0.00    -0.064 C 
ATOM     23  N   UNL     1      16.463  -2.603  17.009  0.00  0.00    +0.379 N 
ATOM     24  C   UNL     1      17.429  -1.571  17.414  0.00  0.00    -0.096 C 
ATOM     25  H   UNL     1      15.778  -2.782  17.870  0.00  0.00    -0.082 HD
ATOM     26  C   UNL     1      15.610  -2.188  15.819  0.00  0.00    -0.064 C 
ATOM     27  C   UNL     1      14.605  -3.311  15.440  0.00  0.00    +0.066 C 
ENDBRANCH  19  20
ENDBRANCH  18  19
ENDBRANCH  14  15
ENDBRANCH  12  13
TORSDOF 6
ENDMDL
MODEL 3
REMARK VINA RESULT:      -8.3      1.412      1.812
REMARK  Name = C:\Users\Docking\Desktop\test protocol\1iep_ligandH.pdb
REMARK  8 active torsions:
REMARK  status: ('A' for Active; 'I' for Inactive)
REMARK    1  A    between atoms: _5  and  _11
REMARK    2  A    between atoms: _19  and  _21
REMARK    3  A    between atoms: _22  and  _66
REMARK    4  A    between atoms: _27  and  _30
REMARK    5  A    between atoms: _32  and  _33
REMARK    6  A    between atoms: _38  and  _43
REMARK    7  A    between atoms: _43  and  _46
REMARK    8  A    between atoms: _53  and  _55
REMARK                            x       y       z     vdW  Elec       q    Type
REMARK                         _______ _______ _______ _____ _____    ______ ____
ROOT
ATOM     10  C   UNL     1      11.108  -2.754   5.683  0.00  0.00    +0.038 A 
ATOM     11  C   UNL     1      11.738  -3.079   6.911  0.00  0.00    +0.047 A 
ATOM     12  C   UNL     1      11.162  -4.061   7.816  0.00  0.00    +0.035 A 
ATOM     32  C   UNL     1       9.943  -4.695   7.438  0.00  0.00    +0.024 A 
ATOM     33  C   UNL     1       9.288  -4.377   6.194  0.00  0.00    +0.007 A 
ATOM     34  C   UNL     1       9.851  -3.407   5.298  0.00  0.00    -0.029 A 
ATOM     35  C   UNL     1       9.101  -3.100   3.980  0.00  0.00    +0.045 C 
ENDROOT
BRANCH  10   9
ATOM      4  C   UNL     1      11.301   1.614   3.703  0.00  0.00    +0.077 A 
ATOM      5  C   UNL     1      10.095   2.030   4.360  0.00  0.00    +0.048 A 
ATOM      6  C   UNL     1       9.452   1.087   5.193  0.00  0.00    +0.116 A 
ATOM      7  N   UNL     1       9.984  -0.175   5.351  0.00  0.00    -0.223 NA
ATOM      8  C   UNL     1      11.148  -0.544   4.701  0.00  0.00    +0.220 A 
ATOM      9  N   UNL     1      11.705  -1.804   4.851  0.00  0.00    -0.283 N 
ATOM     36  H   UNL     1      12.561  -2.040   4.349  0.00  0.00    +0.155 HD
ATOM     37  N   UNL     1      11.780   0.338   3.899  0.00  0.00    -0.214 NA
BRANCH   4   3
ATOM      1  C   UNL     1      14.168   3.051   1.464  0.00  0.00    +0.020 A 
ATOM      2  C   UNL     1      13.442   2.163   2.342  0.00  0.00    +0.013 A 
ATOM      3  C   UNL     1      12.097   2.497   2.794  0.00  0.00    +0.019 A 
ATOM     38  C   UNL     1      11.511   3.747   2.334  0.00  0.00    +0.120 A 
ATOM     39  N   UNL     1      12.234   4.583   1.489  0.00  0.00    -0.263 NA
ATOM     40  C   UNL     1      13.530   4.273   1.049  0.00  0.00    +0.111 A 
ENDBRANCH   4   3
ENDBRANCH  10   9
BRANCH  12  13
ATOM     13  N   UNL     1      11.753  -4.425   9.080  0.00  0.00    -0.281 N 
ATOM     14  C   UNL     1      12.172  -5.679   9.495  0.00  0.00    +0.248 C 
ATOM     30  O   UNL     1      11.904  -6.723   8.918  0.00  0.00    -0.270 OA
ATOM     31  H   UNL     1      11.878  -3.667   9.751  0.00  0.00    +0.155 HD
BRANCH  14  15
ATOM     15  C   UNL     1      12.995  -5.791  10.737  0.00  0.00    +0.037 A 
ATOM     16  C   UNL     1      14.267  -6.518  10.743  0.00  0.00    +0.013 A 
ATOM     17  C   UNL     1      15.033  -6.625  11.959  0.00  0.00    +0.005 A 
ATOM     18  C   UNL     1      14.529  -6.003  13.181  0.00  0.00    -0.033 A 
ATOM     28  C   UNL     1      13.266  -5.283  13.146  0.00  0.00    +0.005 A 
ATOM     29  C   UNL     1      12.512  -5.177  11.955  0.00  0.00    +0.013 A 
BRANCH  18  19
ATOM     19  C   UNL     1      15.269  -6.085  14.529  0.00  0.00    +0.119 C 
BRANCH  19  20
ATOM     20  N   UNL     1      15.879  -7.398  14.895  0.00  0.00    -0.302 NA
ATOM     21  C   UNL     1      14.861  -8.345  15.535  0.00  0.00    +0.066 C 
ATOM     22  C   UNL     1      15.510  -9.722  15.891  0.00  0.00    -0.064 C 
ATOM     23  N   UNL     1      16.700  -9.495  16.825  0.00  0.00    +0.379 N 
ATOM     24  C   UNL     1      17.277 -10.792  17.208  0.00  0.00    -0.096 C 
ATOM     25  H   UNL     1      16.315  -9.009  17.751  0.00  0.00    -0.082 HD
ATOM     26  C   UNL     1      17.716  -8.552  16.197  0.00  0.00    -0.064 C 
ATOM     27  C   UNL     1      17.054  -7.198  15.820  0.00  0.00    +0.066 C 
ENDBRANCH  19  20
ENDBRANCH  18  19
ENDBRANCH  14  15
ENDBRANCH  12  13
TORSDOF 6
ENDMDL
MODEL 4
REMARK VINA RESULT:      -8.2      7.294     12.694
REMARK  Name = C:\Users\Docking\Desktop\test protocol\1iep_ligandH.pdb
REMARK  8 active torsions:
REMARK  status: ('A' for Active; 'I' for Inactive)
REMARK    1  A    between atoms: _5  and  _11
REMARK    2  A    between atoms: _19  and  _21
REMARK    3  A    between atoms: _22  and  _66
REMARK    4  A    between atoms: _27  and  _30
REMARK    5  A    between atoms: _32  and  _33
REMARK    6  A    between atoms: _38  and  _43
REMARK    7  A    between atoms: _43  and  _46
REMARK    8  A    between atoms: _53  and  _55
REMARK                            x       y       z     vdW  Elec       q    Type
REMARK                         _______ _______ _______ _____ _____    ______ ____
ROOT
ATOM     10  C   UNL     1      13.250   5.925  -1.590  0.00  0.00    +0.038 A 
ATOM     11  C   UNL     1      12.999   4.920  -0.621  0.00  0.00    +0.047 A 
ATOM     12  C   UNL     1      11.657   4.685  -0.111  0.00  0.00    +0.035 A 
ATOM     32  C   UNL     1      10.593   5.490  -0.613  0.00  0.00    +0.024 A 
ATOM     33  C   UNL     1      10.830   6.516  -1.597  0.00  0.00    +0.007 A 
ATOM     34  C   UNL     1      12.152   6.754  -2.102  0.00  0.00    -0.029 A 
ATOM     35  C   UNL     1      12.349   7.872  -3.152  0.00  0.00    +0.045 C 
ENDROOT
BRANCH  10   9
ATOM      4  C   UNL     1      17.333   8.436  -1.838  0.00  0.00    +0.077 A 
ATOM      5  C   UNL     1      16.807   9.485  -1.013  0.00  0.00    +0.048 A 
ATOM      6  C   UNL     1      15.479   9.343  -0.551  0.00  0.00    +0.116 A 
ATOM      7  N   UNL     1      14.741   8.231  -0.895  0.00  0.00    -0.223 NA
ATOM      8  C   UNL     1      15.278   7.238  -1.694  0.00  0.00    +0.220 A 
ATOM      9  N   UNL     1      14.558   6.108  -2.045  0.00  0.00    -0.283 N 
ATOM     36  H   UNL     1      14.987   5.401  -2.643  0.00  0.00    +0.155 HD
ATOM     37  N   UNL     1      16.544   7.351  -2.149  0.00  0.00    -0.214 NA
BRANCH   4   3
ATOM      1  C   UNL     1      21.025   7.450  -2.673  0.00  0.00    +0.020 A 
ATOM      2  C   UNL     1      19.698   7.400  -2.103  0.00  0.00    +0.013 A 
ATOM      3  C   UNL     1      18.720   8.439  -2.400  0.00  0.00    +0.019 A 
ATOM     38  C   UNL     1      19.120   9.524  -3.284  0.00  0.00    +0.120 A 
ATOM     39  N   UNL     1      20.405   9.546  -3.817  0.00  0.00    -0.263 NA
ATOM     40  C   UNL     1      21.355   8.552  -3.537  0.00  0.00    +0.111 A 
ENDBRANCH   4   3
ENDBRANCH  10   9
BRANCH  12  13
ATOM     13  N   UNL     1      11.344   3.685   0.879  0.00  0.00    -0.281 N 
ATOM     14  C   UNL     1      12.024   3.406   2.053  0.00  0.00    +0.248 C 
ATOM     30  O   UNL     1      13.136   3.834   2.326  0.00  0.00    -0.270 OA
ATOM     31  H   UNL     1      10.520   3.113   0.692  0.00  0.00    +0.155 HD
BRANCH  14  15
ATOM     15  C   UNL     1      11.384   2.510   3.064  0.00  0.00    +0.037 A 
ATOM     16  C   UNL     1       9.932   2.502   3.261  0.00  0.00    +0.013 A 
ATOM     17  C   UNL     1       9.342   1.641   4.254  0.00  0.00    +0.005 A 
ATOM     18  C   UNL     1      10.204   0.778   5.058  0.00  0.00    -0.033 A 
ATOM     28  C   UNL     1      11.641   0.802   4.838  0.00  0.00    +0.005 A 
ATOM     29  C   UNL     1      12.223   1.645   3.866  0.00  0.00    +0.013 A 
BRANCH  18  19
ATOM     19  C   UNL     1       9.663  -0.158   6.155  0.00  0.00    +0.119 C 
BRANCH  19  20
ATOM     20  N   UNL     1       9.823  -1.627   5.941  0.00  0.00    -0.302 NA
ATOM     21  C   UNL     1      11.158  -2.144   6.484  0.00  0.00    +0.066 C 
ATOM     22  C   UNL     1      11.300  -3.687   6.273  0.00  0.00    -0.064 C 
ATOM     23  N   UNL     1      11.160  -4.009   4.784  0.00  0.00    +0.379 N 
ATOM     24  C   UNL     1      11.351  -5.452   4.574  0.00  0.00    -0.096 C 
ATOM     25  H   UNL     1      11.979  -3.478   4.245  0.00  0.00    -0.082 HD
ATOM     26  C   UNL     1       9.837  -3.496   4.234  0.00  0.00    -0.064 C 
ATOM     27  C   UNL     1       9.693  -1.968   4.477  0.00  0.00    +0.066 C 
ENDBRANCH  19  20
ENDBRANCH  18  19
ENDBRANCH  14  15
ENDBRANCH  12  13
TORSDOF 6
ENDMDL
MODEL 5
REMARK VINA RESULT:      -8.0      8.075     11.572
REMARK  Name = C:\Users\Docking\Desktop\test protocol\1iep_ligandH.pdb
REMARK  8 active torsions:
REMARK  status: ('A' for Active; 'I' for Inactive)
REMARK    1  A    between atoms: _5  and  _11
REMARK    2  A    between atoms: _19  and  _21
REMARK    3  A    between atoms: _22  and  _66
REMARK    4  A    between atoms: _27  and  _30
REMARK    5  A    between atoms: _32  and  _33
REMARK    6  A    between atoms: _38  and  _43
REMARK    7  A    between atoms: _43  and  _46
REMARK    8  A    between atoms: _53  and  _55
REMARK                            x       y       z     vdW  Elec       q    Type
REMARK                         _______ _______ _______ _____ _____    ______ ____
ROOT
ATOM     10  C   UNL     1      12.075   4.356   2.169  0.00  0.00    +0.038 A 
ATOM     11  C   UNL     1      11.652   3.030   2.441  0.00  0.00    +0.047 A 
ATOM     12  C   UNL     1      12.466   2.129   3.242  0.00  0.00    +0.035 A 
ATOM     32  C   UNL     1      13.706   2.613   3.753  0.00  0.00    +0.024 A 
ATOM     33  C   UNL     1      14.152   3.958   3.486  0.00  0.00    +0.007 A 
ATOM     34  C   UNL     1      13.354   4.850   2.694  0.00  0.00    -0.029 A 
ATOM     35  C   UNL     1      13.885   6.279   2.434  0.00  0.00    +0.045 C 
ENDROOT
BRANCH  10   9
ATOM      4  C   UNL     1      11.045   6.683  -1.900  0.00  0.00    +0.077 A 
ATOM      5  C   UNL     1      12.260   6.247  -2.527  0.00  0.00    +0.048 A 
ATOM      6  C   UNL     1      13.126   5.430  -1.765  0.00  0.00    +0.116 A 
ATOM      7  N   UNL     1      12.792   5.082  -0.474  0.00  0.00    -0.223 NA
ATOM      8  C   UNL     1      11.613   5.522   0.101  0.00  0.00    +0.220 A 
ATOM      9  N   UNL     1      11.254   5.178   1.395  0.00  0.00    -0.283 N 
ATOM     36  H   UNL     1      10.379   5.528   1.785  0.00  0.00    +0.155 HD
ATOM     37  N   UNL     1      10.770   6.304  -0.605  0.00  0.00    -0.214 NA
BRANCH   4   3
ATOM      1  C   UNL     1       7.695   8.015  -3.419  0.00  0.00    +0.020 A 
ATOM      2  C   UNL     1       8.639   7.142  -2.759  0.00  0.00    +0.013 A 
ATOM      3  C   UNL     1      10.027   7.548  -2.577  0.00  0.00    +0.019 A 
ATOM     38  C   UNL     1      10.431   8.853  -3.076  0.00  0.00    +0.120 A 
ATOM     39  N   UNL     1       9.500   9.672  -3.709  0.00  0.00    -0.263 NA
ATOM     40  C   UNL     1       8.162   9.291  -3.892  0.00  0.00    +0.111 A 
ENDBRANCH   4   3
ENDBRANCH  10   9
BRANCH  12  13
ATOM     13  N   UNL     1      12.092   0.770   3.544  0.00  0.00    -0.281 N 
ATOM     14  C   UNL     1      11.162   0.328   4.471  0.00  0.00    +0.248 C 
ATOM     30  O   UNL     1      10.662   1.031   5.337  0.00  0.00    -0.270 OA
ATOM     31  H   UNL     1      12.571   0.045   3.009  0.00  0.00    +0.155 HD
BRANCH  14  15
ATOM     15  C   UNL     1      10.737  -1.104   4.441  0.00  0.00    +0.037 A 
ATOM     16  C   UNL     1      11.508  -2.141   5.133  0.00  0.00    +0.013 A 
ATOM     17  C   UNL     1      11.085  -3.517   5.074  0.00  0.00    +0.005 A 
ATOM     18  C   UNL     1       9.883  -3.866   4.321  0.00  0.00    -0.033 A 
ATOM     28  C   UNL     1       9.134  -2.817   3.649  0.00  0.00    +0.005 A 
ATOM     29  C   UNL     1       9.546  -1.467   3.703  0.00  0.00    +0.013 A 
BRANCH  18  19
ATOM     19  C   UNL     1       9.370  -5.312   4.187  0.00  0.00    +0.119 C 
BRANCH  19  20
ATOM     20  N   UNL     1       8.336  -5.576   3.142  0.00  0.00    -0.302 NA
ATOM     21  C   UNL     1       7.082  -6.232   3.727  0.00  0.00    +0.066 C 
ATOM     22  C   UNL     1       6.002  -6.481   2.624  0.00  0.00    -0.064 C 
ATOM     23  N   UNL     1       6.600  -7.349   1.515  0.00  0.00    +0.379 N 
ATOM     24  C   UNL     1       5.571  -7.633   0.505  0.00  0.00    -0.096 C 
ATOM     25  H   UNL     1       6.903  -8.319   1.972  0.00  0.00    -0.082 HD
ATOM     26  C   UNL     1       7.849  -6.705   0.930  0.00  0.00    -0.064 C 
ATOM     27  C   UNL     1       8.904  -6.435   2.039  0.00  0.00    +0.066 C 
ENDBRANCH  19  20
ENDBRANCH  18  19
ENDBRANCH  14  15
ENDBRANCH  12  13
TORSDOF 6
ENDMDL
