MODEL 1
REMARK VINA RESULT:      -8.7      0.000      0.000
REMARK  Name = C:\Users\Docking\Desktop\test protocol\1iep_ligandH.pdb
REMARK  8 active torsions:
REMARK  status: ('A' for Active; 'I' for Inactive)
REMARK    1  A    between atoms: _5  and  _11
REMARK    2  A    between atoms: _19  and  _21
REMARK    3  A    between atoms: _22  and  _66
REMARK    4  A    between atoms: _27  and  _30
REMARK    5  A    between atoms: _32  and  _33
REMARK    6  A    between atoms: _38  and  _43
REMARK    7  A    between atoms: _43  and  _46
REMARK    8  A    between atoms: _53  and  _55
REMARK                            x       y       z     vdW  Elec       q    Type
REMARK                         _______ _______ _______ _____ _____    ______ ____
ROOT
ATOM     10  C   UNL     1      20.176  29.776  22.252  0.00  0.00    +0.038 A 
ATOM     11  C   UNL     1      20.555  29.745  20.886  0.00  0.00    +0.047 A 
ATOM     12  C   UNL     1      19.952  30.646  19.916  0.00  0.00    +0.035 A 
ATOM     32  C   UNL     1      18.967  31.570  20.374  0.00  0.00    +0.024 A 
ATOM     33  C   UNL     1      18.569  31.615  21.759  0.00  0.00    +0.007 A 
ATOM     34  C   UNL     1      19.159  30.726  22.719  0.00  0.00    -0.029 A 
ATOM     35  C   UNL     1      18.689  30.814  24.190  0.00  0.00    +0.045 C 
ENDROOT
BRANCH  10   9
ATOM      4  C   UNL     1      20.213  25.739  24.847  0.00  0.00    +0.077 A 
ATOM      5  C   UNL     1      18.891  25.382  24.419  0.00  0.00    +0.048 A 
ATOM      6  C   UNL     1      18.233  26.268  23.537  0.00  0.00    +0.116 A 
ATOM      7  N   UNL     1      18.860  27.422  23.120  0.00  0.00    -0.223 NA
ATOM      8  C   UNL     1      20.135  27.737  23.553  0.00  0.00    +0.220 A 
ATOM      9  N   UNL     1      20.788  28.888  23.140  0.00  0.00    -0.283 N 
ATOM     36  H   UNL     1      21.725  29.089  23.488  0.00  0.00    +0.155 HD
ATOM     37  N   UNL     1      20.784  26.908  24.397  0.00  0.00    -0.214 NA
BRANCH   4   3
ATOM      1  C   UNL     1      21.319  23.421  27.797  0.00  0.00    +0.020 A 
ATOM      2  C   UNL     1      20.478  24.216  26.932  0.00  0.00    +0.013 A 
ATOM      3  C   UNL     1      21.038  24.904  25.776  0.00  0.00    +0.019 A 
ATOM     38  C   UNL     1      22.464  24.765  25.520  0.00  0.00    +0.120 A 
ATOM     39  N   UNL     1      23.249  23.994  26.371  0.00  0.00    -0.263 NA
ATOM     40  C   UNL     1      22.722  23.329  27.488  0.00  0.00    +0.111 A 
ENDBRANCH   4   3
ENDBRANCH  10   9
BRANCH  12  13
ATOM     13  N   UNL     1      20.291  30.655  18.515  0.00  0.00    -0.281 N 
ATOM     14  C   UNL     1      20.844  31.689  17.779  0.00  0.00    +0.248 C 
ATOM     30  O   UNL     1      20.934  32.844  18.169  0.00  0.00    -0.270 OA
ATOM     31  H   UNL     1      20.099  29.793  18.004  0.00  0.00    +0.155 HD
BRANCH  14  15
ATOM     15  C   UNL     1      21.358  31.403  16.405  0.00  0.00    +0.037 A 
ATOM     16  C   UNL     1      22.557  32.069  15.888  0.00  0.00    +0.013 A 
ATOM     17  C   UNL     1      23.021  31.788  14.553  0.00  0.00    +0.005 A 
ATOM     18  C   UNL     1      22.287  30.834  13.725  0.00  0.00    -0.033 A 
ATOM     28  C   UNL     1      21.103  30.185  14.264  0.00  0.00    +0.005 A 
ATOM     29  C   UNL     1      20.644  30.459  15.572  0.00  0.00    +0.013 A 
BRANCH  18  19
ATOM     19  C   UNL     1      22.698  30.489  12.281  0.00  0.00    +0.119 C 
BRANCH  19  20
ATOM     20  N   UNL     1      23.122  29.084  12.008  0.00  0.00    -0.302 NA
ATOM     21  C   UNL     1      24.415  29.023  11.190  0.00  0.00    +0.066 C 
ATOM     22  C   UNL     1      24.857  27.545  10.933  0.00  0.00    -0.064 C 
ATOM     23  N   UNL     1      23.730  26.795  10.221  0.00  0.00    +0.379 N 
ATOM     24  C   UNL     1      24.164  25.422   9.926  0.00  0.00    -0.096 C 
ATOM     25  H   UNL     1      23.544  27.308   9.249  0.00  0.00    -0.082 HD
ATOM     26  C   UNL     1      22.439  26.854  11.027  0.00  0.00    -0.064 C 
ATOM     27  C   UNL     1      22.025  28.326  11.302  0.00  0.00    +0.066 C 
ENDBRANCH  19  20
ENDBRANCH  18  19
ENDBRANCH  14  15
ENDBRANCH  12  13
TORSDOF 6
ENDMDL
MODEL 2
REMARK VINA RESULT:      -8.5      2.049      3.030
REMARK  Name = C:\Users\Docking\Desktop\test protocol\1iep_ligandH.pdb
REMARK  8 active torsions:
REMARK  status: ('A' for Active; 'I' for Inactive)
REMARK    1  A    between atoms: _5  and  _11
REMARK    2  A    between atoms: _19  and  _21
REMARK    3  A    between atoms: _22  and  _66
REMARK    4  A    between atoms: _27  and  _30
REMARK    5  A    between atoms: _32  and  _33
REMARK    6  A    between atoms: _38  and  _43
REMARK    7  A    between atoms: _43  and  _46
REMARK    8  A    between atoms: _53  and  _55
REMARK                            x       y       z     vdW  Elec       q    Type
REMARK                         _______ _______ _______ _____ _____    ______ ____
ROOT
ATOM     10  C   UNL     1      20.057  29.652  22.296  0.00  0.00    +0.038 A 
ATOM     11  C   UNL     1      20.513  29.726  20.954  0.00  0.00    +0.047 A 
ATOM     12  C   UNL     1      19.878  30.612  19.991  0.00  0.00    +0.035 A 
ATOM     32  C   UNL     1      18.783  31.412  20.429  0.00  0.00    +0.024 A 
ATOM     33  C   UNL     1      18.306  31.350  21.789  0.00  0.00    +0.007 A 
ATOM     34  C   UNL     1      18.927  30.475  22.742  0.00  0.00    -0.029 A 
ATOM     35  C   UNL     1      18.370  30.444  24.185  0.00  0.00    +0.045 C 
ENDROOT
BRANCH  10   9
ATOM      4  C   UNL     1      20.218  25.647  24.936  0.00  0.00    +0.077 A 
ATOM      5  C   UNL     1      18.891  25.266  24.545  0.00  0.00    +0.048 A 
ATOM      6  C   UNL     1      18.199  26.132  23.669  0.00  0.00    +0.116 A 
ATOM      7  N   UNL     1      18.798  27.289  23.223  0.00  0.00    -0.223 NA
ATOM      8  C   UNL     1      20.078  27.629  23.621  0.00  0.00    +0.220 A 
ATOM      9  N   UNL     1      20.704  28.784  23.178  0.00  0.00    -0.283 N 
ATOM     36  H   UNL     1      21.646  29.002  23.500  0.00  0.00    +0.155 HD
ATOM     37  N   UNL     1      20.760  26.819  24.458  0.00  0.00    -0.214 NA
BRANCH   4   3
ATOM      1  C   UNL     1      21.420  23.331  27.850  0.00  0.00    +0.020 A 
ATOM      2  C   UNL     1      20.546  24.101  26.994  0.00  0.00    +0.013 A 
ATOM      3  C   UNL     1      21.078  24.835  25.854  0.00  0.00    +0.019 A 
ATOM     38  C   UNL     1      22.510  24.770  25.603  0.00  0.00    +0.120 A 
ATOM     39  N   UNL     1      23.327  24.022  26.445  0.00  0.00    -0.263 NA
ATOM     40  C   UNL     1      22.827  23.312  27.547  0.00  0.00    +0.111 A 
ENDBRANCH   4   3
ENDBRANCH  10   9
BRANCH  12  13
ATOM     13  N   UNL     1      20.291  30.723  18.615  0.00  0.00    -0.281 N 
ATOM     14  C   UNL     1      20.787  31.839  17.961  0.00  0.00    +0.248 C 
ATOM     30  O   UNL     1      20.749  32.976  18.409  0.00  0.00    -0.270 OA
ATOM     31  H   UNL     1      20.209  29.875  18.053  0.00  0.00    +0.155 HD
BRANCH  14  15
ATOM     15  C   UNL     1      21.400  31.672  16.609  0.00  0.00    +0.037 A 
ATOM     16  C   UNL     1      20.838  30.737  15.630  0.00  0.00    +0.013 A 
ATOM     17  C   UNL     1      21.459  30.582  14.338  0.00  0.00    +0.005 A 
ATOM     18  C   UNL     1      22.650  31.366  14.018  0.00  0.00    -0.033 A 
ATOM     28  C   UNL     1      23.184  32.289  15.006  0.00  0.00    +0.005 A 
ATOM     29  C   UNL     1      22.578  32.443  16.273  0.00  0.00    +0.013 A 
BRANCH  18  19
ATOM     19  C   UNL     1      23.391  31.249  12.673  0.00  0.00    +0.119 C 
BRANCH  19  20
ATOM     20  N   UNL     1      23.515  32.490  11.851  0.00  0.00    -0.302 NA
ATOM     21  C   UNL     1      22.156  32.981  11.343  0.00  0.00    +0.066 C 
ATOM     22  C   UNL     1      22.302  34.292  10.504  0.00  0.00    -0.064 C 
ATOM     23  N   UNL     1      23.258  34.044   9.337  0.00  0.00    +0.379 N 
ATOM     24  C   UNL     1      23.352  35.257   8.513  0.00  0.00    -0.096 C 
ATOM     25  H   UNL     1      22.817  33.238   8.704  0.00  0.00    -0.082 HD
ATOM     26  C   UNL     1      24.611  33.552   9.832  0.00  0.00    -0.064 C 
ATOM     27  C   UNL     1      24.452  32.265  10.689  0.00  0.00    +0.066 C 
ENDBRANCH  19  20
ENDBRANCH  18  19
ENDBRANCH  14  15
ENDBRANCH  12  13
TORSDOF 6
ENDMDL
MODEL 3
REMARK VINA RESULT:      -8.4     12.637     17.085
REMARK  Name = C:\Users\Docking\Desktop\test protocol\1iep_ligandH.pdb
REMARK  8 active torsions:
REMARK  status: ('A' for Active; 'I' for Inactive)
REMARK    1  A    between atoms: _5  and  _11
REMARK    2  A    between atoms: _19  and  _21
REMARK    3  A    between atoms: _22  and  _66
REMARK    4  A    between atoms: _27  and  _30
REMARK    5  A    between atoms: _32  and  _33
REMARK    6  A    between atoms: _38  and  _43
REMARK    7  A    between atoms: _43  and  _46
REMARK    8  A    between atoms: _53  and  _55
REMARK                            x       y       z     vdW  Elec       q    Type
REMARK                         _______ _______ _______ _____ _____    ______ ____
ROOT
ATOM     10  C   UNL     1      27.762  19.777  29.255  0.00  0.00    +0.038 A 
ATOM     11  C   UNL     1      26.375  20.005  29.447  0.00  0.00    +0.047 A 
ATOM     12  C   UNL     1      25.840  21.354  29.549  0.00  0.00    +0.035 A 
ATOM     32  C   UNL     1      26.747  22.449  29.449  0.00  0.00    +0.024 A 
ATOM     33  C   UNL     1      28.160  22.236  29.256  0.00  0.00    +0.007 A 
ATOM     34  C   UNL     1      28.693  20.908  29.157  0.00  0.00    -0.029 A 
ATOM     35  C   UNL     1      30.217  20.739  28.956  0.00  0.00    +0.045 C 
ENDROOT
BRANCH  10   9
ATOM      4  C   UNL     1      29.569  15.780  31.203  0.00  0.00    +0.077 A 
ATOM      5  C   UNL     1      29.629  16.373  32.508  0.00  0.00    +0.048 A 
ATOM      6  C   UNL     1      29.193  17.710  32.634  0.00  0.00    +0.116 A 
ATOM      7  N   UNL     1      28.731  18.395  31.531  0.00  0.00    -0.223 NA
ATOM      8  C   UNL     1      28.688  17.794  30.286  0.00  0.00    +0.220 A 
ATOM      9  N   UNL     1      28.220  18.461  29.164  0.00  0.00    -0.283 N 
ATOM     36  H   UNL     1      28.211  17.986  28.262  0.00  0.00    +0.155 HD
ATOM     37  N   UNL     1      29.101  16.518  30.139  0.00  0.00    -0.214 NA
BRANCH   4   3
ATOM      1  C   UNL     1      30.851  12.107  31.605  0.00  0.00    +0.020 A 
ATOM      2  C   UNL     1      30.455  13.455  31.941  0.00  0.00    +0.013 A 
ATOM      3  C   UNL     1      29.992  14.374  30.909  0.00  0.00    +0.019 A 
ATOM     38  C   UNL     1      29.940  13.894  29.537  0.00  0.00    +0.120 A 
ATOM     39  N   UNL     1      30.329  12.591  29.242  0.00  0.00    -0.263 NA
ATOM     40  C   UNL     1      30.779  11.698  30.226  0.00  0.00    +0.111 A 
ENDBRANCH   4   3
ENDBRANCH  10   9
BRANCH  12  13
ATOM     13  N   UNL     1      24.443  21.646  29.751  0.00  0.00    -0.281 N 
ATOM     14  C   UNL     1      23.670  22.599  29.109  0.00  0.00    +0.248 C 
ATOM     30  O   UNL     1      24.119  23.495  28.409  0.00  0.00    -0.270 OA
ATOM     31  H   UNL     1      23.965  21.081  30.454  0.00  0.00    +0.155 HD
BRANCH  14  15
ATOM     15  C   UNL     1      22.186  22.560  29.279  0.00  0.00    +0.037 A 
ATOM     16  C   UNL     1      21.557  21.672  30.260  0.00  0.00    +0.013 A 
ATOM     17  C   UNL     1      20.122  21.642  30.392  0.00  0.00    +0.005 A 
ATOM     18  C   UNL     1      19.306  22.505  29.541  0.00  0.00    -0.033 A 
ATOM     28  C   UNL     1      19.956  23.380  28.580  0.00  0.00    +0.005 A 
ATOM     29  C   UNL     1      21.363  23.412  28.447  0.00  0.00    +0.013 A 
BRANCH  18  19
ATOM     19  C   UNL     1      17.767  22.523  29.599  0.00  0.00    +0.119 C 
BRANCH  19  20
ATOM     20  N   UNL     1      17.126  23.582  30.436  0.00  0.00    -0.302 NA
ATOM     21  C   UNL     1      17.305  23.317  31.933  0.00  0.00    +0.066 C 
ATOM     22  C   UNL     1      16.648  24.446  32.793  0.00  0.00    -0.064 C 
ATOM     23  N   UNL     1      15.165  24.558  32.436  0.00  0.00    +0.379 N 
ATOM     24  C   UNL     1      14.532  25.579  33.283  0.00  0.00    -0.096 C 
ATOM     25  H   UNL     1      14.686  23.579  32.670  0.00  0.00    -0.082 HD
ATOM     26  C   UNL     1      14.978  24.819  30.947  0.00  0.00    -0.064 C 
ATOM     27  C   UNL     1      15.660  23.707  30.102  0.00  0.00    +0.066 C 
ENDBRANCH  19  20
ENDBRANCH  18  19
ENDBRANCH  14  15
ENDBRANCH  12  13
TORSDOF 6
ENDMDL
MODEL 4
REMARK VINA RESULT:      -8.0      6.670     13.104
REMARK  Name = C:\Users\Docking\Desktop\test protocol\1iep_ligandH.pdb
REMARK  8 active torsions:
REMARK  status: ('A' for Active; 'I' for Inactive)
REMARK    1  A    between atoms: _5  and  _11
REMARK    2  A    between atoms: _19  and  _21
REMARK    3  A    between atoms: _22  and  _66
REMARK    4  A    between atoms: _27  and  _30
REMARK    5  A    between atoms: _32  and  _33
REMARK    6  A    between atoms: _38  and  _43
REMARK    7  A    between atoms: _43  and  _46
REMARK    8  A    between atoms: _53  and  _55
REMARK                            x       y       z     vdW  Elec       q    Type
REMARK                         _______ _______ _______ _____ _____    ______ ____
ROOT
ATOM     10  C   UNL     1      18.494  28.338  22.728  0.00  0.00    +0.038 A 
ATOM     11  C   UNL     1      19.375  27.582  23.543  0.00  0.00    +0.047 A 
ATOM     12  C   UNL     1      18.907  26.418  24.279  0.00  0.00    +0.035 A 
ATOM     32  C   UNL     1      17.535  26.050  24.160  0.00  0.00    +0.024 A 
ATOM     33  C   UNL     1      16.625  26.808  23.338  0.00  0.00    +0.007 A 
ATOM     34  C   UNL     1      17.081  27.959  22.611  0.00  0.00    -0.029 A 
ATOM     35  C   UNL     1      16.059  28.737  21.749  0.00  0.00    +0.045 C 
ENDROOT
BRANCH  10   9
ATOM      4  C   UNL     1      19.344  33.046  22.340  0.00  0.00    +0.077 A 
ATOM      5  C   UNL     1      18.709  33.324  23.596  0.00  0.00    +0.048 A 
ATOM      6  C   UNL     1      18.170  32.229  24.308  0.00  0.00    +0.116 A 
ATOM      7  N   UNL     1      18.265  30.954  23.792  0.00  0.00    -0.223 NA
ATOM      8  C   UNL     1      18.883  30.721  22.577  0.00  0.00    +0.220 A 
ATOM      9  N   UNL     1      18.997  29.447  22.043  0.00  0.00    -0.283 N 
ATOM     36  H   UNL     1      19.453  29.317  21.140  0.00  0.00    +0.155 HD
ATOM     37  N   UNL     1      19.404  31.750  21.878  0.00  0.00    -0.214 NA
BRANCH   4   3
ATOM      1  C   UNL     1      21.953  35.313  20.509  0.00  0.00    +0.020 A 
ATOM      2  C   UNL     1      21.405  34.283  21.361  0.00  0.00    +0.013 A 
ATOM      3  C   UNL     1      19.964  34.097  21.473  0.00  0.00    +0.019 A 
ATOM     38  C   UNL     1      19.098  34.977  20.703  0.00  0.00    +0.120 A 
ATOM     39  N   UNL     1      19.654  35.962  19.892  0.00  0.00    -0.263 NA
ATOM     40  C   UNL     1      21.039  36.151  19.778  0.00  0.00    +0.111 A 
ENDBRANCH   4   3
ENDBRANCH  10   9
BRANCH  12  13
ATOM     13  N   UNL     1      19.754  25.617  25.128  0.00  0.00    -0.281 N 
ATOM     14  C   UNL     1      21.079  25.269  24.924  0.00  0.00    +0.248 C 
ATOM     30  O   UNL     1      21.678  25.416  23.869  0.00  0.00    -0.270 OA
ATOM     31  H   UNL     1      19.324  25.265  25.983  0.00  0.00    +0.155 HD
BRANCH  14  15
ATOM     15  C   UNL     1      21.845  24.654  26.050  0.00  0.00    +0.037 A 
ATOM     16  C   UNL     1      21.602  23.271  26.470  0.00  0.00    +0.013 A 
ATOM     17  C   UNL     1      22.343  22.708  27.571  0.00  0.00    +0.005 A 
ATOM     18  C   UNL     1      23.337  23.528  28.259  0.00  0.00    -0.033 A 
ATOM     28  C   UNL     1      23.562  24.895  27.818  0.00  0.00    +0.005 A 
ATOM     29  C   UNL     1      22.837  25.451  26.741  0.00  0.00    +0.013 A 
BRANCH  18  19
ATOM     19  C   UNL     1      24.159  23.017  29.456  0.00  0.00    +0.119 C 
BRANCH  19  20
ATOM     20  N   UNL     1      24.181  21.542  29.691  0.00  0.00    -0.302 NA
ATOM     21  C   UNL     1      23.500  21.160  31.008  0.00  0.00    +0.066 C 
ATOM     22  C   UNL     1      23.512  19.611  31.226  0.00  0.00    -0.064 C 
ATOM     23  N   UNL     1      24.955  19.106  31.196  0.00  0.00    +0.379 N 
ATOM     24  C   UNL     1      24.974  17.660  31.459  0.00  0.00    -0.096 C 
ATOM     25  H   UNL     1      25.506  19.608  32.025  0.00  0.00    -0.082 HD
ATOM     26  C   UNL     1      25.640  19.484  29.891  0.00  0.00    -0.064 C 
ATOM     27  C   UNL     1      25.597  21.022  29.669  0.00  0.00    +0.066 C 
ENDBRANCH  19  20
ENDBRANCH  18  19
ENDBRANCH  14  15
ENDBRANCH  12  13
TORSDOF 6
ENDMDL
MODEL 5
REMARK VINA RESULT:      -7.9      2.046     12.291
REMARK  Name = C:\Users\Docking\Desktop\test protocol\1iep_ligandH.pdb
REMARK  8 active torsions:
REMARK  status: ('A' for Active; 'I' for Inactive)
REMARK    1  A    between atoms: _5  and  _11
REMARK    2  A    between atoms: _19  and  _21
REMARK    3  A    between atoms: _22  and  _66
REMARK    4  A    between atoms: _27  and  _30
REMARK    5  A    between atoms: _32  and  _33
REMARK    6  A    between atoms: _38  and  _43
REMARK    7  A    between atoms: _43  and  _46
REMARK    8  A    between atoms: _53  and  _55
REMARK                            x       y       z     vdW  Elec       q    Type
REMARK                         _______ _______ _______ _____ _____    ______ ____
ROOT
ATOM     10  C   UNL     1      22.557  29.819  12.067  0.00  0.00    +0.038 A 
ATOM     11  C   UNL     1      21.947  29.843  13.347  0.00  0.00    +0.047 A 
ATOM     12  C   UNL     1      22.262  30.886  14.311  0.00  0.00    +0.035 A 
ATOM     32  C   UNL     1      23.202  31.891  13.937  0.00  0.00    +0.024 A 
ATOM     33  C   UNL     1      23.832  31.880  12.640  0.00  0.00    +0.007 A 
ATOM     34  C   UNL     1      23.527  30.852  11.686  0.00  0.00    -0.029 A 
ATOM     35  C   UNL     1      24.238  30.887  10.314  0.00  0.00    +0.045 C 
ENDROOT
BRANCH  10   9
ATOM      4  C   UNL     1      23.276  25.486  10.131  0.00  0.00    +0.077 A 
ATOM      5  C   UNL     1      24.442  25.256  10.933  0.00  0.00    +0.048 A 
ATOM      6  C   UNL     1      24.828  26.280  11.827  0.00  0.00    +0.116 A 
ATOM      7  N   UNL     1      24.094  27.444  11.904  0.00  0.00    -0.223 NA
ATOM      8  C   UNL     1      22.975  27.635  11.114  0.00  0.00    +0.220 A 
ATOM      9  N   UNL     1      22.217  28.794  11.181  0.00  0.00    -0.283 N 
ATOM     36  H   UNL     1      21.403  28.900  10.576  0.00  0.00    +0.155 HD
ATOM     37  N   UNL     1      22.587  26.672  10.252  0.00  0.00    -0.214 NA
BRANCH   4   3
ATOM      1  C   UNL     1      23.030  22.777   7.320  0.00  0.00    +0.020 A 
ATOM      2  C   UNL     1      23.597  23.719   8.257  0.00  0.00    +0.013 A 
ATOM      3  C   UNL     1      22.740  24.498   9.142  0.00  0.00    +0.019 A 
ATOM     38  C   UNL     1      21.302  24.297   9.054  0.00  0.00    +0.120 A 
ATOM     39  N   UNL     1      20.784  23.384   8.141  0.00  0.00    -0.263 NA
ATOM     40  C   UNL     1      21.598  22.630   7.283  0.00  0.00    +0.111 A 
ENDBRANCH   4   3
ENDBRANCH  10   9
BRANCH  12  13
ATOM     13  N   UNL     1      21.680  30.958  15.629  0.00  0.00    -0.281 N 
ATOM     14  C   UNL     1      20.395  31.344  15.972  0.00  0.00    +0.248 C 
ATOM     30  O   UNL     1      19.612  31.893  15.212  0.00  0.00    -0.270 OA
ATOM     31  H   UNL     1      22.290  30.693  16.402  0.00  0.00    +0.155 HD
BRANCH  14  15
ATOM     15  C   UNL     1      19.915  31.097  17.366  0.00  0.00    +0.037 A 
ATOM     16  C   UNL     1      18.828  30.154  17.639  0.00  0.00    +0.013 A 
ATOM     17  C   UNL     1      18.373  29.947  18.991  0.00  0.00    +0.005 A 
ATOM     18  C   UNL     1      19.007  30.685  20.081  0.00  0.00    -0.033 A 
ATOM     28  C   UNL     1      20.087  31.610  19.782  0.00  0.00    +0.005 A 
ATOM     29  C   UNL     1      20.535  31.816  18.458  0.00  0.00    +0.013 A 
BRANCH  18  19
ATOM     19  C   UNL     1      18.572  30.542  21.552  0.00  0.00    +0.119 C 
BRANCH  19  20
ATOM     20  N   UNL     1      18.785  29.215  22.203  0.00  0.00    -0.302 NA
ATOM     21  C   UNL     1      18.872  29.331  23.727  0.00  0.00    +0.066 C 
ATOM     22  C   UNL     1      19.072  27.930  24.393  0.00  0.00    -0.064 C 
ATOM     23  N   UNL     1      20.333  27.275  23.827  0.00  0.00    +0.379 N 
ATOM     24  C   UNL     1      20.556  25.983  24.493  0.00  0.00    -0.096 C 
ATOM     25  H   UNL     1      21.196  27.935  24.071  0.00  0.00    -0.082 HD
ATOM     26  C   UNL     1      20.255  27.159  22.311  0.00  0.00    -0.064 C 
ATOM     27  C   UNL     1      20.027  28.552  21.661  0.00  0.00    +0.066 C 
ENDBRANCH  19  20
ENDBRANCH  18  19
ENDBRANCH  14  15
ENDBRANCH  12  13
TORSDOF 6
ENDMDL
