MODEL 1
REMARK VINA RESULT:      -8.2      0.000      0.000
REMARK  Name = C:\Users\Docking\Desktop\test protocol\1iep_ligandH.pdb
REMARK  8 active torsions:
REMARK  status: ('A' for Active; 'I' for Inactive)
REMARK    1  A    between atoms: _5  and  _11
REMARK    2  A    between atoms: _19  and  _21
REMARK    3  A    between atoms: _22  and  _66
REMARK    4  A    between atoms: _27  and  _30
REMARK    5  A    between atoms: _32  and  _33
REMARK    6  A    between atoms: _38  and  _43
REMARK    7  A    between atoms: _43  and  _46
REMARK    8  A    between atoms: _53  and  _55
REMARK                            x       y       z     vdW  Elec       q    Type
REMARK                         _______ _______ _______ _____ _____    ______ ____
ROOT
ATOM     10  C   UNL     1       8.721  25.785  18.960  0.00  0.00    +0.038 A 
ATOM     11  C   UNL     1      10.050  25.574  18.514  0.00  0.00    +0.047 A 
ATOM     12  C   UNL     1      10.605  24.233  18.412  0.00  0.00    +0.035 A 
ATOM     32  C   UNL     1       9.776  23.130  18.769  0.00  0.00    +0.024 A 
ATOM     33  C   UNL     1       8.423  23.327  19.225  0.00  0.00    +0.007 A 
ATOM     34  C   UNL     1       7.871  24.647  19.330  0.00  0.00    -0.029 A 
ATOM     35  C   UNL     1       6.416  24.800  19.831  0.00  0.00    +0.045 C 
ENDROOT
BRANCH  10   9
ATOM      4  C   UNL     1       7.811  29.821  21.394  0.00  0.00    +0.077 A 
ATOM      5  C   UNL     1       8.313  29.266  22.618  0.00  0.00    +0.048 A 
ATOM      6  C   UNL     1       8.790  27.936  22.580  0.00  0.00    +0.116 A 
ATOM      7  N   UNL     1       8.762  27.224  21.401  0.00  0.00    -0.223 NA
ATOM      8  C   UNL     1       8.270  27.789  20.238  0.00  0.00    +0.220 A 
ATOM      9  N   UNL     1       8.239  27.094  19.039  0.00  0.00    -0.283 N 
ATOM     36  H   UNL     1       7.861  27.544  18.205  0.00  0.00    +0.155 HD
ATOM     37  N   UNL     1       7.807  29.057  20.249  0.00  0.00    -0.214 NA
BRANCH   4   3
ATOM      1  C   UNL     1       5.974  33.192  22.140  0.00  0.00    +0.020 A 
ATOM      2  C   UNL     1       6.465  31.844  22.307  0.00  0.00    +0.013 A 
ATOM      3  C   UNL     1       7.277  31.214  21.273  0.00  0.00    +0.019 A 
ATOM     38  C   UNL     1       7.576  31.982  20.073  0.00  0.00    +0.120 A 
ATOM     39  N   UNL     1       7.087  33.278  19.940  0.00  0.00    -0.263 NA
ATOM     40  C   UNL     1       6.304  33.894  20.928  0.00  0.00    +0.111 A 
ENDBRANCH   4   3
ENDBRANCH  10   9
BRANCH  12  13
ATOM     13  N   UNL     1      11.951  23.957  17.974  0.00  0.00    -0.281 N 
ATOM     14  C   UNL     1      12.354  23.301  16.822  0.00  0.00    +0.248 C 
ATOM     30  O   UNL     1      11.609  22.661  16.094  0.00  0.00    -0.270 OA
ATOM     31  H   UNL     1      12.697  24.284  18.587  0.00  0.00    +0.155 HD
BRANCH  14  15
ATOM     15  C   UNL     1      13.795  23.352  16.429  0.00  0.00    +0.037 A 
ATOM     16  C   UNL     1      14.803  23.942  17.312  0.00  0.00    +0.013 A 
ATOM     17  C   UNL     1      16.184  23.993  16.901  0.00  0.00    +0.005 A 
ATOM     18  C   UNL     1      16.564  23.451  15.599  0.00  0.00    -0.033 A 
ATOM     28  C   UNL     1      15.544  22.867  14.745  0.00  0.00    +0.005 A 
ATOM     29  C   UNL     1      14.190  22.815  15.144  0.00  0.00    +0.013 A 
BRANCH  18  19
ATOM     19  C   UNL     1      18.010  23.483  15.070  0.00  0.00    +0.119 C 
BRANCH  19  20
ATOM     20  N   UNL     1      18.739  24.784  15.150  0.00  0.00    -0.302 NA
ATOM     21  C   UNL     1      18.027  25.891  14.369  0.00  0.00    +0.066 C 
ATOM     22  C   UNL     1      18.791  27.250  14.482  0.00  0.00    -0.064 C 
ATOM     23  N   UNL     1      20.224  27.069  13.979  0.00  0.00    +0.379 N 
ATOM     24  C   UNL     1      20.928  28.359  14.030  0.00  0.00    -0.096 C 
ATOM     25  H   UNL     1      20.171  26.755  12.911  0.00  0.00    -0.082 HD
ATOM     26  C   UNL     1      20.940  25.968  14.749  0.00  0.00    -0.064 C 
ATOM     27  C   UNL     1      20.156  24.629  14.655  0.00  0.00    +0.066 C 
ENDBRANCH  19  20
ENDBRANCH  18  19
ENDBRANCH  14  15
ENDBRANCH  12  13
TORSDOF 6
ENDMDL
MODEL 2
REMARK VINA RESULT:      -8.1      2.399     12.411
REMARK  Name = C:\Users\Docking\Desktop\test protocol\1iep_ligandH.pdb
REMARK  8 active torsions:
REMARK  status: ('A' for Active; 'I' for Inactive)
REMARK    1  A    between atoms: _5  and  _11
REMARK    2  A    between atoms: _19  and  _21
REMARK    3  A    between atoms: _22  and  _66
REMARK    4  A    between atoms: _27  and  _30
REMARK    5  A    between atoms: _32  and  _33
REMARK    6  A    between atoms: _38  and  _43
REMARK    7  A    between atoms: _43  and  _46
REMARK    8  A    between atoms: _53  and  _55
REMARK                            x       y       z     vdW  Elec       q    Type
REMARK                         _______ _______ _______ _____ _____    ______ ____
ROOT
ATOM     10  C   UNL     1      19.155  23.659  14.567  0.00  0.00    +0.038 A 
ATOM     11  C   UNL     1      17.937  23.809  15.279  0.00  0.00    +0.047 A 
ATOM     12  C   UNL     1      16.730  23.113  14.861  0.00  0.00    +0.035 A 
ATOM     32  C   UNL     1      16.799  22.270  13.714  0.00  0.00    +0.024 A 
ATOM     33  C   UNL     1      18.028  22.108  12.977  0.00  0.00    +0.007 A 
ATOM     34  C   UNL     1      19.221  22.793  13.383  0.00  0.00    -0.029 A 
ATOM     35  C   UNL     1      20.509  22.587  12.552  0.00  0.00    +0.045 C 
ENDROOT
BRANCH  10   9
ATOM      4  C   UNL     1      21.678  27.696  15.176  0.00  0.00    +0.077 A 
ATOM      5  C   UNL     1      20.676  28.491  14.528  0.00  0.00    +0.048 A 
ATOM      6  C   UNL     1      19.529  27.821  14.045  0.00  0.00    +0.116 A 
ATOM      7  N   UNL     1      19.404  26.458  14.205  0.00  0.00    -0.223 NA
ATOM      8  C   UNL     1      20.391  25.721  14.834  0.00  0.00    +0.220 A 
ATOM      9  N   UNL     1      20.283  24.351  15.012  0.00  0.00    -0.283 N 
ATOM     36  H   UNL     1      21.036  23.842  15.475  0.00  0.00    +0.155 HD
ATOM     37  N   UNL     1      21.497  26.337  15.302  0.00  0.00    -0.214 NA
BRANCH   4   3
ATOM      1  C   UNL     1      24.786  29.982  15.825  0.00  0.00    +0.020 A 
ATOM      2  C   UNL     1      23.562  29.481  15.243  0.00  0.00    +0.013 A 
ATOM      3  C   UNL     1      22.945  28.258  15.742  0.00  0.00    +0.019 A 
ATOM     38  C   UNL     1      23.597  27.561  16.841  0.00  0.00    +0.120 A 
ATOM     39  N   UNL     1      24.776  28.067  17.380  0.00  0.00    -0.263 NA
ATOM     40  C   UNL     1      25.379  29.241  16.907  0.00  0.00    +0.111 A 
ENDBRANCH   4   3
ENDBRANCH  10   9
BRANCH  12  13
ATOM     13  N   UNL     1      15.464  23.232  15.540  0.00  0.00    -0.281 N 
ATOM     14  C   UNL     1      15.182  22.966  16.870  0.00  0.00    +0.248 C 
ATOM     30  O   UNL     1      15.935  22.377  17.631  0.00  0.00    -0.270 OA
ATOM     31  H   UNL     1      14.680  23.552  14.972  0.00  0.00    +0.155 HD
BRANCH  14  15
ATOM     15  C   UNL     1      13.869  23.405  17.432  0.00  0.00    +0.037 A 
ATOM     16  C   UNL     1      13.767  23.953  18.787  0.00  0.00    +0.013 A 
ATOM     17  C   UNL     1      12.485  24.353  19.311  0.00  0.00    +0.005 A 
ATOM     18  C   UNL     1      11.294  24.206  18.478  0.00  0.00    -0.033 A 
ATOM     28  C   UNL     1      11.424  23.664  17.136  0.00  0.00    +0.005 A 
ATOM     29  C   UNL     1      12.679  23.270  16.619  0.00  0.00    +0.013 A 
BRANCH  18  19
ATOM     19  C   UNL     1       9.882  24.587  18.963  0.00  0.00    +0.119 C 
BRANCH  19  20
ATOM     20  N   UNL     1       9.774  25.719  19.931  0.00  0.00    -0.302 NA
ATOM     21  C   UNL     1       8.824  25.397  21.087  0.00  0.00    +0.066 C 
ATOM     22  C   UNL     1       8.740  26.583  22.102  0.00  0.00    -0.064 C 
ATOM     23  N   UNL     1       8.291  27.848  21.368  0.00  0.00    +0.379 N 
ATOM     24  C   UNL     1       8.155  28.952  22.330  0.00  0.00    -0.096 C 
ATOM     25  H   UNL     1       7.282  27.649  20.938  0.00  0.00    -0.082 HD
ATOM     26  C   UNL     1       9.229  28.174  20.215  0.00  0.00    -0.064 C 
ATOM     27  C   UNL     1       9.328  26.978  19.228  0.00  0.00    +0.066 C 
ENDBRANCH  19  20
ENDBRANCH  18  19
ENDBRANCH  14  15
ENDBRANCH  12  13
TORSDOF 6
ENDMDL
MODEL 3
REMARK VINA RESULT:      -8.0      4.040     12.768
REMARK  Name = C:\Users\Docking\Desktop\test protocol\1iep_ligandH.pdb
REMARK  8 active torsions:
REMARK  status: ('A' for Active; 'I' for Inactive)
REMARK    1  A    between atoms: _5  and  _11
REMARK    2  A    between atoms: _19  and  _21
REMARK    3  A    between atoms: _22  and  _66
REMARK    4  A    between atoms: _27  and  _30
REMARK    5  A    between atoms: _32  and  _33
REMARK    6  A    between atoms: _38  and  _43
REMARK    7  A    between atoms: _43  and  _46
REMARK    8  A    between atoms: _53  and  _55
REMARK                            x       y       z     vdW  Elec       q    Type
REMARK                         _______ _______ _______ _____ _____    ______ ____
ROOT
ATOM     10  C   UNL     1      19.205  23.721  14.562  0.00  0.00    +0.038 A 
ATOM     11  C   UNL     1      18.006  23.933  15.289  0.00  0.00    +0.047 A 
ATOM     12  C   UNL     1      16.766  23.277  14.904  0.00  0.00    +0.035 A 
ATOM     32  C   UNL     1      16.784  22.408  13.774  0.00  0.00    +0.024 A 
ATOM     33  C   UNL     1      17.994  22.182  13.023  0.00  0.00    +0.007 A 
ATOM     34  C   UNL     1      19.219  22.829  13.396  0.00  0.00    -0.029 A 
ATOM     35  C   UNL     1      20.485  22.554  12.551  0.00  0.00    +0.045 C 
ENDROOT
BRANCH  10   9
ATOM      4  C   UNL     1      21.851  27.683  15.142  0.00  0.00    +0.077 A 
ATOM      5  C   UNL     1      20.845  28.514  14.545  0.00  0.00    +0.048 A 
ATOM      6  C   UNL     1      19.664  27.881  14.095  0.00  0.00    +0.116 A 
ATOM      7  N   UNL     1      19.512  26.519  14.237  0.00  0.00    -0.223 NA
ATOM      8  C   UNL     1      20.502  25.747  14.816  0.00  0.00    +0.220 A 
ATOM      9  N   UNL     1      20.367  24.376  14.976  0.00  0.00    -0.283 N 
ATOM     36  H   UNL     1      21.124  23.841  15.401  0.00  0.00    +0.155 HD
ATOM     37  N   UNL     1      21.640  26.327  15.252  0.00  0.00    -0.214 NA
BRANCH   4   3
ATOM      1  C   UNL     1      24.786  30.066  16.145  0.00  0.00    +0.020 A 
ATOM      2  C   UNL     1      23.518  29.614  15.622  0.00  0.00    +0.013 A 
ATOM      3  C   UNL     1      23.152  28.204  15.668  0.00  0.00    +0.019 A 
ATOM     38  C   UNL     1      24.100  27.269  16.256  0.00  0.00    +0.120 A 
ATOM     39  N   UNL     1      25.315  27.733  16.750  0.00  0.00    -0.263 NA
ATOM     40  C   UNL     1      25.679  29.087  16.709  0.00  0.00    +0.111 A 
ENDBRANCH   4   3
ENDBRANCH  10   9
BRANCH  12  13
ATOM     13  N   UNL     1      15.516  23.460  15.599  0.00  0.00    -0.281 N 
ATOM     14  C   UNL     1      15.115  22.888  16.795  0.00  0.00    +0.248 C 
ATOM     30  O   UNL     1      15.690  21.959  17.344  0.00  0.00    -0.270 OA
ATOM     31  H   UNL     1      14.846  24.088  15.156  0.00  0.00    +0.155 HD
BRANCH  14  15
ATOM     15  C   UNL     1      13.891  23.413  17.472  0.00  0.00    +0.037 A 
ATOM     16  C   UNL     1      12.598  23.451  16.783  0.00  0.00    +0.013 A 
ATOM     17  C   UNL     1      11.436  23.978  17.453  0.00  0.00    +0.005 A 
ATOM     18  C   UNL     1      11.562  24.472  18.823  0.00  0.00    -0.033 A 
ATOM     28  C   UNL     1      12.855  24.417  19.485  0.00  0.00    +0.005 A 
ATOM     29  C   UNL     1      13.996  23.902  18.830  0.00  0.00    +0.013 A 
BRANCH  18  19
ATOM     19  C   UNL     1      10.380  25.071  19.608  0.00  0.00    +0.119 C 
BRANCH  19  20
ATOM     20  N   UNL     1       9.071  24.357  19.523  0.00  0.00    -0.302 NA
ATOM     21  C   UNL     1       8.062  25.108  18.651  0.00  0.00    +0.066 C 
ATOM     22  C   UNL     1       6.706  24.336  18.555  0.00  0.00    -0.064 C 
ATOM     23  N   UNL     1       6.147  24.116  19.962  0.00  0.00    +0.379 N 
ATOM     24  C   UNL     1       4.844  23.441  19.873  0.00  0.00    -0.096 C 
ATOM     25  H   UNL     1       5.979  25.119  20.420  0.00  0.00    -0.082 HD
ATOM     26  C   UNL     1       7.146  23.372  20.837  0.00  0.00    -0.064 C 
ATOM     27  C   UNL     1       8.499  24.133  20.902  0.00  0.00    +0.066 C 
ENDBRANCH  19  20
ENDBRANCH  18  19
ENDBRANCH  14  15
ENDBRANCH  12  13
TORSDOF 6
ENDMDL
MODEL 4
REMARK VINA RESULT:      -7.9      4.071     12.332
REMARK  Name = C:\Users\Docking\Desktop\test protocol\1iep_ligandH.pdb
REMARK  8 active torsions:
REMARK  status: ('A' for Active; 'I' for Inactive)
REMARK    1  A    between atoms: _5  and  _11
REMARK    2  A    between atoms: _19  and  _21
REMARK    3  A    between atoms: _22  and  _66
REMARK    4  A    between atoms: _27  and  _30
REMARK    5  A    between atoms: _32  and  _33
REMARK    6  A    between atoms: _38  and  _43
REMARK    7  A    between atoms: _43  and  _46
REMARK    8  A    between atoms: _53  and  _55
REMARK                            x       y       z     vdW  Elec       q    Type
REMARK                         _______ _______ _______ _____ _____    ______ ____
ROOT
ATOM     10  C   UNL     1      16.292  24.220  19.056  0.00  0.00    +0.038 A 
ATOM     11  C   UNL     1      14.936  24.637  19.044  0.00  0.00    +0.047 A 
ATOM     12  C   UNL     1      13.873  23.749  19.489  0.00  0.00    +0.035 A 
ATOM     32  C   UNL     1      14.226  22.445  19.942  0.00  0.00    +0.024 A 
ATOM     33  C   UNL     1      15.599  22.005  19.960  0.00  0.00    +0.007 A 
ATOM     34  C   UNL     1      16.652  22.875  19.520  0.00  0.00    -0.029 A 
ATOM     35  C   UNL     1      18.106  22.348  19.554  0.00  0.00    +0.045 C 
ENDROOT
BRANCH  10   9
ATOM      4  C   UNL     1      18.938  26.239  15.597  0.00  0.00    +0.077 A 
ATOM      5  C   UNL     1      18.334  25.427  14.580  0.00  0.00    +0.048 A 
ATOM      6  C   UNL     1      17.352  24.497  14.990  0.00  0.00    +0.116 A 
ATOM      7  N   UNL     1      17.007  24.396  16.320  0.00  0.00    -0.223 NA
ATOM      8  C   UNL     1      17.610  25.193  17.276  0.00  0.00    +0.220 A 
ATOM      9  N   UNL     1      17.272  25.113  18.618  0.00  0.00    -0.283 N 
ATOM     36  H   UNL     1      17.745  25.713  19.293  0.00  0.00    +0.155 HD
ATOM     37  N   UNL     1      18.551  26.087  16.910  0.00  0.00    -0.214 NA
BRANCH   4   3
ATOM      1  C   UNL     1      21.227  28.846  13.791  0.00  0.00    +0.020 A 
ATOM      2  C   UNL     1      20.198  27.854  14.003  0.00  0.00    +0.013 A 
ATOM      3  C   UNL     1      19.988  27.269  15.322  0.00  0.00    +0.019 A 
ATOM     38  C   UNL     1      20.842  27.715  16.413  0.00  0.00    +0.120 A 
ATOM     39  N   UNL     1      21.825  28.671  16.178  0.00  0.00    -0.263 NA
ATOM     40  C   UNL     1      22.038  29.239  14.913  0.00  0.00    +0.111 A 
ENDBRANCH   4   3
ENDBRANCH  10   9
BRANCH  12  13
ATOM     13  N   UNL     1      12.478  24.114  19.492  0.00  0.00    -0.281 N 
ATOM     14  C   UNL     1      11.596  24.118  18.424  0.00  0.00    +0.248 C 
ATOM     30  O   UNL     1      11.929  24.011  17.253  0.00  0.00    -0.270 OA
ATOM     31  H   UNL     1      12.093  24.405  20.391  0.00  0.00    +0.155 HD
BRANCH  14  15
ATOM     15  C   UNL     1      10.134  24.277  18.694  0.00  0.00    +0.037 A 
ATOM     16  C   UNL     1       9.463  25.565  18.505  0.00  0.00    +0.013 A 
ATOM     17  C   UNL     1       8.055  25.695  18.789  0.00  0.00    +0.005 A 
ATOM     18  C   UNL     1       7.310  24.532  19.265  0.00  0.00    -0.033 A 
ATOM     28  C   UNL     1       8.001  23.265  19.439  0.00  0.00    +0.005 A 
ATOM     29  C   UNL     1       9.380  23.134  19.162  0.00  0.00    +0.013 A 
BRANCH  18  19
ATOM     19  C   UNL     1       5.811  24.585  19.613  0.00  0.00    +0.119 C 
BRANCH  19  20
ATOM     20  N   UNL     1       5.309  23.609  20.626  0.00  0.00    -0.302 NA
ATOM     21  C   UNL     1       3.912  23.087  20.278  0.00  0.00    +0.066 C 
ATOM     22  C   UNL     1       3.413  22.050  21.336  0.00  0.00    -0.064 C 
ATOM     23  N   UNL     1       3.420  22.696  22.723  0.00  0.00    +0.379 N 
ATOM     24  C   UNL     1       2.896  21.742  23.711  0.00  0.00    -0.096 C 
ATOM     25  H   UNL     1       2.726  23.568  22.693  0.00  0.00    -0.082 HD
ATOM     26  C   UNL     1       4.805  23.220  23.075  0.00  0.00    -0.064 C 
ATOM     27  C   UNL     1       5.304  24.228  22.002  0.00  0.00    +0.066 C 
ENDBRANCH  19  20
ENDBRANCH  18  19
ENDBRANCH  14  15
ENDBRANCH  12  13
TORSDOF 6
ENDMDL
MODEL 5
REMARK VINA RESULT:      -7.8      4.024      8.002
REMARK  Name = C:\Users\Docking\Desktop\test protocol\1iep_ligandH.pdb
REMARK  8 active torsions:
REMARK  status: ('A' for Active; 'I' for Inactive)
REMARK    1  A    between atoms: _5  and  _11
REMARK    2  A    between atoms: _19  and  _21
REMARK    3  A    between atoms: _22  and  _66
REMARK    4  A    between atoms: _27  and  _30
REMARK    5  A    between atoms: _32  and  _33
REMARK    6  A    between atoms: _38  and  _43
REMARK    7  A    between atoms: _43  and  _46
REMARK    8  A    between atoms: _53  and  _55
REMARK                            x       y       z     vdW  Elec       q    Type
REMARK                         _______ _______ _______ _____ _____    ______ ____
ROOT
ATOM     10  C   UNL     1      14.954  22.563  14.807  0.00  0.00    +0.038 A 
ATOM     11  C   UNL     1      15.996  23.516  14.930  0.00  0.00    +0.047 A 
ATOM     12  C   UNL     1      17.371  23.176  14.598  0.00  0.00    +0.035 A 
ATOM     32  C   UNL     1      17.648  21.854  14.141  0.00  0.00    +0.024 A 
ATOM     33  C   UNL     1      16.601  20.872  14.011  0.00  0.00    +0.007 A 
ATOM     34  C   UNL     1      15.243  21.202  14.340  0.00  0.00    -0.029 A 
ATOM     35  C   UNL     1      14.162  20.106  14.188  0.00  0.00    +0.045 C 
ENDROOT
BRANCH  10   9
ATOM      4  C   UNL     1      11.586  23.784  18.002  0.00  0.00    +0.077 A 
ATOM      5  C   UNL     1      12.490  23.622  19.104  0.00  0.00    +0.048 A 
ATOM      6  C   UNL     1      13.810  23.217  18.807  0.00  0.00    +0.116 A 
ATOM      7  N   UNL     1      14.188  22.993  17.501  0.00  0.00    -0.223 NA
ATOM      8  C   UNL     1      13.292  23.156  16.461  0.00  0.00    +0.220 A 
ATOM      9  N   UNL     1      13.652  22.944  15.140  0.00  0.00    -0.283 N 
ATOM     36  H   UNL     1      12.959  23.068  14.402  0.00  0.00    +0.155 HD
ATOM     37  N   UNL     1      12.024  23.541  16.719  0.00  0.00    -0.214 NA
BRANCH   4   3
ATOM      1  C   UNL     1       7.677  23.761  18.135  0.00  0.00    +0.020 A 
ATOM      2  C   UNL     1       9.037  23.298  17.976  0.00  0.00    +0.013 A 
ATOM      3  C   UNL     1      10.159  24.210  18.154  0.00  0.00    +0.019 A 
ATOM     38  C   UNL     1       9.870  25.594  18.497  0.00  0.00    +0.120 A 
ATOM     39  N   UNL     1       8.551  26.012  18.642  0.00  0.00    -0.263 NA
ATOM     40  C   UNL     1       7.462  25.144  18.471  0.00  0.00    +0.111 A 
ENDBRANCH   4   3
ENDBRANCH  10   9
BRANCH  12  13
ATOM     13  N   UNL     1      18.472  24.100  14.710  0.00  0.00    -0.281 N 
ATOM     14  C   UNL     1      18.798  25.144  13.860  0.00  0.00    +0.248 C 
ATOM     30  O   UNL     1      18.313  25.309  12.751  0.00  0.00    -0.270 OA
ATOM     31  H   UNL     1      19.086  23.968  15.514  0.00  0.00    +0.155 HD
BRANCH  14  15
ATOM     15  C   UNL     1      19.822  26.140  14.299  0.00  0.00    +0.037 A 
ATOM     16  C   UNL     1      19.702  27.558  13.950  0.00  0.00    +0.013 A 
ATOM     17  C   UNL     1      20.712  28.495  14.372  0.00  0.00    +0.005 A 
ATOM     18  C   UNL     1      21.853  28.016  15.150  0.00  0.00    -0.033 A 
ATOM     28  C   UNL     1      21.945  26.605  15.486  0.00  0.00    +0.005 A 
ATOM     29  C   UNL     1      20.957  25.683  15.073  0.00  0.00    +0.013 A 
BRANCH  18  19
ATOM     19  C   UNL     1      22.989  28.941  15.624  0.00  0.00    +0.119 C 
BRANCH  19  20
ATOM     20  N   UNL     1      24.332  28.322  15.836  0.00  0.00    -0.302 NA
ATOM     21  C   UNL     1      24.664  28.166  17.323  0.00  0.00    +0.066 C 
ATOM     22  C   UNL     1      26.062  27.496  17.526  0.00  0.00    -0.064 C 
ATOM     23  N   UNL     1      27.131  28.329  16.817  0.00  0.00    +0.379 N 
ATOM     24  C   UNL     1      28.454  27.733  17.055  0.00  0.00    -0.096 C 
ATOM     25  H   UNL     1      27.129  29.344  17.277  0.00  0.00    -0.082 HD
ATOM     26  C   UNL     1      26.807  28.491  15.339  0.00  0.00    -0.064 C 
ATOM     27  C   UNL     1      25.404  29.131  15.147  0.00  0.00    +0.066 C 
ENDBRANCH  19  20
ENDBRANCH  18  19
ENDBRANCH  14  15
ENDBRANCH  12  13
TORSDOF 6
ENDMDL
