MODEL 1
REMARK VINA RESULT:      -8.5      0.000      0.000
REMARK  Name = C:\Users\Docking\Desktop\test protocol\1iep_ligandH.pdb
REMARK  8 active torsions:
REMARK  status: ('A' for Active; 'I' for Inactive)
REMARK    1  A    between atoms: _5  and  _11
REMARK    2  A    between atoms: _19  and  _21
REMARK    3  A    between atoms: _22  and  _66
REMARK    4  A    between atoms: _27  and  _30
REMARK    5  A    between atoms: _32  and  _33
REMARK    6  A    between atoms: _38  and  _43
REMARK    7  A    between atoms: _43  and  _46
REMARK    8  A    between atoms: _53  and  _55
REMARK                            x       y       z     vdW  Elec       q    Type
REMARK                         _______ _______ _______ _____ _____    ______ ____
ROOT
ATOM     10  C   UNL     1       8.623  25.789  18.791  0.00  0.00    +0.038 A 
ATOM     11  C   UNL     1       9.922  25.599  18.255  0.00  0.00    +0.047 A 
ATOM     12  C   UNL     1      10.507  24.271  18.153  0.00  0.00    +0.035 A 
ATOM     32  C   UNL     1       9.739  23.158  18.604  0.00  0.00    +0.024 A 
ATOM     33  C   UNL     1       8.418  23.333  19.153  0.00  0.00    +0.007 A 
ATOM     34  C   UNL     1       7.837  24.641  19.259  0.00  0.00    -0.029 A 
ATOM     35  C   UNL     1       6.418  24.770  19.861  0.00  0.00    +0.045 C 
ENDROOT
BRANCH  10   9
ATOM      4  C   UNL     1       7.708  29.847  21.186  0.00  0.00    +0.077 A 
ATOM      5  C   UNL     1       8.275  29.329  22.398  0.00  0.00    +0.048 A 
ATOM      6  C   UNL     1       8.785  28.012  22.365  0.00  0.00    +0.116 A 
ATOM      7  N   UNL     1       8.727  27.276  21.201  0.00  0.00    -0.223 NA
ATOM      8  C   UNL     1       8.172  27.805  20.050  0.00  0.00    +0.220 A 
ATOM      9  N   UNL     1       8.111  27.086  18.866  0.00  0.00    -0.283 N 
ATOM     36  H   UNL     1       7.687  27.509  18.041  0.00  0.00    +0.155 HD
ATOM     37  N   UNL     1       7.677  29.060  20.056  0.00  0.00    -0.214 NA
BRANCH   4   3
ATOM      1  C   UNL     1       5.687  33.124  21.874  0.00  0.00    +0.020 A 
ATOM      2  C   UNL     1       6.214  31.789  22.042  0.00  0.00    +0.013 A 
ATOM      3  C   UNL     1       7.132  31.223  21.061  0.00  0.00    +0.019 A 
ATOM     38  C   UNL     1       7.499  32.039  19.914  0.00  0.00    +0.120 A 
ATOM     39  N   UNL     1       6.973  33.321  19.778  0.00  0.00    -0.263 NA
ATOM     40  C   UNL     1       6.088  33.876  20.715  0.00  0.00    +0.111 A 
ENDBRANCH   4   3
ENDBRANCH  10   9
BRANCH  12  13
ATOM     13  N   UNL     1      11.825  24.017  17.625  0.00  0.00    -0.281 N 
ATOM     14  C   UNL     1      12.160  23.364  16.449  0.00  0.00    +0.248 C 
ATOM     30  O   UNL     1      11.379  22.709  15.776  0.00  0.00    -0.270 OA
ATOM     31  H   UNL     1      12.605  24.360  18.185  0.00  0.00    +0.155 HD
BRANCH  14  15
ATOM     15  C   UNL     1      13.570  23.439  15.959  0.00  0.00    +0.037 A 
ATOM     16  C   UNL     1      13.877  23.447  14.526  0.00  0.00    +0.013 A 
ATOM     17  C   UNL     1      15.246  23.503  14.080  0.00  0.00    +0.005 A 
ATOM     18  C   UNL     1      16.320  23.552  15.069  0.00  0.00    -0.033 A 
ATOM     28  C   UNL     1      15.987  23.549  16.484  0.00  0.00    +0.005 A 
ATOM     29  C   UNL     1      14.646  23.493  16.925  0.00  0.00    +0.013 A 
BRANCH  18  19
ATOM     19  C   UNL     1      17.811  23.592  14.684  0.00  0.00    +0.119 C 
BRANCH  19  20
ATOM     20  N   UNL     1      18.554  24.859  14.955  0.00  0.00    -0.302 NA
ATOM     21  C   UNL     1      17.923  26.058  14.242  0.00  0.00    +0.066 C 
ATOM     22  C   UNL     1      18.700  27.379  14.555  0.00  0.00    -0.064 C 
ATOM     23  N   UNL     1      20.165  27.215  14.147  0.00  0.00    +0.379 N 
ATOM     24  C   UNL     1      20.884  28.474  14.386  0.00  0.00    -0.096 C 
ATOM     25  H   UNL     1      20.189  27.014  13.051  0.00  0.00    -0.082 HD
ATOM     26  C   UNL     1      20.798  26.023  14.850  0.00  0.00    -0.064 C 
ATOM     27  C   UNL     1      20.002  24.721  14.556  0.00  0.00    +0.066 C 
ENDBRANCH  19  20
ENDBRANCH  18  19
ENDBRANCH  14  15
ENDBRANCH  12  13
TORSDOF 6
ENDMDL
MODEL 2
REMARK VINA RESULT:      -8.3      8.982     13.785
REMARK  Name = C:\Users\Docking\Desktop\test protocol\1iep_ligandH.pdb
REMARK  8 active torsions:
REMARK  status: ('A' for Active; 'I' for Inactive)
REMARK    1  A    between atoms: _5  and  _11
REMARK    2  A    between atoms: _19  and  _21
REMARK    3  A    between atoms: _22  and  _66
REMARK    4  A    between atoms: _27  and  _30
REMARK    5  A    between atoms: _32  and  _33
REMARK    6  A    between atoms: _38  and  _43
REMARK    7  A    between atoms: _43  and  _46
REMARK    8  A    between atoms: _53  and  _55
REMARK                            x       y       z     vdW  Elec       q    Type
REMARK                         _______ _______ _______ _____ _____    ______ ____
ROOT
ATOM     10  C   UNL     1      17.318  23.557  12.484  0.00  0.00    +0.038 A 
ATOM     11  C   UNL     1      18.376  24.454  12.782  0.00  0.00    +0.047 A 
ATOM     12  C   UNL     1      18.166  25.603  13.649  0.00  0.00    +0.035 A 
ATOM     32  C   UNL     1      16.867  25.807  14.198  0.00  0.00    +0.024 A 
ATOM     33  C   UNL     1      15.780  24.906  13.905  0.00  0.00    +0.007 A 
ATOM     34  C   UNL     1      15.980  23.772  13.048  0.00  0.00    -0.029 A 
ATOM     35  C   UNL     1      14.777  22.843  12.763  0.00  0.00    +0.045 C 
ENDROOT
BRANCH  10   9
ATOM      4  C   UNL     1      18.961  19.117  11.692  0.00  0.00    +0.077 A 
ATOM      5  C   UNL     1      19.366  18.960  13.059  0.00  0.00    +0.048 A 
ATOM      6  C   UNL     1      19.140  20.047  13.932  0.00  0.00    +0.116 A 
ATOM      7  N   UNL     1      18.552  21.202  13.462  0.00  0.00    -0.223 NA
ATOM      8  C   UNL     1      18.175  21.322  12.137  0.00  0.00    +0.220 A 
ATOM      9  N   UNL     1      17.575  22.470  11.645  0.00  0.00    -0.283 N 
ATOM     36  H   UNL     1      17.319  22.522  10.659  0.00  0.00    +0.155 HD
ATOM     37  N   UNL     1      18.381  20.298  11.283  0.00  0.00    -0.214 NA
BRANCH   4   3
ATOM      1  C   UNL     1      18.637  17.040   8.393  0.00  0.00    +0.020 A 
ATOM      2  C   UNL     1      18.438  18.089   9.366  0.00  0.00    +0.013 A 
ATOM      3  C   UNL     1      19.130  18.057  10.649  0.00  0.00    +0.019 A 
ATOM     38  C   UNL     1      20.023  16.940  10.917  0.00  0.00    +0.120 A 
ATOM     39  N   UNL     1      20.193  15.943   9.962  0.00  0.00    -0.263 NA
ATOM     40  C   UNL     1      19.532  15.963   8.725  0.00  0.00    +0.111 A 
ENDBRANCH   4   3
ENDBRANCH  10   9
BRANCH  12  13
ATOM     13  N   UNL     1      19.200  26.551  13.981  0.00  0.00    -0.281 N 
ATOM     14  C   UNL     1      20.053  26.535  15.073  0.00  0.00    +0.248 C 
ATOM     30  O   UNL     1      19.913  25.812  16.048  0.00  0.00    -0.270 OA
ATOM     31  H   UNL     1      19.317  27.330  13.332  0.00  0.00    +0.155 HD
BRANCH  14  15
ATOM     15  C   UNL     1      21.222  27.465  15.090  0.00  0.00    +0.037 A 
ATOM     16  C   UNL     1      22.459  27.119  15.794  0.00  0.00    +0.013 A 
ATOM     17  C   UNL     1      23.566  28.042  15.809  0.00  0.00    +0.005 A 
ATOM     18  C   UNL     1      23.441  29.321  15.115  0.00  0.00    -0.033 A 
ATOM     28  C   UNL     1      22.204  29.638  14.420  0.00  0.00    +0.005 A 
ATOM     29  C   UNL     1      21.117  28.736  14.404  0.00  0.00    +0.013 A 
BRANCH  18  19
ATOM     19  C   UNL     1      24.563  30.376  15.096  0.00  0.00    +0.119 C 
BRANCH  19  20
ATOM     20  N   UNL     1      24.635  31.318  16.253  0.00  0.00    -0.302 NA
ATOM     21  C   UNL     1      24.942  32.751  15.808  0.00  0.00    +0.066 C 
ATOM     22  C   UNL     1      24.991  33.728  17.028  0.00  0.00    -0.064 C 
ATOM     23  N   UNL     1      26.038  33.236  18.029  0.00  0.00    +0.379 N 
ATOM     24  C   UNL     1      26.128  34.183  19.150  0.00  0.00    -0.096 C 
ATOM     25  H   UNL     1      27.025  33.230  17.511  0.00  0.00    -0.082 HD
ATOM     26  C   UNL     1      25.742  31.811  18.475  0.00  0.00    -0.064 C 
ATOM     27  C   UNL     1      25.666  30.854  17.252  0.00  0.00    +0.066 C 
ENDBRANCH  19  20
ENDBRANCH  18  19
ENDBRANCH  14  15
ENDBRANCH  12  13
TORSDOF 6
ENDMDL
MODEL 3
REMARK VINA RESULT:      -8.3      8.979     13.734
REMARK  Name = C:\Users\Docking\Desktop\test protocol\1iep_ligandH.pdb
REMARK  8 active torsions:
REMARK  status: ('A' for Active; 'I' for Inactive)
REMARK    1  A    between atoms: _5  and  _11
REMARK    2  A    between atoms: _19  and  _21
REMARK    3  A    between atoms: _22  and  _66
REMARK    4  A    between atoms: _27  and  _30
REMARK    5  A    between atoms: _32  and  _33
REMARK    6  A    between atoms: _38  and  _43
REMARK    7  A    between atoms: _43  and  _46
REMARK    8  A    between atoms: _53  and  _55
REMARK                            x       y       z     vdW  Elec       q    Type
REMARK                         _______ _______ _______ _____ _____    ______ ____
ROOT
ATOM     10  C   UNL     1      17.286  23.552  12.506  0.00  0.00    +0.038 A 
ATOM     11  C   UNL     1      18.374  24.433  12.737  0.00  0.00    +0.047 A 
ATOM     12  C   UNL     1      18.226  25.604  13.586  0.00  0.00    +0.035 A 
ATOM     32  C   UNL     1      16.957  25.848  14.186  0.00  0.00    +0.024 A 
ATOM     33  C   UNL     1      15.840  24.964  13.961  0.00  0.00    +0.007 A 
ATOM     34  C   UNL     1      15.979  23.808  13.122  0.00  0.00    -0.029 A 
ATOM     35  C   UNL     1      14.746  22.899  12.911  0.00  0.00    +0.045 C 
ENDROOT
BRANCH  10   9
ATOM      4  C   UNL     1      18.968  19.131  11.692  0.00  0.00    +0.077 A 
ATOM      5  C   UNL     1      19.522  19.035  13.012  0.00  0.00    +0.048 A 
ATOM      6  C   UNL     1      19.359  20.148  13.867  0.00  0.00    +0.116 A 
ATOM      7  N   UNL     1      18.690  21.268  13.424  0.00  0.00    -0.223 NA
ATOM      8  C   UNL     1      18.168  21.329  12.145  0.00  0.00    +0.220 A 
ATOM      9  N   UNL     1      17.484  22.442  11.682  0.00  0.00    -0.283 N 
ATOM     36  H   UNL     1      17.121  22.450  10.729  0.00  0.00    +0.155 HD
ATOM     37  N   UNL     1      18.312  20.279  11.309  0.00  0.00    -0.214 NA
BRANCH   4   3
ATOM      1  C   UNL     1      18.488  17.010   8.441  0.00  0.00    +0.020 A 
ATOM      2  C   UNL     1      18.370  18.094   9.389  0.00  0.00    +0.013 A 
ATOM      3  C   UNL     1      19.055  18.037  10.674  0.00  0.00    +0.019 A 
ATOM     38  C   UNL     1      19.859  16.860  10.971  0.00  0.00    +0.120 A 
ATOM     39  N   UNL     1      19.952  15.831  10.039  0.00  0.00    -0.263 NA
ATOM     40  C   UNL     1      19.296  15.874   8.800  0.00  0.00    +0.111 A 
ENDBRANCH   4   3
ENDBRANCH  10   9
BRANCH  12  13
ATOM     13  N   UNL     1      19.293  26.538  13.850  0.00  0.00    -0.281 N 
ATOM     14  C   UNL     1      19.774  26.955  15.081  0.00  0.00    +0.248 C 
ATOM     30  O   UNL     1      19.214  26.749  16.147  0.00  0.00    -0.270 OA
ATOM     31  H   UNL     1      19.748  26.941  13.031  0.00  0.00    +0.155 HD
BRANCH  14  15
ATOM     15  C   UNL     1      21.054  27.725  15.132  0.00  0.00    +0.037 A 
ATOM     16  C   UNL     1      21.225  28.967  14.374  0.00  0.00    +0.013 A 
ATOM     17  C   UNL     1      22.476  29.681  14.428  0.00  0.00    +0.005 A 
ATOM     18  C   UNL     1      23.566  29.155  15.246  0.00  0.00    -0.033 A 
ATOM     28  C   UNL     1      23.367  27.924  15.993  0.00  0.00    +0.005 A 
ATOM     29  C   UNL     1      22.143  27.221  15.941  0.00  0.00    +0.013 A 
BRANCH  18  19
ATOM     19  C   UNL     1      24.942  29.839  15.346  0.00  0.00    +0.119 C 
BRANCH  19  20
ATOM     20  N   UNL     1      26.059  29.045  15.939  0.00  0.00    -0.302 NA
ATOM     21  C   UNL     1      26.998  29.914  16.781  0.00  0.00    +0.066 C 
ATOM     22  C   UNL     1      28.148  29.063  17.412  0.00  0.00    -0.064 C 
ATOM     23  N   UNL     1      28.921  28.351  16.300  0.00  0.00    +0.379 N 
ATOM     24  C   UNL     1      30.038  27.596  16.885  0.00  0.00    -0.096 C 
ATOM     25  H   UNL     1      29.352  29.133  15.634  0.00  0.00    -0.082 HD
ATOM     26  C   UNL     1      27.994  27.487  15.456  0.00  0.00    -0.064 C 
ATOM     27  C   UNL     1      26.838  28.336  14.858  0.00  0.00    +0.066 C 
ENDBRANCH  19  20
ENDBRANCH  18  19
ENDBRANCH  14  15
ENDBRANCH  12  13
TORSDOF 6
ENDMDL
MODEL 4
REMARK VINA RESULT:      -8.2      3.660     12.131
REMARK  Name = C:\Users\Docking\Desktop\test protocol\1iep_ligandH.pdb
REMARK  8 active torsions:
REMARK  status: ('A' for Active; 'I' for Inactive)
REMARK    1  A    between atoms: _5  and  _11
REMARK    2  A    between atoms: _19  and  _21
REMARK    3  A    between atoms: _22  and  _66
REMARK    4  A    between atoms: _27  and  _30
REMARK    5  A    between atoms: _32  and  _33
REMARK    6  A    between atoms: _38  and  _43
REMARK    7  A    between atoms: _43  and  _46
REMARK    8  A    between atoms: _53  and  _55
REMARK                            x       y       z     vdW  Elec       q    Type
REMARK                         _______ _______ _______ _____ _____    ______ ____
ROOT
ATOM     10  C   UNL     1      15.480  23.543  13.947  0.00  0.00    +0.038 A 
ATOM     11  C   UNL     1      14.305  23.763  14.711  0.00  0.00    +0.047 A 
ATOM     12  C   UNL     1      13.306  22.718  14.872  0.00  0.00    +0.035 A 
ATOM     32  C   UNL     1      13.537  21.460  14.243  0.00  0.00    +0.024 A 
ATOM     33  C   UNL     1      14.725  21.220  13.462  0.00  0.00    +0.007 A 
ATOM     34  C   UNL     1      15.713  22.247  13.298  0.00  0.00    -0.029 A 
ATOM     35  C   UNL     1      16.964  21.936  12.444  0.00  0.00    +0.045 C 
ENDROOT
BRANCH  10   9
ATOM      4  C   UNL     1      19.278  26.030  15.505  0.00  0.00    +0.077 A 
ATOM      5  C   UNL     1      19.412  25.208  16.673  0.00  0.00    +0.048 A 
ATOM      6  C   UNL     1      18.478  24.160  16.840  0.00  0.00    +0.116 A 
ATOM      7  N   UNL     1      17.490  23.958  15.901  0.00  0.00    -0.223 NA
ATOM      8  C   UNL     1      17.388  24.771  14.787  0.00  0.00    +0.220 A 
ATOM      9  N   UNL     1      16.406  24.581  13.826  0.00  0.00    -0.283 N 
ATOM     36  H   UNL     1      16.360  25.207  13.022  0.00  0.00    +0.155 HD
ATOM     37  N   UNL     1      18.266  25.779  14.606  0.00  0.00    -0.214 NA
BRANCH   4   3
ATOM      1  C   UNL     1      20.957  29.083  13.727  0.00  0.00    +0.020 A 
ATOM      2  C   UNL     1      20.050  27.988  13.987  0.00  0.00    +0.013 A 
ATOM      3  C   UNL     1      20.189  27.175  15.188  0.00  0.00    +0.019 A 
ATOM     38  C   UNL     1      21.264  27.498  16.114  0.00  0.00    +0.120 A 
ATOM     39  N   UNL     1      22.123  28.557  15.837  0.00  0.00    -0.263 NA
ATOM     40  C   UNL     1      22.000  29.346  14.683  0.00  0.00    +0.111 A 
ENDBRANCH   4   3
ENDBRANCH  10   9
BRANCH  12  13
ATOM     13  N   UNL     1      12.090  22.886  15.629  0.00  0.00    -0.281 N 
ATOM     14  C   UNL     1      11.959  23.162  16.980  0.00  0.00    +0.248 C 
ATOM     30  O   UNL     1      12.871  23.095  17.790  0.00  0.00    -0.270 OA
ATOM     31  H   UNL     1      11.220  22.789  15.104  0.00  0.00    +0.155 HD
BRANCH  14  15
ATOM     15  C   UNL     1      10.618  23.555  17.510  0.00  0.00    +0.037 A 
ATOM     16  C   UNL     1      10.396  24.870  18.116  0.00  0.00    +0.013 A 
ATOM     17  C   UNL     1       9.097  25.218  18.635  0.00  0.00    +0.005 A 
ATOM     18  C   UNL     1       8.008  24.247  18.548  0.00  0.00    -0.033 A 
ATOM     28  C   UNL     1       8.255  22.952  17.937  0.00  0.00    +0.005 A 
ATOM     29  C   UNL     1       9.527  22.607  17.428  0.00  0.00    +0.013 A 
BRANCH  18  19
ATOM     19  C   UNL     1       6.596  24.525  19.095  0.00  0.00    +0.119 C 
BRANCH  19  20
ATOM     20  N   UNL     1       6.400  24.414  20.571  0.00  0.00    -0.302 NA
ATOM     21  C   UNL     1       5.618  23.155  20.954  0.00  0.00    +0.066 C 
ATOM     22  C   UNL     1       5.442  23.043  22.504  0.00  0.00    -0.064 C 
ATOM     23  N   UNL     1       4.738  24.297  23.026  0.00  0.00    +0.379 N 
ATOM     24  C   UNL     1       4.519  24.170  24.474  0.00  0.00    -0.096 C 
ATOM     25  H   UNL     1       3.738  24.352  22.536  0.00  0.00    -0.082 HD
ATOM     26  C   UNL     1       5.507  25.555  22.647  0.00  0.00    -0.064 C 
ATOM     27  C   UNL     1       5.702  25.640  21.107  0.00  0.00    +0.066 C 
ENDBRANCH  19  20
ENDBRANCH  18  19
ENDBRANCH  14  15
ENDBRANCH  12  13
TORSDOF 6
ENDMDL
MODEL 5
REMARK VINA RESULT:      -8.2      2.260     12.304
REMARK  Name = C:\Users\Docking\Desktop\test protocol\1iep_ligandH.pdb
REMARK  8 active torsions:
REMARK  status: ('A' for Active; 'I' for Inactive)
REMARK    1  A    between atoms: _5  and  _11
REMARK    2  A    between atoms: _19  and  _21
REMARK    3  A    between atoms: _22  and  _66
REMARK    4  A    between atoms: _27  and  _30
REMARK    5  A    between atoms: _32  and  _33
REMARK    6  A    between atoms: _38  and  _43
REMARK    7  A    between atoms: _43  and  _46
REMARK    8  A    between atoms: _53  and  _55
REMARK                            x       y       z     vdW  Elec       q    Type
REMARK                         _______ _______ _______ _____ _____    ______ ____
ROOT
ATOM     10  C   UNL     1      17.790  24.428  14.190  0.00  0.00    +0.038 A 
ATOM     11  C   UNL     1      16.782  24.456  15.187  0.00  0.00    +0.047 A 
ATOM     12  C   UNL     1      15.400  24.131  14.869  0.00  0.00    +0.035 A 
ATOM     32  C   UNL     1      15.081  23.779  13.526  0.00  0.00    +0.024 A 
ATOM     33  C   UNL     1      16.093  23.747  12.499  0.00  0.00    +0.007 A 
ATOM     34  C   UNL     1      17.457  24.069  12.806  0.00  0.00    -0.029 A 
ATOM     35  C   UNL     1      18.499  24.025  11.665  0.00  0.00    +0.045 C 
ENDROOT
BRANCH  10   9
ATOM      4  C   UNL     1      21.277  27.603  15.084  0.00  0.00    +0.077 A 
ATOM      5  C   UNL     1      20.423  28.716  14.780  0.00  0.00    +0.048 A 
ATOM      6  C   UNL     1      19.096  28.427  14.391  0.00  0.00    +0.116 A 
ATOM      7  N   UNL     1      18.665  27.121  14.315  0.00  0.00    -0.223 NA
ATOM      8  C   UNL     1      19.515  26.071  14.613  0.00  0.00    +0.220 A 
ATOM      9  N   UNL     1      19.101  24.750  14.551  0.00  0.00    -0.283 N 
ATOM     36  H   UNL     1      19.760  24.004  14.771  0.00  0.00    +0.155 HD
ATOM     37  N   UNL     1      20.788  26.320  14.986  0.00  0.00    -0.214 NA
BRANCH   4   3
ATOM      1  C   UNL     1      24.823  29.079  15.823  0.00  0.00    +0.020 A 
ATOM      2  C   UNL     1      23.447  28.995  15.393  0.00  0.00    +0.013 A 
ATOM      3  C   UNL     1      22.704  27.746  15.513  0.00  0.00    +0.019 A 
ATOM     38  C   UNL     1      23.390  26.593  16.076  0.00  0.00    +0.120 A 
ATOM     39  N   UNL     1      24.717  26.704  16.480  0.00  0.00    -0.263 NA
ATOM     40  C   UNL     1      25.441  27.900  16.368  0.00  0.00    +0.111 A 
ENDBRANCH   4   3
ENDBRANCH  10   9
BRANCH  12  13
ATOM     13  N   UNL     1      14.332  24.149  15.838  0.00  0.00    -0.281 N 
ATOM     14  C   UNL     1      14.182  23.345  16.956  0.00  0.00    +0.248 C 
ATOM     30  O   UNL     1      14.839  22.338  17.176  0.00  0.00    -0.270 OA
ATOM     31  H   UNL     1      13.598  24.839  15.681  0.00  0.00    +0.155 HD
BRANCH  14  15
ATOM     15  C   UNL     1      13.143  23.703  17.969  0.00  0.00    +0.037 A 
ATOM     16  C   UNL     1      13.515  24.210  19.293  0.00  0.00    +0.013 A 
ATOM     17  C   UNL     1      12.494  24.532  20.257  0.00  0.00    +0.005 A 
ATOM     18  C   UNL     1      11.089  24.349  19.900  0.00  0.00    -0.033 A 
ATOM     28  C   UNL     1      10.748  23.849  18.579  0.00  0.00    +0.005 A 
ATOM     29  C   UNL     1      11.747  23.532  17.631  0.00  0.00    +0.013 A 
BRANCH  18  19
ATOM     19  C   UNL     1       9.933  24.646  20.874  0.00  0.00    +0.119 C 
BRANCH  19  20
ATOM     20  N   UNL     1       9.729  26.069  21.279  0.00  0.00    -0.302 NA
ATOM     21  C   UNL     1       8.617  26.216  22.322  0.00  0.00    +0.066 C 
ATOM     22  C   UNL     1       8.433  27.708  22.751  0.00  0.00    -0.064 C 
ATOM     23  N   UNL     1       8.133  28.558  21.515  0.00  0.00    +0.379 N 
ATOM     24  C   UNL     1       7.902  29.952  21.923  0.00  0.00    -0.096 C 
ATOM     25  H   UNL     1       7.188  28.177  21.064  0.00  0.00    -0.082 HD
ATOM     26  C   UNL     1       9.233  28.416  20.472  0.00  0.00    -0.064 C 
ATOM     27  C   UNL     1       9.428  26.926  20.074  0.00  0.00    +0.066 C 
ENDBRANCH  19  20
ENDBRANCH  18  19
ENDBRANCH  14  15
ENDBRANCH  12  13
TORSDOF 6
ENDMDL
