MODEL 1
REMARK VINA RESULT:      -8.1      0.000      0.000
REMARK  Name = C:\Users\Docking\Desktop\test protocol\1iep_ligandH.pdb
REMARK  8 active torsions:
REMARK  status: ('A' for Active; 'I' for Inactive)
REMARK    1  A    between atoms: _5  and  _11
REMARK    2  A    between atoms: _19  and  _21
REMARK    3  A    between atoms: _22  and  _66
REMARK    4  A    between atoms: _27  and  _30
REMARK    5  A    between atoms: _32  and  _33
REMARK    6  A    between atoms: _38  and  _43
REMARK    7  A    between atoms: _43  and  _46
REMARK    8  A    between atoms: _53  and  _55
REMARK                            x       y       z     vdW  Elec       q    Type
REMARK                         _______ _______ _______ _____ _____    ______ ____
ROOT
ATOM     10  C   UNL     1      18.655  23.015  14.231  0.00  0.00    +0.038 A 
ATOM     11  C   UNL     1      17.493  23.206  15.022  0.00  0.00    +0.047 A 
ATOM     12  C   UNL     1      16.260  22.491  14.732  0.00  0.00    +0.035 A 
ATOM     32  C   UNL     1      16.246  21.587  13.630  0.00  0.00    +0.024 A 
ATOM     33  C   UNL     1      17.417  21.382  12.815  0.00  0.00    +0.007 A 
ATOM     34  C   UNL     1      18.636  22.086  13.095  0.00  0.00    -0.029 A 
ATOM     35  C   UNL     1      19.859  21.831  12.183  0.00  0.00    +0.045 C 
ENDROOT
BRANCH  10   9
ATOM      4  C   UNL     1      21.046  27.119  14.921  0.00  0.00    +0.077 A 
ATOM      5  C   UNL     1      19.899  27.912  14.582  0.00  0.00    +0.048 A 
ATOM      6  C   UNL     1      18.716  27.226  14.229  0.00  0.00    +0.116 A 
ATOM      7  N   UNL     1      18.692  25.848  14.220  0.00  0.00    -0.223 NA
ATOM      8  C   UNL     1      19.816  25.113  14.550  0.00  0.00    +0.220 A 
ATOM      9  N   UNL     1      19.812  23.726  14.555  0.00  0.00    -0.283 N 
ATOM     36  H   UNL     1      20.664  23.221  14.797  0.00  0.00    +0.155 HD
ATOM     37  N   UNL     1      20.959  25.745  14.889  0.00  0.00    -0.214 NA
BRANCH   4   3
ATOM      1  C   UNL     1      23.984  29.620  15.565  0.00  0.00    +0.020 A 
ATOM      2  C   UNL     1      22.692  29.111  15.165  0.00  0.00    +0.013 A 
ATOM      3  C   UNL     1      22.368  27.699  15.318  0.00  0.00    +0.019 A 
ATOM     38  C   UNL     1      23.380  26.821  15.885  0.00  0.00    +0.120 A 
ATOM     39  N   UNL     1      24.616  27.339  16.260  0.00  0.00    -0.263 NA
ATOM     40  C   UNL     1      24.940  28.696  16.116  0.00  0.00    +0.111 A 
ENDBRANCH   4   3
ENDBRANCH  10   9
BRANCH  12  13
ATOM     13  N   UNL     1      15.047  22.650  15.495  0.00  0.00    -0.281 N 
ATOM     14  C   UNL     1      14.884  22.549  16.867  0.00  0.00    +0.248 C 
ATOM     30  O   UNL     1      15.722  22.093  17.630  0.00  0.00    -0.270 OA
ATOM     31  H   UNL     1      14.206  22.864  14.958  0.00  0.00    +0.155 HD
BRANCH  14  15
ATOM     15  C   UNL     1      13.599  23.008  17.477  0.00  0.00    +0.037 A 
ATOM     16  C   UNL     1      13.578  23.728  18.753  0.00  0.00    +0.013 A 
ATOM     17  C   UNL     1      12.324  24.144  19.328  0.00  0.00    +0.005 A 
ATOM     18  C   UNL     1      11.079  23.841  18.626  0.00  0.00    -0.033 A 
ATOM     28  C   UNL     1      11.129  23.130  17.359  0.00  0.00    +0.005 A 
ATOM     29  C   UNL     1      12.356  22.720  16.793  0.00  0.00    +0.013 A 
BRANCH  18  19
ATOM     19  C   UNL     1       9.693  24.229  19.176  0.00  0.00    +0.119 C 
BRANCH  19  20
ATOM     20  N   UNL     1       9.626  25.404  20.095  0.00  0.00    -0.302 NA
ATOM     21  C   UNL     1       8.372  25.377  20.973  0.00  0.00    +0.066 C 
ATOM     22  C   UNL     1       8.329  26.602  21.943  0.00  0.00    -0.064 C 
ATOM     23  N   UNL     1       8.392  27.896  21.129  0.00  0.00    +0.379 N 
ATOM     24  C   UNL     1       8.294  29.050  22.035  0.00  0.00    -0.096 C 
ATOM     25  H   UNL     1       7.503  27.916  20.458  0.00  0.00    -0.082 HD
ATOM     26  C   UNL     1       9.635  27.930  20.251  0.00  0.00    -0.064 C 
ATOM     27  C   UNL     1       9.682  26.693  19.311  0.00  0.00    +0.066 C 
ENDBRANCH  19  20
ENDBRANCH  18  19
ENDBRANCH  14  15
ENDBRANCH  12  13
TORSDOF 6
ENDMDL
MODEL 2
REMARK VINA RESULT:      -8.0      1.421      2.253
REMARK  Name = C:\Users\Docking\Desktop\test protocol\1iep_ligandH.pdb
REMARK  8 active torsions:
REMARK  status: ('A' for Active; 'I' for Inactive)
REMARK    1  A    between atoms: _5  and  _11
REMARK    2  A    between atoms: _19  and  _21
REMARK    3  A    between atoms: _22  and  _66
REMARK    4  A    between atoms: _27  and  _30
REMARK    5  A    between atoms: _32  and  _33
REMARK    6  A    between atoms: _38  and  _43
REMARK    7  A    between atoms: _43  and  _46
REMARK    8  A    between atoms: _53  and  _55
REMARK                            x       y       z     vdW  Elec       q    Type
REMARK                         _______ _______ _______ _____ _____    ______ ____
ROOT
ATOM     10  C   UNL     1      18.806  23.199  14.305  0.00  0.00    +0.038 A 
ATOM     11  C   UNL     1      17.662  23.460  15.102  0.00  0.00    +0.047 A 
ATOM     12  C   UNL     1      16.402  22.776  14.855  0.00  0.00    +0.035 A 
ATOM     32  C   UNL     1      16.344  21.830  13.790  0.00  0.00    +0.024 A 
ATOM     33  C   UNL     1      17.498  21.554  12.970  0.00  0.00    +0.007 A 
ATOM     34  C   UNL     1      18.742  22.227  13.207  0.00  0.00    -0.029 A 
ATOM     35  C   UNL     1      19.945  21.897  12.293  0.00  0.00    +0.045 C 
ENDROOT
BRANCH  10   9
ATOM      4  C   UNL     1      21.284  27.245  15.033  0.00  0.00    +0.077 A 
ATOM      5  C   UNL     1      20.128  28.064  14.807  0.00  0.00    +0.048 A 
ATOM      6  C   UNL     1      18.917  27.405  14.499  0.00  0.00    +0.116 A 
ATOM      7  N   UNL     1      18.876  26.029  14.426  0.00  0.00    -0.223 NA
ATOM      8  C   UNL     1      20.010  25.270  14.648  0.00  0.00    +0.220 A 
ATOM      9  N   UNL     1      19.990  23.885  14.587  0.00  0.00    -0.283 N 
ATOM     36  H   UNL     1      20.850  23.361  14.749  0.00  0.00    +0.155 HD
ATOM     37  N   UNL     1      21.179  25.875  14.942  0.00  0.00    -0.214 NA
BRANCH   4   3
ATOM      1  C   UNL     1      25.043  27.529  16.079  0.00  0.00    +0.020 A 
ATOM      2  C   UNL     1      23.758  26.950  15.763  0.00  0.00    +0.013 A 
ATOM      3  C   UNL     1      22.636  27.793  15.371  0.00  0.00    +0.019 A 
ATOM     38  C   UNL     1      22.850  29.231  15.306  0.00  0.00    +0.120 A 
ATOM     39  N   UNL     1      24.098  29.761  15.617  0.00  0.00    -0.263 NA
ATOM     40  C   UNL     1      25.184  28.959  15.998  0.00  0.00    +0.111 A 
ENDBRANCH   4   3
ENDBRANCH  10   9
BRANCH  12  13
ATOM     13  N   UNL     1      15.205  23.005  15.625  0.00  0.00    -0.281 N 
ATOM     14  C   UNL     1      14.973  22.688  16.953  0.00  0.00    +0.248 C 
ATOM     30  O   UNL     1      15.690  21.962  17.626  0.00  0.00    -0.270 OA
ATOM     31  H   UNL     1      14.435  23.455  15.131  0.00  0.00    +0.155 HD
BRANCH  14  15
ATOM     15  C   UNL     1      13.762  23.247  17.628  0.00  0.00    +0.037 A 
ATOM     16  C   UNL     1      12.455  23.247  16.967  0.00  0.00    +0.013 A 
ATOM     17  C   UNL     1      11.307  23.808  17.633  0.00  0.00    +0.005 A 
ATOM     18  C   UNL     1      11.461  24.373  18.972  0.00  0.00    -0.033 A 
ATOM     28  C   UNL     1      12.768  24.355  19.607  0.00  0.00    +0.005 A 
ATOM     29  C   UNL     1      13.896  23.807  18.956  0.00  0.00    +0.013 A 
BRANCH  18  19
ATOM     19  C   UNL     1      10.295  25.011  19.749  0.00  0.00    +0.119 C 
BRANCH  19  20
ATOM     20  N   UNL     1       8.988  24.289  19.736  0.00  0.00    -0.302 NA
ATOM     21  C   UNL     1       7.986  24.932  18.773  0.00  0.00    +0.066 C 
ATOM     22  C   UNL     1       6.631  24.151  18.755  0.00  0.00    -0.064 C 
ATOM     23  N   UNL     1       6.060  24.094  20.173  0.00  0.00    +0.379 N 
ATOM     24  C   UNL     1       4.758  23.410  20.150  0.00  0.00    -0.096 C 
ATOM     25  H   UNL     1       5.886  25.142  20.510  0.00  0.00    -0.082 HD
ATOM     26  C   UNL     1       7.051  23.458  21.138  0.00  0.00    -0.064 C 
ATOM     27  C   UNL     1       8.403  24.225  21.126  0.00  0.00    +0.066 C 
ENDBRANCH  19  20
ENDBRANCH  18  19
ENDBRANCH  14  15
ENDBRANCH  12  13
TORSDOF 6
ENDMDL
MODEL 3
REMARK VINA RESULT:      -8.0      3.289      4.982
REMARK  Name = C:\Users\Docking\Desktop\test protocol\1iep_ligandH.pdb
REMARK  8 active torsions:
REMARK  status: ('A' for Active; 'I' for Inactive)
REMARK    1  A    between atoms: _5  and  _11
REMARK    2  A    between atoms: _19  and  _21
REMARK    3  A    between atoms: _22  and  _66
REMARK    4  A    between atoms: _27  and  _30
REMARK    5  A    between atoms: _32  and  _33
REMARK    6  A    between atoms: _38  and  _43
REMARK    7  A    between atoms: _43  and  _46
REMARK    8  A    between atoms: _53  and  _55
REMARK                            x       y       z     vdW  Elec       q    Type
REMARK                         _______ _______ _______ _____ _____    ______ ____
ROOT
ATOM     10  C   UNL     1      16.263  24.109  19.150  0.00  0.00    +0.038 A 
ATOM     11  C   UNL     1      14.894  24.477  19.107  0.00  0.00    +0.047 A 
ATOM     12  C   UNL     1      13.855  23.567  19.563  0.00  0.00    +0.035 A 
ATOM     32  C   UNL     1      14.247  22.290  20.061  0.00  0.00    +0.024 A 
ATOM     33  C   UNL     1      15.634  21.899  20.112  0.00  0.00    +0.007 A 
ATOM     34  C   UNL     1      16.663  22.791  19.660  0.00  0.00    -0.029 A 
ATOM     35  C   UNL     1      18.133  22.317  19.732  0.00  0.00    +0.045 C 
ENDROOT
BRANCH  10   9
ATOM      4  C   UNL     1      18.913  26.091  15.674  0.00  0.00    +0.077 A 
ATOM      5  C   UNL     1      18.366  25.216  14.677  0.00  0.00    +0.048 A 
ATOM      6  C   UNL     1      17.411  24.265  15.101  0.00  0.00    +0.116 A 
ATOM      7  N   UNL     1      17.038  24.203  16.426  0.00  0.00    -0.223 NA
ATOM      8  C   UNL     1      17.586  25.061  17.362  0.00  0.00    +0.220 A 
ATOM      9  N   UNL     1      17.219  25.022  18.699  0.00  0.00    -0.283 N 
ATOM     36  H   UNL     1      17.651  25.667  19.360  0.00  0.00    +0.155 HD
ATOM     37  N   UNL     1      18.500  25.977  16.983  0.00  0.00    -0.214 NA
BRANCH   4   3
ATOM      1  C   UNL     1      21.106  28.751  13.825  0.00  0.00    +0.020 A 
ATOM      2  C   UNL     1      20.110  27.729  14.055  0.00  0.00    +0.013 A 
ATOM      3  C   UNL     1      19.929  27.151  15.380  0.00  0.00    +0.019 A 
ATOM     38  C   UNL     1      20.777  27.633  16.460  0.00  0.00    +0.120 A 
ATOM     39  N   UNL     1      21.728  28.616  16.209  0.00  0.00    -0.263 NA
ATOM     40  C   UNL     1      21.913  29.179  14.937  0.00  0.00    +0.111 A 
ENDBRANCH   4   3
ENDBRANCH  10   9
BRANCH  12  13
ATOM     13  N   UNL     1      12.449  23.882  19.536  0.00  0.00    -0.281 N 
ATOM     14  C   UNL     1      11.596  23.879  18.443  0.00  0.00    +0.248 C 
ATOM     30  O   UNL     1      11.964  23.810  17.280  0.00  0.00    -0.270 OA
ATOM     31  H   UNL     1      12.030  24.139  20.430  0.00  0.00    +0.155 HD
BRANCH  14  15
ATOM     15  C   UNL     1      10.124  23.980  18.676  0.00  0.00    +0.037 A 
ATOM     16  C   UNL     1       9.462  25.282  18.797  0.00  0.00    +0.013 A 
ATOM     17  C   UNL     1       8.042  25.352  19.039  0.00  0.00    +0.005 A 
ATOM     18  C   UNL     1       7.275  24.114  19.160  0.00  0.00    -0.033 A 
ATOM     28  C   UNL     1       7.956  22.837  19.031  0.00  0.00    +0.005 A 
ATOM     29  C   UNL     1       9.347  22.765  18.795  0.00  0.00    +0.013 A 
BRANCH  18  19
ATOM     19  C   UNL     1       5.760  24.094  19.438  0.00  0.00    +0.119 C 
BRANCH  19  20
ATOM     20  N   UNL     1       5.293  23.308  20.619  0.00  0.00    -0.302 NA
ATOM     21  C   UNL     1       3.840  22.849  20.465  0.00  0.00    +0.066 C 
ATOM     22  C   UNL     1       3.375  22.009  21.699  0.00  0.00    -0.064 C 
ATOM     23  N   UNL     1       3.549  22.839  22.972  0.00  0.00    +0.379 N 
ATOM     24  C   UNL     1       3.058  22.074  24.128  0.00  0.00    -0.096 C 
ATOM     25  H   UNL     1       2.911  23.748  22.873  0.00  0.00    -0.082 HD
ATOM     26  C   UNL     1       4.990  23.302  23.132  0.00  0.00    -0.064 C 
ATOM     27  C   UNL     1       5.452  24.110  21.887  0.00  0.00    +0.066 C 
ENDBRANCH  19  20
ENDBRANCH  18  19
ENDBRANCH  14  15
ENDBRANCH  12  13
TORSDOF 6
ENDMDL
MODEL 4
REMARK VINA RESULT:      -7.8      1.318      1.683
REMARK  Name = C:\Users\Docking\Desktop\test protocol\1iep_ligandH.pdb
REMARK  8 active torsions:
REMARK  status: ('A' for Active; 'I' for Inactive)
REMARK    1  A    between atoms: _5  and  _11
REMARK    2  A    between atoms: _19  and  _21
REMARK    3  A    between atoms: _22  and  _66
REMARK    4  A    between atoms: _27  and  _30
REMARK    5  A    between atoms: _32  and  _33
REMARK    6  A    between atoms: _38  and  _43
REMARK    7  A    between atoms: _43  and  _46
REMARK    8  A    between atoms: _53  and  _55
REMARK                            x       y       z     vdW  Elec       q    Type
REMARK                         _______ _______ _______ _____ _____    ______ ____
ROOT
ATOM     10  C   UNL     1      18.834  22.365  14.163  0.00  0.00    +0.038 A 
ATOM     11  C   UNL     1      17.650  22.487  14.933  0.00  0.00    +0.047 A 
ATOM     12  C   UNL     1      16.491  21.648  14.670  0.00  0.00    +0.035 A 
ATOM     32  C   UNL     1      16.574  20.692  13.615  0.00  0.00    +0.024 A 
ATOM     33  C   UNL     1      17.770  20.556  12.821  0.00  0.00    +0.007 A 
ATOM     34  C   UNL     1      18.916  21.382  13.075  0.00  0.00    -0.029 A 
ATOM     35  C   UNL     1      20.169  21.197  12.189  0.00  0.00    +0.045 C 
ENDROOT
BRANCH  10   9
ATOM      4  C   UNL     1      20.796  26.702  14.781  0.00  0.00    +0.077 A 
ATOM      5  C   UNL     1      19.567  27.368  14.459  0.00  0.00    +0.048 A 
ATOM      6  C   UNL     1      18.456  26.559  14.134  0.00  0.00    +0.116 A 
ATOM      7  N   UNL     1      18.575  25.186  14.133  0.00  0.00    -0.223 NA
ATOM      8  C   UNL     1      19.776  24.575  14.446  0.00  0.00    +0.220 A 
ATOM      9  N   UNL     1      19.917  23.196  14.459  0.00  0.00    -0.283 N 
ATOM     36  H   UNL     1      20.821  22.784  14.688  0.00  0.00    +0.155 HD
ATOM     37  N   UNL     1      20.852  25.326  14.759  0.00  0.00    -0.214 NA
BRANCH   4   3
ATOM      1  C   UNL     1      23.512  29.478  15.246  0.00  0.00    +0.020 A 
ATOM      2  C   UNL     1      22.275  28.833  14.870  0.00  0.00    +0.013 A 
ATOM      3  C   UNL     1      22.058  27.419  15.149  0.00  0.00    +0.019 A 
ATOM     38  C   UNL     1      23.119  26.681  15.816  0.00  0.00    +0.120 A 
ATOM     39  N   UNL     1      24.300  27.328  16.166  0.00  0.00    -0.263 NA
ATOM     40  C   UNL     1      24.522  28.688  15.901  0.00  0.00    +0.111 A 
ENDBRANCH   4   3
ENDBRANCH  10   9
BRANCH  12  13
ATOM     13  N   UNL     1      15.258  21.732  15.413  0.00  0.00    -0.281 N 
ATOM     14  C   UNL     1      14.680  22.857  15.978  0.00  0.00    +0.248 C 
ATOM     30  O   UNL     1      15.246  23.931  16.113  0.00  0.00    -0.270 OA
ATOM     31  H   UNL     1      14.751  20.856  15.538  0.00  0.00    +0.155 HD
BRANCH  14  15
ATOM     15  C   UNL     1      13.274  22.772  16.478  0.00  0.00    +0.037 A 
ATOM     16  C   UNL     1      12.258  21.997  15.761  0.00  0.00    +0.013 A 
ATOM     17  C   UNL     1      10.905  21.945  16.256  0.00  0.00    +0.005 A 
ATOM     18  C   UNL     1      10.561  22.671  17.477  0.00  0.00    -0.033 A 
ATOM     28  C   UNL     1      11.590  23.427  18.171  0.00  0.00    +0.005 A 
ATOM     29  C   UNL     1      12.916  23.481  17.688  0.00  0.00    +0.013 A 
BRANCH  18  19
ATOM     19  C   UNL     1       9.138  22.689  18.066  0.00  0.00    +0.119 C 
BRANCH  19  20
ATOM     20  N   UNL     1       8.852  23.694  19.133  0.00  0.00    -0.302 NA
ATOM     21  C   UNL     1       8.001  23.107  20.262  0.00  0.00    +0.066 C 
ATOM     22  C   UNL     1       7.731  24.166  21.380  0.00  0.00    -0.064 C 
ATOM     23  N   UNL     1       7.047  25.389  20.766  0.00  0.00    +0.379 N 
ATOM     24  C   UNL     1       6.739  26.361  21.825  0.00  0.00    -0.096 C 
ATOM     25  H   UNL     1       6.080  25.050  20.326  0.00  0.00    -0.082 HD
ATOM     26  C   UNL     1       7.885  25.977  19.641  0.00  0.00    -0.064 C 
ATOM     27  C   UNL     1       8.173  24.909  18.549  0.00  0.00    +0.066 C 
ENDBRANCH  19  20
ENDBRANCH  18  19
ENDBRANCH  14  15
ENDBRANCH  12  13
TORSDOF 6
ENDMDL
MODEL 5
REMARK VINA RESULT:      -7.8      2.173      2.905
REMARK  Name = C:\Users\Docking\Desktop\test protocol\1iep_ligandH.pdb
REMARK  8 active torsions:
REMARK  status: ('A' for Active; 'I' for Inactive)
REMARK    1  A    between atoms: _5  and  _11
REMARK    2  A    between atoms: _19  and  _21
REMARK    3  A    between atoms: _22  and  _66
REMARK    4  A    between atoms: _27  and  _30
REMARK    5  A    between atoms: _32  and  _33
REMARK    6  A    between atoms: _38  and  _43
REMARK    7  A    between atoms: _43  and  _46
REMARK    8  A    between atoms: _53  and  _55
REMARK                            x       y       z     vdW  Elec       q    Type
REMARK                         _______ _______ _______ _____ _____    ______ ____
ROOT
ATOM     10  C   UNL     1      16.484  22.702  15.173  0.00  0.00    +0.038 A 
ATOM     11  C   UNL     1      15.257  23.052  15.791  0.00  0.00    +0.047 A 
ATOM     12  C   UNL     1      13.989  22.550  15.284  0.00  0.00    +0.035 A 
ATOM     32  C   UNL     1      14.009  21.690  14.147  0.00  0.00    +0.024 A 
ATOM     33  C   UNL     1      15.247  21.325  13.506  0.00  0.00    +0.007 A 
ATOM     34  C   UNL     1      16.501  21.819  14.000  0.00  0.00    -0.029 A 
ATOM     35  C   UNL     1      17.797  21.400  13.269  0.00  0.00    +0.045 C 
ENDROOT
BRANCH  10   9
ATOM      4  C   UNL     1      19.747  26.189  15.657  0.00  0.00    +0.077 A 
ATOM      5  C   UNL     1      19.039  27.056  14.760  0.00  0.00    +0.048 A 
ATOM      6  C   UNL     1      17.843  26.565  14.190  0.00  0.00    +0.116 A 
ATOM      7  N   UNL     1      17.398  25.298  14.501  0.00  0.00    -0.223 NA
ATOM      8  C   UNL     1      18.106  24.486  15.368  0.00  0.00    +0.220 A 
ATOM      9  N   UNL     1      17.672  23.212  15.701  0.00  0.00    -0.283 N 
ATOM     36  H   UNL     1      18.227  22.642  16.339  0.00  0.00    +0.155 HD
ATOM     37  N   UNL     1      19.251  24.932  15.925  0.00  0.00    -0.214 NA
BRANCH   4   3
ATOM      1  C   UNL     1      23.460  27.221  16.326  0.00  0.00    +0.020 A 
ATOM      2  C   UNL     1      22.254  26.861  15.617  0.00  0.00    +0.013 A 
ATOM      3  C   UNL     1      21.024  26.566  16.341  0.00  0.00    +0.019 A 
ATOM     38  C   UNL     1      21.048  26.646  17.794  0.00  0.00    +0.120 A 
ATOM     39  N   UNL     1      22.225  26.994  18.450  0.00  0.00    -0.263 NA
ATOM     40  C   UNL     1      23.415  27.278  17.763  0.00  0.00    +0.111 A 
ENDBRANCH   4   3
ENDBRANCH  10   9
BRANCH  12  13
ATOM     13  N   UNL     1      12.711  22.877  15.866  0.00  0.00    -0.281 N 
ATOM     14  C   UNL     1      12.207  22.480  17.093  0.00  0.00    +0.248 C 
ATOM     30  O   UNL     1      12.695  21.603  17.790  0.00  0.00    -0.270 OA
ATOM     31  H   UNL     1      12.104  23.474  15.304  0.00  0.00    +0.155 HD
BRANCH  14  15
ATOM     15  C   UNL     1      10.973  23.143  17.616  0.00  0.00    +0.037 A 
ATOM     16  C   UNL     1      11.027  24.473  18.227  0.00  0.00    +0.013 A 
ATOM     17  C   UNL     1       9.825  25.083  18.739  0.00  0.00    +0.005 A 
ATOM     18  C   UNL     1       8.558  24.362  18.640  0.00  0.00    -0.033 A 
ATOM     28  C   UNL     1       8.533  23.045  18.024  0.00  0.00    +0.005 A 
ATOM     29  C   UNL     1       9.709  22.444  17.522  0.00  0.00    +0.013 A 
BRANCH  18  19
ATOM     19  C   UNL     1       7.230  24.926  19.178  0.00  0.00    +0.119 C 
BRANCH  19  20
ATOM     20  N   UNL     1       6.921  24.691  20.620  0.00  0.00    -0.302 NA
ATOM     21  C   UNL     1       5.822  23.641  20.808  0.00  0.00    +0.066 C 
ATOM     22  C   UNL     1       5.528  23.391  22.323  0.00  0.00    -0.064 C 
ATOM     23  N   UNL     1       5.136  24.711  22.989  0.00  0.00    +0.379 N 
ATOM     24  C   UNL     1       4.802  24.469  24.400  0.00  0.00    -0.096 C 
ATOM     25  H   UNL     1       4.215  25.084  22.482  0.00  0.00    -0.082 HD
ATOM     26  C   UNL     1       6.222  25.762  22.804  0.00  0.00    -0.064 C 
ATOM     27  C   UNL     1       6.527  25.981  21.296  0.00  0.00    +0.066 C 
ENDBRANCH  19  20
ENDBRANCH  18  19
ENDBRANCH  14  15
ENDBRANCH  12  13
TORSDOF 6
ENDMDL
