MODEL 1
REMARK VINA RESULT:      -8.8      0.000      0.000
REMARK  Name = C:\Users\Docking\Desktop\test protocol\1iep_ligandH.pdb
REMARK  8 active torsions:
REMARK  status: ('A' for Active; 'I' for Inactive)
REMARK    1  A    between atoms: _5  and  _11
REMARK    2  A    between atoms: _19  and  _21
REMARK    3  A    between atoms: _22  and  _66
REMARK    4  A    between atoms: _27  and  _30
REMARK    5  A    between atoms: _32  and  _33
REMARK    6  A    between atoms: _38  and  _43
REMARK    7  A    between atoms: _43  and  _46
REMARK    8  A    between atoms: _53  and  _55
REMARK                            x       y       z     vdW  Elec       q    Type
REMARK                         _______ _______ _______ _____ _____    ______ ____
ROOT
ATOM     10  C   UNL     1      -5.549   1.123   7.612  0.00  0.00    +0.038 A 
ATOM     11  C   UNL     1      -4.313   1.661   7.172  0.00  0.00    +0.047 A 
ATOM     12  C   UNL     1      -4.258   2.904   6.419  0.00  0.00    +0.035 A 
ATOM     32  C   UNL     1      -5.482   3.575   6.133  0.00  0.00    +0.024 A 
ATOM     33  C   UNL     1      -6.748   3.042   6.571  0.00  0.00    +0.007 A 
ATOM     34  C   UNL     1      -6.809   1.815   7.312  0.00  0.00    -0.029 A 
ATOM     35  C   UNL     1      -8.194   1.287   7.751  0.00  0.00    +0.045 C 
ENDROOT
BRANCH  10   9
ATOM      4  C   UNL     1      -5.804  -3.663   7.870  0.00  0.00    +0.077 A 
ATOM      5  C   UNL     1      -5.993  -3.788   6.453  0.00  0.00    +0.048 A 
ATOM      6  C   UNL     1      -6.025  -2.596   5.695  0.00  0.00    +0.116 A 
ATOM      7  N   UNL     1      -5.878  -1.376   6.317  0.00  0.00    -0.223 NA
ATOM      8  C   UNL     1      -5.700  -1.290   7.686  0.00  0.00    +0.220 A 
ATOM      9  N   UNL     1      -5.543  -0.074   8.332  0.00  0.00    -0.283 N 
ATOM     36  H   UNL     1      -5.421  -0.052   9.344  0.00  0.00    +0.155 HD
ATOM     37  N   UNL     1      -5.667  -2.413   8.432  0.00  0.00    -0.214 NA
BRANCH   4   3
ATOM      1  C   UNL     1      -4.638  -6.184  10.623  0.00  0.00    +0.020 A 
ATOM      2  C   UNL     1      -4.647  -5.040   9.741  0.00  0.00    +0.013 A 
ATOM      3  C   UNL     1      -5.745  -4.830   8.805  0.00  0.00    +0.019 A 
ATOM     38  C   UNL     1      -6.827  -5.803   8.788  0.00  0.00    +0.120 A 
ATOM     39  N   UNL     1      -6.790  -6.896   9.649  0.00  0.00    -0.263 NA
ATOM     40  C   UNL     1      -5.738  -7.109  10.552  0.00  0.00    +0.111 A 
ENDBRANCH   4   3
ENDBRANCH  10   9
BRANCH  12  13
ATOM     13  N   UNL     1      -3.033   3.494   5.939  0.00  0.00    -0.281 N 
ATOM     14  C   UNL     1      -2.717   3.867   4.643  0.00  0.00    +0.248 C 
ATOM     30  O   UNL     1      -3.365   3.551   3.656  0.00  0.00    -0.270 OA
ATOM     31  H   UNL     1      -2.310   3.656   6.641  0.00  0.00    +0.155 HD
BRANCH  14  15
ATOM     15  C   UNL     1      -1.498   4.698   4.407  0.00  0.00    +0.037 A 
ATOM     16  C   UNL     1      -0.894   5.484   5.486  0.00  0.00    +0.013 A 
ATOM     17  C   UNL     1       0.272   6.292   5.227  0.00  0.00    +0.005 A 
ATOM     18  C   UNL     1       0.843   6.315   3.883  0.00  0.00    -0.033 A 
ATOM     28  C   UNL     1       0.227   5.522   2.832  0.00  0.00    +0.005 A 
ATOM     29  C   UNL     1      -0.917   4.730   3.082  0.00  0.00    +0.013 A 
BRANCH  18  19
ATOM     19  C   UNL     1       2.073   7.164   3.511  0.00  0.00    +0.119 C 
BRANCH  19  20
ATOM     20  N   UNL     1       1.921   8.130   2.382  0.00  0.00    -0.302 NA
ATOM     21  C   UNL     1       3.057   9.157   2.348  0.00  0.00    +0.066 C 
ATOM     22  C   UNL     1       2.895  10.145   1.148  0.00  0.00    -0.064 C 
ATOM     23  N   UNL     1       1.537  10.843   1.246  0.00  0.00    +0.379 N 
ATOM     24  C   UNL     1       1.406  11.816   0.151  0.00  0.00    -0.096 C 
ATOM     25  H   UNL     1       1.517  11.409   2.206  0.00  0.00    -0.082 HD
ATOM     26  C   UNL     1       0.402   9.830   1.283  0.00  0.00    -0.064 C 
ATOM     27  C   UNL     1       0.589   8.834   2.462  0.00  0.00    +0.066 C 
ENDBRANCH  19  20
ENDBRANCH  18  19
ENDBRANCH  14  15
ENDBRANCH  12  13
TORSDOF 6
ENDMDL
MODEL 2
REMARK VINA RESULT:      -8.8      6.419     14.216
REMARK  Name = C:\Users\Docking\Desktop\test protocol\1iep_ligandH.pdb
REMARK  8 active torsions:
REMARK  status: ('A' for Active; 'I' for Inactive)
REMARK    1  A    between atoms: _5  and  _11
REMARK    2  A    between atoms: _19  and  _21
REMARK    3  A    between atoms: _22  and  _66
REMARK    4  A    between atoms: _27  and  _30
REMARK    5  A    between atoms: _32  and  _33
REMARK    6  A    between atoms: _38  and  _43
REMARK    7  A    between atoms: _43  and  _46
REMARK    8  A    between atoms: _53  and  _55
REMARK                            x       y       z     vdW  Elec       q    Type
REMARK                         _______ _______ _______ _____ _____    ______ ____
ROOT
ATOM     10  C   UNL     1      -4.633  -1.156   8.785  0.00  0.00    +0.038 A 
ATOM     11  C   UNL     1      -4.220  -1.161  10.142  0.00  0.00    +0.047 A 
ATOM     12  C   UNL     1      -4.799  -2.087  11.102  0.00  0.00    +0.035 A 
ATOM     32  C   UNL     1      -5.796  -2.998  10.645  0.00  0.00    +0.024 A 
ATOM     33  C   UNL     1      -6.229  -3.006   9.269  0.00  0.00    +0.007 A 
ATOM     34  C   UNL     1      -5.662  -2.093   8.318  0.00  0.00    -0.029 A 
ATOM     35  C   UNL     1      -6.168  -2.142   6.858  0.00  0.00    +0.045 C 
ENDROOT
BRANCH  10   9
ATOM      4  C   UNL     1      -4.705   2.889   6.203  0.00  0.00    +0.077 A 
ATOM      5  C   UNL     1      -6.042   3.201   6.619  0.00  0.00    +0.048 A 
ATOM      6  C   UNL     1      -6.679   2.290   7.492  0.00  0.00    +0.116 A 
ATOM      7  N   UNL     1      -6.018   1.156   7.912  0.00  0.00    -0.223 NA
ATOM      8  C   UNL     1      -4.729   0.885   7.490  0.00  0.00    +0.220 A 
ATOM      9  N   UNL     1      -4.042  -0.245   7.906  0.00  0.00    -0.283 N 
ATOM     36  H   UNL     1      -3.095  -0.413   7.567  0.00  0.00    +0.155 HD
ATOM     37  N   UNL     1      -4.100   1.738   6.655  0.00  0.00    -0.214 NA
BRANCH   4   3
ATOM      1  C   UNL     1      -3.614   5.144   3.199  0.00  0.00    +0.020 A 
ATOM      2  C   UNL     1      -4.434   4.314   4.050  0.00  0.00    +0.013 A 
ATOM      3  C   UNL     1      -3.899   3.755   5.285  0.00  0.00    +0.019 A 
ATOM     38  C   UNL     1      -2.519   4.058   5.633  0.00  0.00    +0.120 A 
ATOM     39  N   UNL     1      -1.752   4.860   4.793  0.00  0.00    -0.263 NA
ATOM     40  C   UNL     1      -2.256   5.402   3.601  0.00  0.00    +0.111 A 
ENDBRANCH   4   3
ENDBRANCH  10   9
BRANCH  12  13
ATOM     13  N   UNL     1      -4.426  -2.132  12.494  0.00  0.00    -0.281 N 
ATOM     14  C   UNL     1      -3.887  -3.198  13.197  0.00  0.00    +0.248 C 
ATOM     30  O   UNL     1      -3.843  -4.347  12.783  0.00  0.00    -0.270 OA
ATOM     31  H   UNL     1      -4.577  -1.275  13.025  0.00  0.00    +0.155 HD
BRANCH  14  15
ATOM     15  C   UNL     1      -3.330  -2.954  14.562  0.00  0.00    +0.037 A 
ATOM     16  C   UNL     1      -4.019  -2.085  15.520  0.00  0.00    +0.013 A 
ATOM     17  C   UNL     1      -3.450  -1.853  16.824  0.00  0.00    +0.005 A 
ATOM     18  C   UNL     1      -2.186  -2.494  17.179  0.00  0.00    -0.033 A 
ATOM     28  C   UNL     1      -1.527  -3.355  16.211  0.00  0.00    +0.005 A 
ATOM     29  C   UNL     1      -2.080  -3.584  14.931  0.00  0.00    +0.013 A 
BRANCH  18  19
ATOM     19  C   UNL     1      -1.496  -2.286  18.540  0.00  0.00    +0.119 C 
BRANCH  19  20
ATOM     20  N   UNL     1      -2.099  -2.970  19.723  0.00  0.00    -0.302 NA
ATOM     21  C   UNL     1      -1.130  -3.030  20.907  0.00  0.00    +0.066 C 
ATOM     22  C   UNL     1      -1.784  -3.729  22.143  0.00  0.00    -0.064 C 
ATOM     23  N   UNL     1      -2.244  -5.133  21.748  0.00  0.00    +0.379 N 
ATOM     24  C   UNL     1      -2.807  -5.814  22.923  0.00  0.00    -0.096 C 
ATOM     25  H   UNL     1      -1.343  -5.705  21.425  0.00  0.00    -0.082 HD
ATOM     26  C   UNL     1      -3.206  -5.083  20.570  0.00  0.00    -0.064 C 
ATOM     27  C   UNL     1      -2.556  -4.360  19.356  0.00  0.00    +0.066 C 
ENDBRANCH  19  20
ENDBRANCH  18  19
ENDBRANCH  14  15
ENDBRANCH  12  13
TORSDOF 6
ENDMDL
MODEL 3
REMARK VINA RESULT:      -8.6      5.777      9.452
REMARK  Name = C:\Users\Docking\Desktop\test protocol\1iep_ligandH.pdb
REMARK  8 active torsions:
REMARK  status: ('A' for Active; 'I' for Inactive)
REMARK    1  A    between atoms: _5  and  _11
REMARK    2  A    between atoms: _19  and  _21
REMARK    3  A    between atoms: _22  and  _66
REMARK    4  A    between atoms: _27  and  _30
REMARK    5  A    between atoms: _32  and  _33
REMARK    6  A    between atoms: _38  and  _43
REMARK    7  A    between atoms: _43  and  _46
REMARK    8  A    between atoms: _53  and  _55
REMARK                            x       y       z     vdW  Elec       q    Type
REMARK                         _______ _______ _______ _____ _____    ______ ____
ROOT
ATOM     10  C   UNL     1       0.475   6.549   5.099  0.00  0.00    +0.038 A 
ATOM     11  C   UNL     1       1.429   5.949   4.238  0.00  0.00    +0.047 A 
ATOM     12  C   UNL     1       2.460   6.743   3.586  0.00  0.00    +0.035 A 
ATOM     32  C   UNL     1       2.491   8.146   3.837  0.00  0.00    +0.024 A 
ATOM     33  C   UNL     1       1.528   8.773   4.708  0.00  0.00    +0.007 A 
ATOM     34  C   UNL     1       0.508   7.995   5.351  0.00  0.00    -0.029 A 
ATOM     35  C   UNL     1      -0.502   8.721   6.271  0.00  0.00    +0.045 C 
ENDROOT
BRANCH  10   9
ATOM      4  C   UNL     1      -3.702   4.187   5.027  0.00  0.00    +0.077 A 
ATOM      5  C   UNL     1      -3.995   4.625   3.692  0.00  0.00    +0.048 A 
ATOM      6  C   UNL     1      -3.048   5.463   3.062  0.00  0.00    +0.116 A 
ATOM      7  N   UNL     1      -1.897   5.829   3.727  0.00  0.00    -0.223 NA
ATOM      8  C   UNL     1      -1.646   5.390   5.014  0.00  0.00    +0.220 A 
ATOM      9  N   UNL     1      -0.492   5.739   5.698  0.00  0.00    -0.283 N 
ATOM     36  H   UNL     1      -0.348   5.401   6.649  0.00  0.00    +0.155 HD
ATOM     37  N   UNL     1      -2.536   4.590   5.638  0.00  0.00    -0.214 NA
BRANCH   4   3
ATOM      1  C   UNL     1      -6.809   2.748   6.918  0.00  0.00    +0.020 A 
ATOM      2  C   UNL     1      -5.981   3.645   6.146  0.00  0.00    +0.013 A 
ATOM      3  C   UNL     1      -4.603   3.295   5.823  0.00  0.00    +0.019 A 
ATOM     38  C   UNL     1      -4.090   2.020   6.301  0.00  0.00    +0.120 A 
ATOM     39  N   UNL     1      -4.911   1.177   7.044  0.00  0.00    -0.263 NA
ATOM     40  C   UNL     1      -6.238   1.504   7.361  0.00  0.00    +0.111 A 
ENDBRANCH   4   3
ENDBRANCH  10   9
BRANCH  12  13
ATOM     13  N   UNL     1       3.450   6.190   2.696  0.00  0.00    -0.281 N 
ATOM     14  C   UNL     1       4.498   5.340   3.009  0.00  0.00    +0.248 C 
ATOM     30  O   UNL     1       4.871   5.094   4.147  0.00  0.00    -0.270 OA
ATOM     31  H   UNL     1       3.369   6.459   1.715  0.00  0.00    +0.155 HD
BRANCH  14  15
ATOM     15  C   UNL     1       5.248   4.678   1.899  0.00  0.00    +0.037 A 
ATOM     16  C   UNL     1       6.480   5.260   1.362  0.00  0.00    +0.013 A 
ATOM     17  C   UNL     1       7.175   4.610   0.279  0.00  0.00    +0.005 A 
ATOM     18  C   UNL     1       6.639   3.369  -0.273  0.00  0.00    -0.033 A 
ATOM     28  C   UNL     1       5.417   2.811   0.282  0.00  0.00    +0.005 A 
ATOM     29  C   UNL     1       4.732   3.446   1.343  0.00  0.00    +0.013 A 
BRANCH  18  19
ATOM     19  C   UNL     1       7.302   2.618  -1.443  0.00  0.00    +0.119 C 
BRANCH  19  20
ATOM     20  N   UNL     1       8.476   1.753  -1.122  0.00  0.00    -0.302 NA
ATOM     21  C   UNL     1       8.292   1.003   0.200  0.00  0.00    +0.066 C 
ATOM     22  C   UNL     1       9.520   0.085   0.509  0.00  0.00    -0.064 C 
ATOM     23  N   UNL     1      10.792   0.933   0.540  0.00  0.00    +0.379 N 
ATOM     24  C   UNL     1      11.940   0.083   0.887  0.00  0.00    -0.096 C 
ATOM     25  H   UNL     1      10.674   1.690   1.350  0.00  0.00    -0.082 HD
ATOM     26  C   UNL     1      10.981   1.685  -0.770  0.00  0.00    -0.064 C 
ATOM     27  C   UNL     1       9.743   2.571  -1.083  0.00  0.00    +0.066 C 
ENDBRANCH  19  20
ENDBRANCH  18  19
ENDBRANCH  14  15
ENDBRANCH  12  13
TORSDOF 6
ENDMDL
MODEL 4
REMARK VINA RESULT:      -8.6      9.863     13.721
REMARK  Name = C:\Users\Docking\Desktop\test protocol\1iep_ligandH.pdb
REMARK  8 active torsions:
REMARK  status: ('A' for Active; 'I' for Inactive)
REMARK    1  A    between atoms: _5  and  _11
REMARK    2  A    between atoms: _19  and  _21
REMARK    3  A    between atoms: _22  and  _66
REMARK    4  A    between atoms: _27  and  _30
REMARK    5  A    between atoms: _32  and  _33
REMARK    6  A    between atoms: _38  and  _43
REMARK    7  A    between atoms: _43  and  _46
REMARK    8  A    between atoms: _53  and  _55
REMARK                            x       y       z     vdW  Elec       q    Type
REMARK                         _______ _______ _______ _____ _____    ______ ____
ROOT
ATOM     10  C   UNL     1      -2.881  -3.413  15.030  0.00  0.00    +0.038 A 
ATOM     11  C   UNL     1      -3.324  -3.240  13.694  0.00  0.00    +0.047 A 
ATOM     12  C   UNL     1      -3.913  -4.341  12.948  0.00  0.00    +0.035 A 
ATOM     32  C   UNL     1      -4.038  -5.605  13.595  0.00  0.00    +0.024 A 
ATOM     33  C   UNL     1      -3.592  -5.799  14.952  0.00  0.00    +0.007 A 
ATOM     34  C   UNL     1      -3.008  -4.717  15.692  0.00  0.00    -0.029 A 
ATOM     35  C   UNL     1      -2.542  -4.984  17.142  0.00  0.00    +0.045 C 
ENDROOT
BRANCH  10   9
ATOM      4  C   UNL     1      -3.205   0.357  17.983  0.00  0.00    +0.077 A 
ATOM      5  C   UNL     1      -4.609   0.151  18.188  0.00  0.00    +0.048 A 
ATOM      6  C   UNL     1      -5.212  -0.932  17.510  0.00  0.00    +0.116 A 
ATOM      7  N   UNL     1      -4.457  -1.743  16.690  0.00  0.00    -0.223 NA
ATOM      8  C   UNL     1      -3.104  -1.515  16.513  0.00  0.00    +0.220 A 
ATOM      9  N   UNL     1      -2.324  -2.321  15.699  0.00  0.00    -0.283 N 
ATOM     36  H   UNL     1      -1.331  -2.116  15.589  0.00  0.00    +0.155 HD
ATOM     37  N   UNL     1      -2.505  -0.486  17.148  0.00  0.00    -0.214 NA
BRANCH   4   3
ATOM      1  C   UNL     1      -0.261   2.575  19.295  0.00  0.00    +0.020 A 
ATOM      2  C   UNL     1      -0.967   1.489  18.654  0.00  0.00    +0.013 A 
ATOM      3  C   UNL     1      -2.424   1.457  18.632  0.00  0.00    +0.019 A 
ATOM     38  C   UNL     1      -3.143   2.549  19.271  0.00  0.00    +0.120 A 
ATOM     39  N   UNL     1      -2.436   3.581  19.881  0.00  0.00    -0.263 NA
ATOM     40  C   UNL     1      -1.034   3.621  19.910  0.00  0.00    +0.111 A 
ENDBRANCH   4   3
ENDBRANCH  10   9
BRANCH  12  13
ATOM     13  N   UNL     1      -4.373  -4.227  11.586  0.00  0.00    -0.281 N 
ATOM     14  C   UNL     1      -4.218  -5.140  10.555  0.00  0.00    +0.248 C 
ATOM     30  O   UNL     1      -3.470  -6.106  10.594  0.00  0.00    -0.270 OA
ATOM     31  H   UNL     1      -4.873  -3.369  11.353  0.00  0.00    +0.155 HD
BRANCH  14  15
ATOM     15  C   UNL     1      -4.996  -4.945   9.294  0.00  0.00    +0.037 A 
ATOM     16  C   UNL     1      -4.670  -3.864   8.361  0.00  0.00    +0.013 A 
ATOM     17  C   UNL     1      -5.448  -3.686   7.160  0.00  0.00    +0.005 A 
ATOM     18  C   UNL     1      -6.559  -4.595   6.885  0.00  0.00    -0.033 A 
ATOM     28  C   UNL     1      -6.857  -5.662   7.826  0.00  0.00    +0.005 A 
ATOM     29  C   UNL     1      -6.098  -5.838   9.005  0.00  0.00    +0.013 A 
BRANCH  18  19
ATOM     19  C   UNL     1      -7.455  -4.467   5.639  0.00  0.00    +0.119 C 
BRANCH  19  20
ATOM     20  N   UNL     1      -7.948  -5.733   5.019  0.00  0.00    -0.302 NA
ATOM     21  C   UNL     1      -6.864  -6.427   4.190  0.00  0.00    +0.066 C 
ATOM     22  C   UNL     1      -7.391  -7.761   3.567  0.00  0.00    -0.064 C 
ATOM     23  N   UNL     1      -8.624  -7.469   2.711  0.00  0.00    +0.379 N 
ATOM     24  C   UNL     1      -9.087  -8.713   2.077  0.00  0.00    -0.096 C 
ATOM     25  H   UNL     1      -8.314  -6.771   1.899  0.00  0.00    -0.082 HD
ATOM     26  C   UNL     1      -9.706  -6.776   3.527  0.00  0.00    -0.064 C 
ATOM     27  C   UNL     1      -9.164  -5.467   4.165  0.00  0.00    +0.066 C 
ENDBRANCH  19  20
ENDBRANCH  18  19
ENDBRANCH  14  15
ENDBRANCH  12  13
TORSDOF 6
ENDMDL
MODEL 5
REMARK VINA RESULT:      -8.6      3.412     13.175
REMARK  Name = C:\Users\Docking\Desktop\test protocol\1iep_ligandH.pdb
REMARK  8 active torsions:
REMARK  status: ('A' for Active; 'I' for Inactive)
REMARK    1  A    between atoms: _5  and  _11
REMARK    2  A    between atoms: _19  and  _21
REMARK    3  A    between atoms: _22  and  _66
REMARK    4  A    between atoms: _27  and  _30
REMARK    5  A    between atoms: _32  and  _33
REMARK    6  A    between atoms: _38  and  _43
REMARK    7  A    between atoms: _43  and  _46
REMARK    8  A    between atoms: _53  and  _55
REMARK                            x       y       z     vdW  Elec       q    Type
REMARK                         _______ _______ _______ _____ _____    ______ ____
ROOT
ATOM     10  C   UNL     1      -2.549   4.254   4.276  0.00  0.00    +0.038 A 
ATOM     11  C   UNL     1      -2.602   3.411   5.415  0.00  0.00    +0.047 A 
ATOM     12  C   UNL     1      -3.873   3.035   6.014  0.00  0.00    +0.035 A 
ATOM     32  C   UNL     1      -5.071   3.533   5.425  0.00  0.00    +0.024 A 
ATOM     33  C   UNL     1      -5.035   4.392   4.267  0.00  0.00    +0.007 A 
ATOM     34  C   UNL     1      -3.784   4.769   3.674  0.00  0.00    -0.029 A 
ATOM     35  C   UNL     1      -3.806   5.698   2.438  0.00  0.00    +0.045 C 
ENDROOT
BRANCH  10   9
ATOM      4  C   UNL     1       1.297   7.108   3.953  0.00  0.00    +0.077 A 
ATOM      5  C   UNL     1       0.764   8.034   4.909  0.00  0.00    +0.048 A 
ATOM      6  C   UNL     1      -0.507   7.744   5.455  0.00  0.00    +0.116 A 
ATOM      7  N   UNL     1      -1.184   6.608   5.067  0.00  0.00    -0.223 NA
ATOM      8  C   UNL     1      -0.641   5.736   4.141  0.00  0.00    +0.220 A 
ATOM      9  N   UNL     1      -1.301   4.584   3.742  0.00  0.00    -0.283 N 
ATOM     36  H   UNL     1      -0.870   3.970   3.051  0.00  0.00    +0.155 HD
ATOM     37  N   UNL     1       0.570   5.992   3.604  0.00  0.00    -0.214 NA
BRANCH   4   3
ATOM      1  C   UNL     1       4.749   6.364   2.270  0.00  0.00    +0.020 A 
ATOM      2  C   UNL     1       3.471   6.148   2.908  0.00  0.00    +0.013 A 
ATOM      3  C   UNL     1       2.629   7.275   3.290  0.00  0.00    +0.019 A 
ATOM     38  C   UNL     1       3.113   8.618   3.008  0.00  0.00    +0.120 A 
ATOM     39  N   UNL     1       4.348   8.795   2.393  0.00  0.00    -0.263 NA
ATOM     40  C   UNL     1       5.168   7.718   2.023  0.00  0.00    +0.111 A 
ENDBRANCH   4   3
ENDBRANCH  10   9
BRANCH  12  13
ATOM     13  N   UNL     1      -3.989   2.188   7.176  0.00  0.00    -0.281 N 
ATOM     14  C   UNL     1      -5.128   1.900   7.909  0.00  0.00    +0.248 C 
ATOM     30  O   UNL     1      -6.188   2.499   7.803  0.00  0.00    -0.270 OA
ATOM     31  H   UNL     1      -3.126   1.748   7.496  0.00  0.00    +0.155 HD
BRANCH  14  15
ATOM     15  C   UNL     1      -5.079   0.795   8.915  0.00  0.00    +0.037 A 
ATOM     16  C   UNL     1      -3.976  -0.169   8.932  0.00  0.00    +0.013 A 
ATOM     17  C   UNL     1      -3.962  -1.234   9.902  0.00  0.00    +0.005 A 
ATOM     18  C   UNL     1      -5.055  -1.341  10.865  0.00  0.00    -0.033 A 
ATOM     28  C   UNL     1      -6.135  -0.368  10.829  0.00  0.00    +0.005 A 
ATOM     29  C   UNL     1      -6.152   0.678   9.879  0.00  0.00    +0.013 A 
BRANCH  18  19
ATOM     19  C   UNL     1      -5.133  -2.458  11.922  0.00  0.00    +0.119 C 
BRANCH  19  20
ATOM     20  N   UNL     1      -4.291  -2.302  13.146  0.00  0.00    -0.302 NA
ATOM     21  C   UNL     1      -3.338  -3.485  13.342  0.00  0.00    +0.066 C 
ATOM     22  C   UNL     1      -2.449  -3.294  14.613  0.00  0.00    -0.064 C 
ATOM     23  N   UNL     1      -3.347  -3.114  15.838  0.00  0.00    +0.379 N 
ATOM     24  C   UNL     1      -2.514  -2.992  17.044  0.00  0.00    -0.096 C 
ATOM     25  H   UNL     1      -3.963  -4.037  15.944  0.00  0.00    -0.082 HD
ATOM     26  C   UNL     1      -4.300  -1.942  15.650  0.00  0.00    -0.064 C 
ATOM     27  C   UNL     1      -5.158  -2.127  14.368  0.00  0.00    +0.066 C 
ENDBRANCH  19  20
ENDBRANCH  18  19
ENDBRANCH  14  15
ENDBRANCH  12  13
TORSDOF 6
ENDMDL
