MODEL 1
REMARK VINA RESULT:      -8.3      0.000      0.000
REMARK  Name = C:\Users\Docking\Desktop\test protocol\1iep_ligandH.pdb
REMARK  8 active torsions:
REMARK  status: ('A' for Active; 'I' for Inactive)
REMARK    1  A    between atoms: _5  and  _11
REMARK    2  A    between atoms: _19  and  _21
REMARK    3  A    between atoms: _22  and  _66
REMARK    4  A    between atoms: _27  and  _30
REMARK    5  A    between atoms: _32  and  _33
REMARK    6  A    between atoms: _38  and  _43
REMARK    7  A    between atoms: _43  and  _46
REMARK    8  A    between atoms: _53  and  _55
REMARK                            x       y       z     vdW  Elec       q    Type
REMARK                         _______ _______ _______ _____ _____    ______ ____
ROOT
ATOM     10  C   UNL     1       9.359  26.598  19.549  0.00  0.00    +0.038 A 
ATOM     11  C   UNL     1      10.687  26.475  19.066  0.00  0.00    +0.047 A 
ATOM     12  C   UNL     1      11.339  25.178  18.978  0.00  0.00    +0.035 A 
ATOM     32  C   UNL     1      10.608  24.025  19.389  0.00  0.00    +0.024 A 
ATOM     33  C   UNL     1       9.258  24.131  19.883  0.00  0.00    +0.007 A 
ATOM     34  C   UNL     1       8.610  25.409  19.974  0.00  0.00    -0.029 A 
ATOM     35  C   UNL     1       7.164  25.464  20.518  0.00  0.00    +0.045 C 
ENDROOT
BRANCH  10   9
ATOM      4  C   UNL     1       8.222  30.618  21.911  0.00  0.00    +0.077 A 
ATOM      5  C   UNL     1       8.805  30.137  23.130  0.00  0.00    +0.048 A 
ATOM      6  C   UNL     1       9.380  28.847  23.109  0.00  0.00    +0.116 A 
ATOM      7  N   UNL     1       9.369  28.103  21.950  0.00  0.00    -0.223 NA
ATOM      8  C   UNL     1       8.797  28.596  20.791  0.00  0.00    +0.220 A 
ATOM      9  N   UNL     1       8.781  27.868  19.611  0.00  0.00    -0.283 N 
ATOM     36  H   UNL     1       8.343  28.264  18.780  0.00  0.00    +0.155 HD
ATOM     37  N   UNL     1       8.240  29.825  20.786  0.00  0.00    -0.214 NA
BRANCH   4   3
ATOM      1  C   UNL     1       5.832  33.679  22.381  0.00  0.00    +0.020 A 
ATOM      2  C   UNL     1       6.415  32.368  22.552  0.00  0.00    +0.013 A 
ATOM      3  C   UNL     1       7.578  31.963  21.773  0.00  0.00    +0.019 A 
ATOM     38  C   UNL     1       8.132  32.916  20.822  0.00  0.00    +0.120 A 
ATOM     39  N   UNL     1       7.548  34.170  20.678  0.00  0.00    -0.263 NA
ATOM     40  C   UNL     1       6.427  34.570  21.421  0.00  0.00    +0.111 A 
ENDBRANCH   4   3
ENDBRANCH  10   9
BRANCH  12  13
ATOM     13  N   UNL     1      12.688  24.993  18.504  0.00  0.00    -0.281 N 
ATOM     14  C   UNL     1      13.797  24.585  19.227  0.00  0.00    +0.248 C 
ATOM     30  O   UNL     1      13.841  24.521  20.447  0.00  0.00    -0.270 OA
ATOM     31  H   UNL     1      12.845  25.187  17.515  0.00  0.00    +0.155 HD
BRANCH  14  15
ATOM     15  C   UNL     1      15.040  24.206  18.490  0.00  0.00    +0.037 A 
ATOM     16  C   UNL     1      14.985  23.698  17.117  0.00  0.00    +0.013 A 
ATOM     17  C   UNL     1      16.198  23.323  16.434  0.00  0.00    +0.005 A 
ATOM     18  C   UNL     1      17.478  23.457  17.125  0.00  0.00    -0.033 A 
ATOM     28  C   UNL     1      17.505  23.969  18.485  0.00  0.00    +0.005 A 
ATOM     29  C   UNL     1      16.318  24.336  19.157  0.00  0.00    +0.013 A 
BRANCH  18  19
ATOM     19  C   UNL     1      18.821  23.062  16.481  0.00  0.00    +0.119 C 
BRANCH  19  20
ATOM     20  N   UNL     1      18.774  22.468  15.112  0.00  0.00    -0.302 NA
ATOM     21  C   UNL     1      18.818  20.938  15.147  0.00  0.00    +0.066 C 
ATOM     22  C   UNL     1      18.745  20.333  13.707  0.00  0.00    -0.064 C 
ATOM     23  N   UNL     1      19.895  20.888  12.866  0.00  0.00    +0.379 N 
ATOM     24  C   UNL     1      19.864  20.277  11.529  0.00  0.00    -0.096 C 
ATOM     25  H   UNL     1      20.850  20.584  13.355  0.00  0.00    -0.082 HD
ATOM     26  C   UNL     1      19.861  22.409  12.827  0.00  0.00    -0.064 C 
ATOM     27  C   UNL     1      19.904  23.000  14.264  0.00  0.00    +0.066 C 
ENDBRANCH  19  20
ENDBRANCH  18  19
ENDBRANCH  14  15
ENDBRANCH  12  13
TORSDOF 6
ENDMDL
MODEL 2
REMARK VINA RESULT:      -8.3      7.967     11.930
REMARK  Name = C:\Users\Docking\Desktop\test protocol\1iep_ligandH.pdb
REMARK  8 active torsions:
REMARK  status: ('A' for Active; 'I' for Inactive)
REMARK    1  A    between atoms: _5  and  _11
REMARK    2  A    between atoms: _19  and  _21
REMARK    3  A    between atoms: _22  and  _66
REMARK    4  A    between atoms: _27  and  _30
REMARK    5  A    between atoms: _32  and  _33
REMARK    6  A    between atoms: _38  and  _43
REMARK    7  A    between atoms: _43  and  _46
REMARK    8  A    between atoms: _53  and  _55
REMARK                            x       y       z     vdW  Elec       q    Type
REMARK                         _______ _______ _______ _____ _____    ______ ____
ROOT
ATOM     10  C   UNL     1      14.891  22.222  16.327  0.00  0.00    +0.038 A 
ATOM     11  C   UNL     1      13.841  22.317  15.378  0.00  0.00    +0.047 A 
ATOM     12  C   UNL     1      12.868  21.246  15.223  0.00  0.00    +0.035 A 
ATOM     32  C   UNL     1      12.993  20.094  16.053  0.00  0.00    +0.024 A 
ATOM     33  C   UNL     1      14.055  19.981  17.022  0.00  0.00    +0.007 A 
ATOM     34  C   UNL     1      15.019  21.033  17.178  0.00  0.00    -0.029 A 
ATOM     35  C   UNL     1      16.140  20.855  18.228  0.00  0.00    +0.045 C 
ENDROOT
BRANCH  10   9
ATOM      4  C   UNL     1      18.732  24.673  14.820  0.00  0.00    +0.077 A 
ATOM      5  C   UNL     1      18.970  23.754  13.744  0.00  0.00    +0.048 A 
ATOM      6  C   UNL     1      18.085  22.660  13.618  0.00  0.00    +0.116 A 
ATOM      7  N   UNL     1      17.043  22.507  14.506  0.00  0.00    -0.223 NA
ATOM      8  C   UNL     1      16.843  23.410  15.534  0.00  0.00    +0.220 A 
ATOM      9  N   UNL     1      15.797  23.280  16.434  0.00  0.00    -0.283 N 
ATOM     36  H   UNL     1      15.688  23.963  17.183  0.00  0.00    +0.155 HD
ATOM     37  N   UNL     1      17.675  24.463  15.677  0.00  0.00    -0.214 NA
BRANCH   4   3
ATOM      1  C   UNL     1      21.011  27.814  14.326  0.00  0.00    +0.020 A 
ATOM      2  C   UNL     1      20.204  26.656  14.019  0.00  0.00    +0.013 A 
ATOM      3  C   UNL     1      19.578  25.880  15.082  0.00  0.00    +0.019 A 
ATOM     38  C   UNL     1      19.790  26.308  16.457  0.00  0.00    +0.120 A 
ATOM     39  N   UNL     1      20.574  27.426  16.723  0.00  0.00    -0.263 NA
ATOM     40  C   UNL     1      21.182  28.179  15.708  0.00  0.00    +0.111 A 
ENDBRANCH   4   3
ENDBRANCH  10   9
BRANCH  12  13
ATOM     13  N   UNL     1      11.786  21.283  14.271  0.00  0.00    -0.281 N 
ATOM     14  C   UNL     1      10.497  21.754  14.464  0.00  0.00    +0.248 C 
ATOM     30  O   UNL     1      10.016  22.021  15.555  0.00  0.00    -0.270 OA
ATOM     31  H   UNL     1      11.995  20.917  13.342  0.00  0.00    +0.155 HD
BRANCH  14  15
ATOM     15  C   UNL     1       9.612  21.942  13.275  0.00  0.00    +0.037 A 
ATOM     16  C   UNL     1       9.356  20.847  12.337  0.00  0.00    +0.013 A 
ATOM     17  C   UNL     1       8.512  21.060  11.188  0.00  0.00    +0.005 A 
ATOM     18  C   UNL     1       7.914  22.376  10.973  0.00  0.00    -0.033 A 
ATOM     28  C   UNL     1       8.180  23.444  11.923  0.00  0.00    +0.005 A 
ATOM     29  C   UNL     1       9.009  23.238  13.049  0.00  0.00    +0.013 A 
BRANCH  18  19
ATOM     19  C   UNL     1       7.017  22.699   9.764  0.00  0.00    +0.119 C 
BRANCH  19  20
ATOM     20  N   UNL     1       7.686  22.849   8.437  0.00  0.00    -0.302 NA
ATOM     21  C   UNL     1       8.314  24.235   8.263  0.00  0.00    +0.066 C 
ATOM     22  C   UNL     1       9.028  24.367   6.879  0.00  0.00    -0.064 C 
ATOM     23  N   UNL     1       8.024  24.083   5.761  0.00  0.00    +0.379 N 
ATOM     24  C   UNL     1       8.679  24.263   4.457  0.00  0.00    -0.096 C 
ATOM     25  H   UNL     1       7.210  24.840   5.838  0.00  0.00    -0.082 HD
ATOM     26  C   UNL     1       7.393  22.708   5.927  0.00  0.00    -0.064 C 
ATOM     27  C   UNL     1       6.711  22.578   7.318  0.00  0.00    +0.066 C 
ENDBRANCH  19  20
ENDBRANCH  18  19
ENDBRANCH  14  15
ENDBRANCH  12  13
TORSDOF 6
ENDMDL
MODEL 3
REMARK VINA RESULT:      -8.3      3.923     14.389
REMARK  Name = C:\Users\Docking\Desktop\test protocol\1iep_ligandH.pdb
REMARK  8 active torsions:
REMARK  status: ('A' for Active; 'I' for Inactive)
REMARK    1  A    between atoms: _5  and  _11
REMARK    2  A    between atoms: _19  and  _21
REMARK    3  A    between atoms: _22  and  _66
REMARK    4  A    between atoms: _27  and  _30
REMARK    5  A    between atoms: _32  and  _33
REMARK    6  A    between atoms: _38  and  _43
REMARK    7  A    between atoms: _43  and  _46
REMARK    8  A    between atoms: _53  and  _55
REMARK                            x       y       z     vdW  Elec       q    Type
REMARK                         _______ _______ _______ _____ _____    ______ ____
ROOT
ATOM     10  C   UNL     1      10.184  28.515  21.318  0.00  0.00    +0.038 A 
ATOM     11  C   UNL     1       9.788  29.678  20.610  0.00  0.00    +0.047 A 
ATOM     12  C   UNL     1       8.937  30.683  21.230  0.00  0.00    +0.035 A 
ATOM     32  C   UNL     1       8.510  30.471  22.573  0.00  0.00    +0.024 A 
ATOM     33  C   UNL     1       8.903  29.294  23.307  0.00  0.00    +0.007 A 
ATOM     34  C   UNL     1       9.740  28.299  22.701  0.00  0.00    -0.029 A 
ATOM     35  C   UNL     1      10.125  27.053  23.533  0.00  0.00    +0.045 C 
ENDROOT
BRANCH  10   9
ATOM      4  C   UNL     1      10.828  24.600  18.618  0.00  0.00    +0.077 A 
ATOM      5  C   UNL     1       9.416  24.376  18.501  0.00  0.00    +0.048 A 
ATOM      6  C   UNL     1       8.558  25.287  19.157  0.00  0.00    +0.116 A 
ATOM      7  N   UNL     1       9.084  26.340  19.873  0.00  0.00    -0.223 NA
ATOM      8  C   UNL     1      10.451  26.527  19.967  0.00  0.00    +0.220 A 
ATOM      9  N   UNL     1      11.002  27.583  20.675  0.00  0.00    -0.283 N 
ATOM     36  H   UNL     1      12.016  27.682  20.727  0.00  0.00    +0.155 HD
ATOM     37  N   UNL     1      11.291  25.669  19.351  0.00  0.00    -0.214 NA
BRANCH   4   3
ATOM      1  C   UNL     1      14.251  23.050  17.531  0.00  0.00    +0.020 A 
ATOM      2  C   UNL     1      13.293  23.923  18.170  0.00  0.00    +0.013 A 
ATOM      3  C   UNL     1      11.862  23.726  17.979  0.00  0.00    +0.019 A 
ATOM     38  C   UNL     1      11.429  22.627  17.129  0.00  0.00    +0.120 A 
ATOM     39  N   UNL     1      12.374  21.804  16.525  0.00  0.00    -0.263 NA
ATOM     40  C   UNL     1      13.754  21.984  16.700  0.00  0.00    +0.111 A 
ENDBRANCH   4   3
ENDBRANCH  10   9
BRANCH  12  13
ATOM     13  N   UNL     1       8.495  31.880  20.558  0.00  0.00    -0.281 N 
ATOM     14  C   UNL     1       7.195  32.280  20.297  0.00  0.00    +0.248 C 
ATOM     30  O   UNL     1       6.214  31.560  20.414  0.00  0.00    -0.270 OA
ATOM     31  H   UNL     1       9.231  32.508  20.235  0.00  0.00    +0.155 HD
BRANCH  14  15
ATOM     15  C   UNL     1       6.950  33.676  19.824  0.00  0.00    +0.037 A 
ATOM     16  C   UNL     1       5.598  34.239  19.785  0.00  0.00    +0.013 A 
ATOM     17  C   UNL     1       5.388  35.583  19.308  0.00  0.00    +0.005 A 
ATOM     18  C   UNL     1       6.535  36.374  18.867  0.00  0.00    -0.033 A 
ATOM     28  C   UNL     1       7.865  35.792  18.921  0.00  0.00    +0.005 A 
ATOM     29  C   UNL     1       8.075  34.475  19.387  0.00  0.00    +0.013 A 
BRANCH  18  19
ATOM     19  C   UNL     1       6.401  37.809  18.324  0.00  0.00    +0.119 C 
BRANCH  19  20
ATOM     20  N   UNL     1       5.486  38.735  19.055  0.00  0.00    -0.302 NA
ATOM     21  C   UNL     1       5.381  40.100  18.369  0.00  0.00    +0.066 C 
ATOM     22  C   UNL     1       4.402  41.048  19.134  0.00  0.00    -0.064 C 
ATOM     23  N   UNL     1       4.875  41.205  20.581  0.00  0.00    +0.379 N 
ATOM     24  C   UNL     1       3.990  42.142  21.288  0.00  0.00    -0.096 C 
ATOM     25  H   UNL     1       5.894  41.655  20.556  0.00  0.00    -0.082 HD
ATOM     26  C   UNL     1       4.985  39.852  21.270  0.00  0.00    -0.064 C 
ATOM     27  C   UNL     1       5.937  38.907  20.485  0.00  0.00    +0.066 C 
ENDBRANCH  19  20
ENDBRANCH  18  19
ENDBRANCH  14  15
ENDBRANCH  12  13
TORSDOF 6
ENDMDL
MODEL 4
REMARK VINA RESULT:      -8.3     12.898     15.370
REMARK  Name = C:\Users\Docking\Desktop\test protocol\1iep_ligandH.pdb
REMARK  8 active torsions:
REMARK  status: ('A' for Active; 'I' for Inactive)
REMARK    1  A    between atoms: _5  and  _11
REMARK    2  A    between atoms: _19  and  _21
REMARK    3  A    between atoms: _22  and  _66
REMARK    4  A    between atoms: _27  and  _30
REMARK    5  A    between atoms: _32  and  _33
REMARK    6  A    between atoms: _38  and  _43
REMARK    7  A    between atoms: _43  and  _46
REMARK    8  A    between atoms: _53  and  _55
REMARK                            x       y       z     vdW  Elec       q    Type
REMARK                         _______ _______ _______ _____ _____    ______ ____
ROOT
ATOM     10  C   UNL     1       3.157  37.616  23.060  0.00  0.00    +0.038 A 
ATOM     11  C   UNL     1       3.059  36.230  23.347  0.00  0.00    +0.047 A 
ATOM     12  C   UNL     1       2.945  35.751  24.715  0.00  0.00    +0.035 A 
ATOM     32  C   UNL     1       2.931  36.712  25.768  0.00  0.00    +0.024 A 
ATOM     33  C   UNL     1       3.031  38.124  25.495  0.00  0.00    +0.007 A 
ATOM     34  C   UNL     1       3.146  38.602  24.147  0.00  0.00    -0.029 A 
ATOM     35  C   UNL     1       3.257  40.127  23.913  0.00  0.00    +0.045 C 
ENDROOT
BRANCH  10   9
ATOM      4  C   UNL     1       5.431  37.704  18.834  0.00  0.00    +0.077 A 
ATOM      5  C   UNL     1       6.509  36.899  19.330  0.00  0.00    +0.048 A 
ATOM      6  C   UNL     1       6.444  36.489  20.680  0.00  0.00    +0.116 A 
ATOM      7  N   UNL     1       5.376  36.861  21.467  0.00  0.00    -0.223 NA
ATOM      8  C   UNL     1       4.353  37.640  20.957  0.00  0.00    +0.220 A 
ATOM      9  N   UNL     1       3.265  38.020  21.727  0.00  0.00    -0.283 N 
ATOM     36  H   UNL     1       2.534  38.601  21.316  0.00  0.00    +0.155 HD
ATOM     37  N   UNL     1       4.392  38.046  19.671  0.00  0.00    -0.214 NA
BRANCH   4   3
ATOM      1  C   UNL     1       5.222  37.874  14.931  0.00  0.00    +0.020 A 
ATOM      2  C   UNL     1       5.296  37.332  16.268  0.00  0.00    +0.013 A 
ATOM      3  C   UNL     1       5.354  38.213  17.428  0.00  0.00    +0.019 A 
ATOM     38  C   UNL     1       5.334  39.650  17.198  0.00  0.00    +0.120 A 
ATOM     39  N   UNL     1       5.265  40.143  15.899  0.00  0.00    -0.263 NA
ATOM     40  C   UNL     1       5.210  39.305  14.775  0.00  0.00    +0.111 A 
ENDBRANCH   4   3
ENDBRANCH  10   9
BRANCH  12  13
ATOM     13  N   UNL     1       2.851  34.356  25.068  0.00  0.00    -0.281 N 
ATOM     14  C   UNL     1       3.761  33.595  25.782  0.00  0.00    +0.248 C 
ATOM     30  O   UNL     1       4.901  33.948  26.045  0.00  0.00    -0.270 OA
ATOM     31  H   UNL     1       2.011  33.871  24.752  0.00  0.00    +0.155 HD
BRANCH  14  15
ATOM     15  C   UNL     1       3.350  32.241  26.262  0.00  0.00    +0.037 A 
ATOM     16  C   UNL     1       2.185  31.555  25.697  0.00  0.00    +0.013 A 
ATOM     17  C   UNL     1       1.801  30.256  26.190  0.00  0.00    +0.005 A 
ATOM     18  C   UNL     1       2.584  29.634  27.254  0.00  0.00    -0.033 A 
ATOM     28  C   UNL     1       3.738  30.333  27.793  0.00  0.00    +0.005 A 
ATOM     29  C   UNL     1       4.117  31.607  27.314  0.00  0.00    +0.013 A 
BRANCH  18  19
ATOM     19  C   UNL     1       2.234  28.259  27.856  0.00  0.00    +0.119 C 
BRANCH  19  20
ATOM     20  N   UNL     1       2.404  27.065  26.976  0.00  0.00    -0.302 NA
ATOM     21  C   UNL     1       1.362  25.982  27.269  0.00  0.00    +0.066 C 
ATOM     22  C   UNL     1       1.540  24.749  26.325  0.00  0.00    -0.064 C 
ATOM     23  N   UNL     1       2.957  24.193  26.479  0.00  0.00    +0.379 N 
ATOM     24  C   UNL     1       3.110  22.998  25.636  0.00  0.00    -0.096 C 
ATOM     25  H   UNL     1       3.082  23.876  27.541  0.00  0.00    -0.082 HD
ATOM     26  C   UNL     1       4.000  25.264  26.192  0.00  0.00    -0.064 C 
ATOM     27  C   UNL     1       3.795  26.497  27.116  0.00  0.00    +0.066 C 
ENDBRANCH  19  20
ENDBRANCH  18  19
ENDBRANCH  14  15
ENDBRANCH  12  13
TORSDOF 6
ENDMDL
MODEL 5
REMARK VINA RESULT:      -8.2      1.815      2.492
REMARK  Name = C:\Users\Docking\Desktop\test protocol\1iep_ligandH.pdb
REMARK  8 active torsions:
REMARK  status: ('A' for Active; 'I' for Inactive)
REMARK    1  A    between atoms: _5  and  _11
REMARK    2  A    between atoms: _19  and  _21
REMARK    3  A    between atoms: _22  and  _66
REMARK    4  A    between atoms: _27  and  _30
REMARK    5  A    between atoms: _32  and  _33
REMARK    6  A    between atoms: _38  and  _43
REMARK    7  A    between atoms: _43  and  _46
REMARK    8  A    between atoms: _53  and  _55
REMARK                            x       y       z     vdW  Elec       q    Type
REMARK                         _______ _______ _______ _____ _____    ______ ____
ROOT
ATOM     10  C   UNL     1       9.121  26.329  19.837  0.00  0.00    +0.038 A 
ATOM     11  C   UNL     1      10.424  26.016  19.374  0.00  0.00    +0.047 A 
ATOM     12  C   UNL     1      10.946  24.660  19.455  0.00  0.00    +0.035 A 
ATOM     32  C   UNL     1      10.111  23.647  20.011  0.00  0.00    +0.024 A 
ATOM     33  C   UNL     1       8.784  23.949  20.487  0.00  0.00    +0.007 A 
ATOM     34  C   UNL     1       8.265  25.285  20.412  0.00  0.00    -0.029 A 
ATOM     35  C   UNL     1       6.838  25.552  20.944  0.00  0.00    +0.045 C 
ENDROOT
BRANCH  10   9
ATOM      4  C   UNL     1       8.270  30.667  21.706  0.00  0.00    +0.077 A 
ATOM      5  C   UNL     1       8.735  30.266  23.002  0.00  0.00    +0.048 A 
ATOM      6  C   UNL     1       9.179  28.932  23.148  0.00  0.00    +0.116 A 
ATOM      7  N   UNL     1       9.154  28.073  22.070  0.00  0.00    -0.223 NA
ATOM      8  C   UNL     1       8.697  28.492  20.834  0.00  0.00    +0.220 A 
ATOM      9  N   UNL     1       8.671  27.648  19.735  0.00  0.00    -0.283 N 
ATOM     36  H   UNL     1       8.320  27.993  18.842  0.00  0.00    +0.155 HD
ATOM     37  N   UNL     1       8.267  29.761  20.670  0.00  0.00    -0.214 NA
BRANCH   4   3
ATOM      1  C   UNL     1       6.295  34.042  21.833  0.00  0.00    +0.020 A 
ATOM      2  C   UNL     1       6.739  32.711  22.177  0.00  0.00    +0.013 A 
ATOM      3  C   UNL     1       7.772  32.045  21.394  0.00  0.00    +0.019 A 
ATOM     38  C   UNL     1       8.340  32.759  20.260  0.00  0.00    +0.120 A 
ATOM     39  N   UNL     1       7.891  34.039  19.952  0.00  0.00    -0.263 NA
ATOM     40  C   UNL     1       6.897  34.689  20.697  0.00  0.00    +0.111 A 
ENDBRANCH   4   3
ENDBRANCH  10   9
BRANCH  12  13
ATOM     13  N   UNL     1      12.264  24.283  19.008  0.00  0.00    -0.281 N 
ATOM     14  C   UNL     1      12.623  23.715  17.797  0.00  0.00    +0.248 C 
ATOM     30  O   UNL     1      11.832  23.245  16.993  0.00  0.00    -0.270 OA
ATOM     31  H   UNL     1      13.025  24.457  19.665  0.00  0.00    +0.155 HD
BRANCH  14  15
ATOM     15  C   UNL     1      14.071  23.646  17.432  0.00  0.00    +0.037 A 
ATOM     16  C   UNL     1      14.496  23.459  16.043  0.00  0.00    +0.013 A 
ATOM     17  C   UNL     1      15.899  23.379  15.721  0.00  0.00    +0.005 A 
ATOM     18  C   UNL     1      16.887  23.486  16.792  0.00  0.00    -0.033 A 
ATOM     28  C   UNL     1      16.437  23.676  18.161  0.00  0.00    +0.005 A 
ATOM     29  C   UNL     1      15.063  23.754  18.481  0.00  0.00    +0.013 A 
BRANCH  18  19
ATOM     19  C   UNL     1      18.404  23.390  16.544  0.00  0.00    +0.119 C 
BRANCH  19  20
ATOM     20  N   UNL     1      19.075  24.581  15.943  0.00  0.00    -0.302 NA
ATOM     21  C   UNL     1      19.974  24.200  14.763  0.00  0.00    +0.066 C 
ATOM     22  C   UNL     1      20.651  25.460  14.133  0.00  0.00    -0.064 C 
ATOM     23  N   UNL     1      21.451  26.198  15.207  0.00  0.00    +0.379 N 
ATOM     24  C   UNL     1      22.135  27.351  14.605  0.00  0.00    -0.096 C 
ATOM     25  H   UNL     1      22.234  25.499  15.585  0.00  0.00    -0.082 HD
ATOM     26  C   UNL     1      20.565  26.578  16.385  0.00  0.00    -0.064 C 
ATOM     27  C   UNL     1      19.875  25.322  16.986  0.00  0.00    +0.066 C 
ENDBRANCH  19  20
ENDBRANCH  18  19
ENDBRANCH  14  15
ENDBRANCH  12  13
TORSDOF 6
ENDMDL
