MODEL 1
REMARK VINA RESULT:     -12.6      0.000      0.000
REMARK  Name = C:\Users\Docking\Desktop\test protocol\1iep_ligandH.pdb
REMARK  8 active torsions:
REMARK  status: ('A' for Active; 'I' for Inactive)
REMARK    1  A    between atoms: _5  and  _11
REMARK    2  A    between atoms: _19  and  _21
REMARK    3  A    between atoms: _22  and  _66
REMARK    4  A    between atoms: _27  and  _30
REMARK    5  A    between atoms: _32  and  _33
REMARK    6  A    between atoms: _38  and  _43
REMARK    7  A    between atoms: _43  and  _46
REMARK    8  A    between atoms: _53  and  _55
REMARK                            x       y       z     vdW  Elec       q    Type
REMARK                         _______ _______ _______ _____ _____    ______ ____
ROOT
ATOM     10  C   UNL     1      21.236  25.047  18.287  0.00  0.00    +0.038 A 
ATOM     11  C   UNL     1      20.442  24.345  19.229  0.00  0.00    +0.047 A 
ATOM     12  C   UNL     1      21.043  23.421  20.179  0.00  0.00    +0.035 A 
ATOM     32  C   UNL     1      22.456  23.239  20.143  0.00  0.00    +0.024 A 
ATOM     33  C   UNL     1      23.278  23.944  19.191  0.00  0.00    +0.007 A 
ATOM     34  C   UNL     1      22.691  24.855  18.250  0.00  0.00    -0.029 A 
ATOM     35  C   UNL     1      23.620  25.579  17.248  0.00  0.00    +0.045 C 
ENDROOT
BRANCH  10   9
ATOM      4  C   UNL     1      19.374  26.101  13.990  0.00  0.00    +0.077 A 
ATOM      5  C   UNL     1      19.707  24.809  13.463  0.00  0.00    +0.048 A 
ATOM      6  C   UNL     1      20.363  23.904  14.328  0.00  0.00    +0.116 A 
ATOM      7  N   UNL     1      20.659  24.276  15.622  0.00  0.00    -0.223 NA
ATOM      8  C   UNL     1      20.326  25.530  16.098  0.00  0.00    +0.220 A 
ATOM      9  N   UNL     1      20.607  25.922  17.398  0.00  0.00    -0.283 N 
ATOM     36  H   UNL     1      20.351  26.859  17.709  0.00  0.00    +0.155 HD
ATOM     37  N   UNL     1      19.700  26.412  15.291  0.00  0.00    -0.214 NA
BRANCH   4   3
ATOM      1  C   UNL     1      16.931  27.945  11.555  0.00  0.00    +0.020 A 
ATOM      2  C   UNL     1      17.571  26.881  12.294  0.00  0.00    +0.013 A 
ATOM      3  C   UNL     1      18.676  27.164  13.200  0.00  0.00    +0.019 A 
ATOM     38  C   UNL     1      19.114  28.545  13.338  0.00  0.00    +0.120 A 
ATOM     39  N   UNL     1      18.480  29.549  12.612  0.00  0.00    -0.263 NA
ATOM     40  C   UNL     1      17.416  29.288  11.735  0.00  0.00    +0.111 A 
ENDBRANCH   4   3
ENDBRANCH  10   9
BRANCH  12  13
ATOM     13  N   UNL     1      20.286  22.674  21.153  0.00  0.00    -0.281 N 
ATOM     14  C   UNL     1      20.608  22.434  22.479  0.00  0.00    +0.248 C 
ATOM     30  O   UNL     1      21.705  22.647  22.974  0.00  0.00    -0.270 OA
ATOM     31  H   UNL     1      19.408  22.273  20.825  0.00  0.00    +0.155 HD
BRANCH  14  15
ATOM     15  C   UNL     1      19.564  21.861  23.383  0.00  0.00    +0.037 A 
ATOM     16  C   UNL     1      18.524  20.965  22.870  0.00  0.00    +0.013 A 
ATOM     17  C   UNL     1      17.519  20.440  23.761  0.00  0.00    +0.005 A 
ATOM     18  C   UNL     1      17.551  20.808  25.174  0.00  0.00    -0.033 A 
ATOM     28  C   UNL     1      18.597  21.695  25.656  0.00  0.00    +0.005 A 
ATOM     29  C   UNL     1      19.583  22.212  24.787  0.00  0.00    +0.013 A 
BRANCH  18  19
ATOM     19  C   UNL     1      16.507  20.312  26.191  0.00  0.00    +0.119 C 
BRANCH  19  20
ATOM     20  N   UNL     1      16.986  20.020  27.575  0.00  0.00    -0.302 NA
ATOM     21  C   UNL     1      17.689  18.663  27.666  0.00  0.00    +0.066 C 
ATOM     22  C   UNL     1      18.204  18.384  29.116  0.00  0.00    -0.064 C 
ATOM     23  N   UNL     1      17.028  18.451  30.093  0.00  0.00    +0.379 N 
ATOM     24  C   UNL     1      17.499  18.132  31.449  0.00  0.00    -0.096 C 
ATOM     25  H   UNL     1      16.296  17.665  29.795  0.00  0.00    -0.082 HD
ATOM     26  C   UNL     1      16.322  19.797  30.007  0.00  0.00    -0.064 C 
ATOM     27  C   UNL     1      15.841  20.077  28.556  0.00  0.00    +0.066 C 
ENDBRANCH  19  20
ENDBRANCH  18  19
ENDBRANCH  14  15
ENDBRANCH  12  13
TORSDOF 6
ENDMDL
MODEL 2
REMARK VINA RESULT:     -12.6      1.533      2.051
REMARK  Name = C:\Users\Docking\Desktop\test protocol\1iep_ligandH.pdb
REMARK  8 active torsions:
REMARK  status: ('A' for Active; 'I' for Inactive)
REMARK    1  A    between atoms: _5  and  _11
REMARK    2  A    between atoms: _19  and  _21
REMARK    3  A    between atoms: _22  and  _66
REMARK    4  A    between atoms: _27  and  _30
REMARK    5  A    between atoms: _32  and  _33
REMARK    6  A    between atoms: _38  and  _43
REMARK    7  A    between atoms: _43  and  _46
REMARK    8  A    between atoms: _53  and  _55
REMARK                            x       y       z     vdW  Elec       q    Type
REMARK                         _______ _______ _______ _____ _____    ______ ____
ROOT
ATOM     10  C   UNL     1      21.380  24.742  19.889  0.00  0.00    +0.038 A 
ATOM     11  C   UNL     1      20.315  24.164  20.626  0.00  0.00    +0.047 A 
ATOM     12  C   UNL     1      20.572  23.301  21.768  0.00  0.00    +0.035 A 
ATOM     32  C   UNL     1      21.927  23.049  22.134  0.00  0.00    +0.024 A 
ATOM     33  C   UNL     1      23.022  23.627  21.395  0.00  0.00    +0.007 A 
ATOM     34  C   UNL     1      22.774  24.478  20.266  0.00  0.00    -0.029 A 
ATOM     35  C   UNL     1      23.987  25.066  19.507  0.00  0.00    +0.045 C 
ENDROOT
BRANCH  10   9
ATOM      4  C   UNL     1      20.249  25.406  15.272  0.00  0.00    +0.077 A 
ATOM      5  C   UNL     1      20.294  23.999  14.998  0.00  0.00    +0.048 A 
ATOM      6  C   UNL     1      20.619  23.139  16.070  0.00  0.00    +0.116 A 
ATOM      7  N   UNL     1      20.878  23.658  17.320  0.00  0.00    -0.223 NA
ATOM      8  C   UNL     1      20.827  25.020  17.551  0.00  0.00    +0.220 A 
ATOM      9  N   UNL     1      21.076  25.564  18.802  0.00  0.00    -0.283 N 
ATOM     36  H   UNL     1      21.036  26.575  18.929  0.00  0.00    +0.155 HD
ATOM     37  N   UNL     1      20.521  25.863  16.543  0.00  0.00    -0.214 NA
BRANCH   4   3
ATOM      1  C   UNL     1      18.495  28.318  13.338  0.00  0.00    +0.020 A 
ATOM      2  C   UNL     1      18.771  27.335  14.359  0.00  0.00    +0.013 A 
ATOM      3  C   UNL     1      19.917  26.442  14.244  0.00  0.00    +0.019 A 
ATOM     38  C   UNL     1      20.772  26.573  13.073  0.00  0.00    +0.120 A 
ATOM     39  N   UNL     1      20.481  27.528  12.105  0.00  0.00    -0.263 NA
ATOM     40  C   UNL     1      19.379  28.392  12.205  0.00  0.00    +0.111 A 
ENDBRANCH   4   3
ENDBRANCH  10   9
BRANCH  12  13
ATOM     13  N   UNL     1      19.532  22.679  22.550  0.00  0.00    -0.281 N 
ATOM     14  C   UNL     1      19.672  21.764  23.580  0.00  0.00    +0.248 C 
ATOM     30  O   UNL     1      20.710  21.176  23.846  0.00  0.00    -0.270 OA
ATOM     31  H   UNL     1      18.576  22.947  22.315  0.00  0.00    +0.155 HD
BRANCH  14  15
ATOM     15  C   UNL     1      18.484  21.445  24.429  0.00  0.00    +0.037 A 
ATOM     16  C   UNL     1      17.685  22.506  25.048  0.00  0.00    +0.013 A 
ATOM     17  C   UNL     1      16.555  22.171  25.877  0.00  0.00    +0.005 A 
ATOM     18  C   UNL     1      16.215  20.766  26.090  0.00  0.00    -0.033 A 
ATOM     28  C   UNL     1      17.020  19.734  25.459  0.00  0.00    +0.005 A 
ATOM     29  C   UNL     1      18.130  20.059  24.648  0.00  0.00    +0.013 A 
BRANCH  18  19
ATOM     19  C   UNL     1      15.038  20.315  26.975  0.00  0.00    +0.119 C 
BRANCH  19  20
ATOM     20  N   UNL     1      15.282  20.232  28.446  0.00  0.00    -0.302 NA
ATOM     21  C   UNL     1      16.478  19.337  28.780  0.00  0.00    +0.066 C 
ATOM     22  C   UNL     1      16.733  19.279  30.322  0.00  0.00    -0.064 C 
ATOM     23  N   UNL     1      15.470  18.781  31.027  0.00  0.00    +0.379 N 
ATOM     24  C   UNL     1      15.725  18.671  32.470  0.00  0.00    -0.096 C 
ATOM     25  H   UNL     1      15.250  17.758  30.642  0.00  0.00    -0.082 HD
ATOM     26  C   UNL     1      14.275  19.664  30.698  0.00  0.00    -0.064 C 
ATOM     27  C   UNL     1      14.049  19.738  29.162  0.00  0.00    +0.066 C 
ENDBRANCH  19  20
ENDBRANCH  18  19
ENDBRANCH  14  15
ENDBRANCH  12  13
TORSDOF 6
ENDMDL
MODEL 3
REMARK VINA RESULT:     -12.3      3.064     14.059
REMARK  Name = C:\Users\Docking\Desktop\test protocol\1iep_ligandH.pdb
REMARK  8 active torsions:
REMARK  status: ('A' for Active; 'I' for Inactive)
REMARK    1  A    between atoms: _5  and  _11
REMARK    2  A    between atoms: _19  and  _21
REMARK    3  A    between atoms: _22  and  _66
REMARK    4  A    between atoms: _27  and  _30
REMARK    5  A    between atoms: _32  and  _33
REMARK    6  A    between atoms: _38  and  _43
REMARK    7  A    between atoms: _43  and  _46
REMARK    8  A    between atoms: _53  and  _55
REMARK                            x       y       z     vdW  Elec       q    Type
REMARK                         _______ _______ _______ _____ _____    ______ ____
ROOT
ATOM     10  C   UNL     1      20.530  23.455  17.980  0.00  0.00    +0.038 A 
ATOM     11  C   UNL     1      20.088  24.698  17.459  0.00  0.00    +0.047 A 
ATOM     12  C   UNL     1      20.702  25.278  16.274  0.00  0.00    +0.035 A 
ATOM     32  C   UNL     1      21.761  24.562  15.643  0.00  0.00    +0.024 A 
ATOM     33  C   UNL     1      22.223  23.298  16.160  0.00  0.00    +0.007 A 
ATOM     34  C   UNL     1      21.623  22.723  17.331  0.00  0.00    -0.029 A 
ATOM     35  C   UNL     1      22.164  21.368  17.844  0.00  0.00    +0.045 C 
ENDROOT
BRANCH  10   9
ATOM      4  C   UNL     1      20.475  22.400  22.662  0.00  0.00    +0.077 A 
ATOM      5  C   UNL     1      21.814  22.881  22.847  0.00  0.00    +0.048 A 
ATOM      6  C   UNL     1      22.485  23.385  21.710  0.00  0.00    +0.116 A 
ATOM      7  N   UNL     1      21.854  23.403  20.485  0.00  0.00    -0.223 NA
ATOM      8  C   UNL     1      20.562  22.930  20.342  0.00  0.00    +0.220 A 
ATOM      9  N   UNL     1      19.905  22.945  19.121  0.00  0.00    -0.283 N 
ATOM     36  H   UNL     1      18.955  22.581  19.055  0.00  0.00    +0.155 HD
ATOM     37  N   UNL     1      19.901  22.442  21.412  0.00  0.00    -0.214 NA
BRANCH   4   3
ATOM      1  C   UNL     1      17.500  21.705  25.105  0.00  0.00    +0.020 A 
ATOM      2  C   UNL     1      18.269  22.278  24.024  0.00  0.00    +0.013 A 
ATOM      3  C   UNL     1      19.635  21.840  23.768  0.00  0.00    +0.019 A 
ATOM     38  C   UNL     1      20.198  20.812  24.630  0.00  0.00    +0.120 A 
ATOM     39  N   UNL     1      19.434  20.279  25.664  0.00  0.00    -0.263 NA
ATOM     40  C   UNL     1      18.119  20.694  25.921  0.00  0.00    +0.111 A 
ENDBRANCH   4   3
ENDBRANCH  10   9
BRANCH  12  13
ATOM     13  N   UNL     1      20.301  26.540  15.704  0.00  0.00    -0.281 N 
ATOM     14  C   UNL     1      19.738  26.772  14.459  0.00  0.00    +0.248 C 
ATOM     30  O   UNL     1      19.690  25.948  13.558  0.00  0.00    -0.270 OA
ATOM     31  H   UNL     1      20.451  27.362  16.288  0.00  0.00    +0.155 HD
BRANCH  14  15
ATOM     15  C   UNL     1      19.157  28.118  14.169  0.00  0.00    +0.037 A 
ATOM     16  C   UNL     1      19.629  29.316  14.869  0.00  0.00    +0.013 A 
ATOM     17  C   UNL     1      19.040  30.600  14.582  0.00  0.00    +0.005 A 
ATOM     18  C   UNL     1      17.973  30.692  13.589  0.00  0.00    -0.033 A 
ATOM     28  C   UNL     1      17.528  29.489  12.906  0.00  0.00    +0.005 A 
ATOM     29  C   UNL     1      18.102  28.229  13.185  0.00  0.00    +0.013 A 
BRANCH  18  19
ATOM     19  C   UNL     1      17.272  32.018  13.235  0.00  0.00    +0.119 C 
BRANCH  19  20
ATOM     20  N   UNL     1      17.039  32.302  11.787  0.00  0.00    -0.302 NA
ATOM     21  C   UNL     1      18.351  32.422  11.007  0.00  0.00    +0.066 C 
ATOM     22  C   UNL     1      18.088  32.698   9.490  0.00  0.00    -0.064 C 
ATOM     23  N   UNL     1      17.252  33.971   9.344  0.00  0.00    +0.379 N 
ATOM     24  C   UNL     1      17.052  34.264   7.917  0.00  0.00    -0.096 C 
ATOM     25  H   UNL     1      17.837  34.811   9.784  0.00  0.00    -0.082 HD
ATOM     26  C   UNL     1      15.947  33.861  10.119  0.00  0.00    -0.064 C 
ATOM     27  C   UNL     1      16.219  33.558  11.619  0.00  0.00    +0.066 C 
ENDBRANCH  19  20
ENDBRANCH  18  19
ENDBRANCH  14  15
ENDBRANCH  12  13
TORSDOF 6
ENDMDL
MODEL 4
REMARK VINA RESULT:     -12.2      3.826     13.010
REMARK  Name = C:\Users\Docking\Desktop\test protocol\1iep_ligandH.pdb
REMARK  8 active torsions:
REMARK  status: ('A' for Active; 'I' for Inactive)
REMARK    1  A    between atoms: _5  and  _11
REMARK    2  A    between atoms: _19  and  _21
REMARK    3  A    between atoms: _22  and  _66
REMARK    4  A    between atoms: _27  and  _30
REMARK    5  A    between atoms: _32  and  _33
REMARK    6  A    between atoms: _38  and  _43
REMARK    7  A    between atoms: _43  and  _46
REMARK    8  A    between atoms: _53  and  _55
REMARK                            x       y       z     vdW  Elec       q    Type
REMARK                         _______ _______ _______ _____ _____    ______ ____
ROOT
ATOM     10  C   UNL     1      20.538  23.429  17.999  0.00  0.00    +0.038 A 
ATOM     11  C   UNL     1      20.186  24.720  17.530  0.00  0.00    +0.047 A 
ATOM     12  C   UNL     1      20.817  25.289  16.349  0.00  0.00    +0.035 A 
ATOM     32  C   UNL     1      21.801  24.513  15.669  0.00  0.00    +0.024 A 
ATOM     33  C   UNL     1      22.171  23.199  16.133  0.00  0.00    +0.007 A 
ATOM     34  C   UNL     1      21.554  22.634  17.298  0.00  0.00    -0.029 A 
ATOM     35  C   UNL     1      21.995  21.224  17.754  0.00  0.00    +0.045 C 
ENDROOT
BRANCH  10   9
ATOM      4  C   UNL     1      20.449  22.377  22.682  0.00  0.00    +0.077 A 
ATOM      5  C   UNL     1      21.796  22.833  22.870  0.00  0.00    +0.048 A 
ATOM      6  C   UNL     1      22.480  23.323  21.735  0.00  0.00    +0.116 A 
ATOM      7  N   UNL     1      21.853  23.352  20.508  0.00  0.00    -0.223 NA
ATOM      8  C   UNL     1      20.553  22.904  20.361  0.00  0.00    +0.220 A 
ATOM      9  N   UNL     1      19.900  22.931  19.138  0.00  0.00    -0.283 N 
ATOM     36  H   UNL     1      18.944  22.585  19.069  0.00  0.00    +0.155 HD
ATOM     37  N   UNL     1      19.879  22.429  21.429  0.00  0.00    -0.214 NA
BRANCH   4   3
ATOM      1  C   UNL     1      17.446  21.724  25.102  0.00  0.00    +0.020 A 
ATOM      2  C   UNL     1      18.228  22.282  24.022  0.00  0.00    +0.013 A 
ATOM      3  C   UNL     1      19.595  21.834  23.785  0.00  0.00    +0.019 A 
ATOM     38  C   UNL     1      20.144  20.813  24.664  0.00  0.00    +0.120 A 
ATOM     39  N   UNL     1      19.368  20.296  25.696  0.00  0.00    -0.263 NA
ATOM     40  C   UNL     1      18.052  20.720  25.935  0.00  0.00    +0.111 A 
ENDBRANCH   4   3
ENDBRANCH  10   9
BRANCH  12  13
ATOM     13  N   UNL     1      20.507  26.598  15.830  0.00  0.00    -0.281 N 
ATOM     14  C   UNL     1      19.783  26.913  14.692  0.00  0.00    +0.248 C 
ATOM     30  O   UNL     1      19.472  26.109  13.826  0.00  0.00    -0.270 OA
ATOM     31  H   UNL     1      20.864  27.388  16.367  0.00  0.00    +0.155 HD
BRANCH  14  15
ATOM     15  C   UNL     1      19.355  28.329  14.477  0.00  0.00    +0.037 A 
ATOM     16  C   UNL     1      20.108  29.446  15.054  0.00  0.00    +0.013 A 
ATOM     17  C   UNL     1      19.663  30.801  14.846  0.00  0.00    +0.005 A 
ATOM     18  C   UNL     1      18.459  31.047  14.056  0.00  0.00    -0.033 A 
ATOM     28  C   UNL     1      17.734  29.920  13.491  0.00  0.00    +0.005 A 
ATOM     29  C   UNL     1      18.166  28.591  13.694  0.00  0.00    +0.013 A 
BRANCH  18  19
ATOM     19  C   UNL     1      17.900  32.459  13.800  0.00  0.00    +0.119 C 
BRANCH  19  20
ATOM     20  N   UNL     1      17.464  33.248  14.991  0.00  0.00    -0.302 NA
ATOM     21  C   UNL     1      16.473  34.353  14.617  0.00  0.00    +0.066 C 
ATOM     22  C   UNL     1      16.010  35.154  15.878  0.00  0.00    -0.064 C 
ATOM     23  N   UNL     1      17.234  35.740  16.584  0.00  0.00    +0.379 N 
ATOM     24  C   UNL     1      16.798  36.541  17.737  0.00  0.00    -0.096 C 
ATOM     25  H   UNL     1      17.741  36.426  15.867  0.00  0.00    -0.082 HD
ATOM     26  C   UNL     1      18.226  34.647  16.957  0.00  0.00    -0.064 C 
ATOM     27  C   UNL     1      18.657  33.839  15.701  0.00  0.00    +0.066 C 
ENDBRANCH  19  20
ENDBRANCH  18  19
ENDBRANCH  14  15
ENDBRANCH  12  13
TORSDOF 6
ENDMDL
MODEL 5
REMARK VINA RESULT:     -12.2     11.468     13.065
REMARK  Name = C:\Users\Docking\Desktop\test protocol\1iep_ligandH.pdb
REMARK  8 active torsions:
REMARK  status: ('A' for Active; 'I' for Inactive)
REMARK    1  A    between atoms: _5  and  _11
REMARK    2  A    between atoms: _19  and  _21
REMARK    3  A    between atoms: _22  and  _66
REMARK    4  A    between atoms: _27  and  _30
REMARK    5  A    between atoms: _32  and  _33
REMARK    6  A    between atoms: _38  and  _43
REMARK    7  A    between atoms: _43  and  _46
REMARK    8  A    between atoms: _53  and  _55
REMARK                            x       y       z     vdW  Elec       q    Type
REMARK                         _______ _______ _______ _____ _____    ______ ____
ROOT
ATOM     10  C   UNL     1      18.305  29.347  11.226  0.00  0.00    +0.038 A 
ATOM     11  C   UNL     1      17.575  28.131  11.205  0.00  0.00    +0.047 A 
ATOM     12  C   UNL     1      17.583  27.268  10.034  0.00  0.00    +0.035 A 
ATOM     32  C   UNL     1      18.349  27.673   8.902  0.00  0.00    +0.024 A 
ATOM     33  C   UNL     1      19.096  28.906   8.905  0.00  0.00    +0.007 A 
ATOM     34  C   UNL     1      19.089  29.763  10.057  0.00  0.00    -0.029 A 
ATOM     35  C   UNL     1      19.904  31.076  10.002  0.00  0.00    +0.045 C 
ENDROOT
BRANCH  10   9
ATOM      4  C   UNL     1      16.399  32.869  13.872  0.00  0.00    +0.077 A 
ATOM      5  C   UNL     1      15.425  33.178  12.866  0.00  0.00    +0.048 A 
ATOM      6  C   UNL     1      15.453  32.412  11.679  0.00  0.00    +0.116 A 
ATOM      7  N   UNL     1      16.389  31.414  11.521  0.00  0.00    -0.223 NA
ATOM      8  C   UNL     1      17.316  31.142  12.511  0.00  0.00    +0.220 A 
ATOM      9  N   UNL     1      18.261  30.137  12.376  0.00  0.00    -0.283 N 
ATOM     36  H   UNL     1      18.932  29.973  13.126  0.00  0.00    +0.155 HD
ATOM     37  N   UNL     1      17.311  31.860  13.653  0.00  0.00    -0.214 NA
BRANCH   4   3
ATOM      1  C   UNL     1      15.630  35.203  16.915  0.00  0.00    +0.020 A 
ATOM      2  C   UNL     1      15.490  34.537  15.641  0.00  0.00    +0.013 A 
ATOM      3  C   UNL     1      16.496  33.587  15.182  0.00  0.00    +0.019 A 
ATOM     38  C   UNL     1      17.640  33.331  16.044  0.00  0.00    +0.120 A 
ATOM     39  N   UNL     1      17.750  33.989  17.265  0.00  0.00    -0.263 NA
ATOM     40  C   UNL     1      16.789  34.906  17.716  0.00  0.00    +0.111 A 
ENDBRANCH   4   3
ENDBRANCH  10   9
BRANCH  12  13
ATOM     13  N   UNL     1      16.855  26.027   9.952  0.00  0.00    -0.281 N 
ATOM     14  C   UNL     1      17.257  24.773  10.384  0.00  0.00    +0.248 C 
ATOM     30  O   UNL     1      18.398  24.490  10.715  0.00  0.00    -0.270 OA
ATOM     31  H   UNL     1      15.930  26.078   9.524  0.00  0.00    +0.155 HD
BRANCH  14  15
ATOM     15  C   UNL     1      16.248  23.672  10.443  0.00  0.00    +0.037 A 
ATOM     16  C   UNL     1      15.434  23.324   9.275  0.00  0.00    +0.013 A 
ATOM     17  C   UNL     1      14.456  22.268   9.364  0.00  0.00    +0.005 A 
ATOM     18  C   UNL     1      14.289  21.552  10.626  0.00  0.00    -0.033 A 
ATOM     28  C   UNL     1      15.113  21.914  11.767  0.00  0.00    +0.005 A 
ATOM     29  C   UNL     1      16.072  22.949  11.684  0.00  0.00    +0.013 A 
BRANCH  18  19
ATOM     19  C   UNL     1      13.255  20.426  10.818  0.00  0.00    +0.119 C 
BRANCH  19  20
ATOM     20  N   UNL     1      11.823  20.761  10.560  0.00  0.00    -0.302 NA
ATOM     21  C   UNL     1      11.349  21.947  11.405  0.00  0.00    +0.066 C 
ATOM     22  C   UNL     1       9.856  22.299  11.106  0.00  0.00    -0.064 C 
ATOM     23  N   UNL     1       8.984  21.068  11.362  0.00  0.00    +0.379 N 
ATOM     24  C   UNL     1       7.572  21.412  11.138  0.00  0.00    -0.096 C 
ATOM     25  H   UNL     1       9.098  20.791  12.436  0.00  0.00    -0.082 HD
ATOM     26  C   UNL     1       9.450  19.884  10.527  0.00  0.00    -0.064 C 
ATOM     27  C   UNL     1      10.943  19.561  10.811  0.00  0.00    +0.066 C 
ENDBRANCH  19  20
ENDBRANCH  18  19
ENDBRANCH  14  15
ENDBRANCH  12  13
TORSDOF 6
ENDMDL
