MODEL 1
REMARK VINA RESULT:      -9.1      0.000      0.000
REMARK  Name = C:\Users\Docking\Desktop\test protocol\1iep_ligandH.pdb
REMARK  8 active torsions:
REMARK  status: ('A' for Active; 'I' for Inactive)
REMARK    1  A    between atoms: _5  and  _11
REMARK    2  A    between atoms: _19  and  _21
REMARK    3  A    between atoms: _22  and  _66
REMARK    4  A    between atoms: _27  and  _30
REMARK    5  A    between atoms: _32  and  _33
REMARK    6  A    between atoms: _38  and  _43
REMARK    7  A    between atoms: _43  and  _46
REMARK    8  A    between atoms: _53  and  _55
REMARK                            x       y       z     vdW  Elec       q    Type
REMARK                         _______ _______ _______ _____ _____    ______ ____
ROOT
ATOM     10  C   UNL     1       9.904  27.776  20.794  0.00  0.00    +0.038 A 
ATOM     11  C   UNL     1       9.389  28.908  20.112  0.00  0.00    +0.047 A 
ATOM     12  C   UNL     1       8.500  29.847  20.778  0.00  0.00    +0.035 A 
ATOM     32  C   UNL     1       8.159  29.604  22.141  0.00  0.00    +0.024 A 
ATOM     33  C   UNL     1       8.673  28.458  22.849  0.00  0.00    +0.007 A 
ATOM     34  C   UNL     1       9.548  27.527  22.196  0.00  0.00    -0.029 A 
ATOM     35  C   UNL     1      10.064  26.312  23.001  0.00  0.00    +0.045 C 
ENDROOT
BRANCH  10   9
ATOM      4  C   UNL     1      10.682  24.040  17.883  0.00  0.00    +0.077 A 
ATOM      5  C   UNL     1       9.278  23.780  17.743  0.00  0.00    +0.048 A 
ATOM      6  C   UNL     1       8.389  24.627  18.443  0.00  0.00    +0.116 A 
ATOM      7  N   UNL     1       8.879  25.654  19.221  0.00  0.00    -0.223 NA
ATOM      8  C   UNL     1      10.239  25.875  19.335  0.00  0.00    +0.220 A 
ATOM      9  N   UNL     1      10.754  26.907  20.105  0.00  0.00    -0.283 N 
ATOM     36  H   UNL     1      11.764  27.033  20.170  0.00  0.00    +0.155 HD
ATOM     37  N   UNL     1      11.109  25.080  18.678  0.00  0.00    -0.214 NA
BRANCH   4   3
ATOM      1  C   UNL     1      12.517  21.330  15.740  0.00  0.00    +0.020 A 
ATOM      2  C   UNL     1      11.452  22.073  16.374  0.00  0.00    +0.013 A 
ATOM      3  C   UNL     1      11.746  23.234  17.204  0.00  0.00    +0.019 A 
ATOM     38  C   UNL     1      13.139  23.621  17.374  0.00  0.00    +0.120 A 
ATOM     39  N   UNL     1      14.143  22.885  16.752  0.00  0.00    -0.263 NA
ATOM     40  C   UNL     1      13.873  21.765  15.953  0.00  0.00    +0.111 A 
ENDBRANCH   4   3
ENDBRANCH  10   9
BRANCH  12  13
ATOM     13  N   UNL     1       7.939  31.009  20.135  0.00  0.00    -0.281 N 
ATOM     14  C   UNL     1       7.114  31.975  20.689  0.00  0.00    +0.248 C 
ATOM     30  O   UNL     1       6.558  31.869  21.772  0.00  0.00    -0.270 OA
ATOM     31  H   UNL     1       8.179  31.136  19.152  0.00  0.00    +0.155 HD
BRANCH  14  15
ATOM     15  C   UNL     1       6.860  33.233  19.924  0.00  0.00    +0.037 A 
ATOM     16  C   UNL     1       7.960  33.997  19.331  0.00  0.00    +0.013 A 
ATOM     17  C   UNL     1       7.688  35.217  18.612  0.00  0.00    +0.005 A 
ATOM     18  C   UNL     1       6.308  35.679  18.481  0.00  0.00    -0.033 A 
ATOM     28  C   UNL     1       5.236  34.898  19.075  0.00  0.00    +0.005 A 
ATOM     29  C   UNL     1       5.498  33.703  19.781  0.00  0.00    +0.013 A 
BRANCH  18  19
ATOM     19  C   UNL     1       5.927  36.979  17.749  0.00  0.00    +0.119 C 
BRANCH  19  20
ATOM     20  N   UNL     1       5.754  38.207  18.582  0.00  0.00    -0.302 NA
ATOM     21  C   UNL     1       5.518  37.871  20.058  0.00  0.00    +0.066 C 
ATOM     22  C   UNL     1       5.361  39.167  20.918  0.00  0.00    -0.064 C 
ATOM     23  N   UNL     1       4.209  40.007  20.363  0.00  0.00    +0.379 N 
ATOM     24  C   UNL     1       4.021  41.198  21.205  0.00  0.00    -0.096 C 
ATOM     25  H   UNL     1       3.280  39.395  20.431  0.00  0.00    -0.082 HD
ATOM     26  C   UNL     1       4.434  40.343  18.896  0.00  0.00    -0.064 C 
ATOM     27  C   UNL     1       4.619  39.049  18.055  0.00  0.00    +0.066 C 
ENDBRANCH  19  20
ENDBRANCH  18  19
ENDBRANCH  14  15
ENDBRANCH  12  13
TORSDOF 6
ENDMDL
MODEL 2
REMARK VINA RESULT:      -8.9      1.618      2.342
REMARK  Name = C:\Users\Docking\Desktop\test protocol\1iep_ligandH.pdb
REMARK  8 active torsions:
REMARK  status: ('A' for Active; 'I' for Inactive)
REMARK    1  A    between atoms: _5  and  _11
REMARK    2  A    between atoms: _19  and  _21
REMARK    3  A    between atoms: _22  and  _66
REMARK    4  A    between atoms: _27  and  _30
REMARK    5  A    between atoms: _32  and  _33
REMARK    6  A    between atoms: _38  and  _43
REMARK    7  A    between atoms: _43  and  _46
REMARK    8  A    between atoms: _53  and  _55
REMARK                            x       y       z     vdW  Elec       q    Type
REMARK                         _______ _______ _______ _____ _____    ______ ____
ROOT
ATOM     10  C   UNL     1       9.406  27.371  21.284  0.00  0.00    +0.038 A 
ATOM     11  C   UNL     1       9.015  28.684  20.918  0.00  0.00    +0.047 A 
ATOM     12  C   UNL     1       8.532  29.629  21.912  0.00  0.00    +0.035 A 
ATOM     32  C   UNL     1       8.464  29.205  23.271  0.00  0.00    +0.024 A 
ATOM     33  C   UNL     1       8.857  27.873  23.661  0.00  0.00    +0.007 A 
ATOM     34  C   UNL     1       9.331  26.935  22.684  0.00  0.00    -0.029 A 
ATOM     35  C   UNL     1       9.733  25.519  23.157  0.00  0.00    +0.045 C 
ENDROOT
BRANCH  10   9
ATOM      4  C   UNL     1       8.715  23.849  18.097  0.00  0.00    +0.077 A 
ATOM      5  C   UNL     1       7.337  23.705  18.465  0.00  0.00    +0.048 A 
ATOM      6  C   UNL     1       6.846  24.552  19.485  0.00  0.00    +0.116 A 
ATOM      7  N   UNL     1       7.681  25.470  20.083  0.00  0.00    -0.223 NA
ATOM      8  C   UNL     1       9.006  25.582  19.705  0.00  0.00    +0.220 A 
ATOM      9  N   UNL     1       9.862  26.504  20.288  0.00  0.00    -0.283 N 
ATOM     36  H   UNL     1      10.835  26.550  19.986  0.00  0.00    +0.155 HD
ATOM     37  N   UNL     1       9.499  24.784  18.735  0.00  0.00    -0.214 NA
BRANCH   4   3
ATOM      1  C   UNL     1       9.351  21.697  14.893  0.00  0.00    +0.020 A 
ATOM      2  C   UNL     1       8.662  22.482  15.891  0.00  0.00    +0.013 A 
ATOM      3  C   UNL     1       9.380  23.029  17.035  0.00  0.00    +0.019 A 
ATOM     38  C   UNL     1      10.806  22.762  17.140  0.00  0.00    +0.120 A 
ATOM     39  N   UNL     1      11.443  22.001  16.164  0.00  0.00    -0.263 NA
ATOM     40  C   UNL     1      10.762  21.468  15.060  0.00  0.00    +0.111 A 
ENDBRANCH   4   3
ENDBRANCH  10   9
BRANCH  12  13
ATOM     13  N   UNL     1       8.113  30.973  21.599  0.00  0.00    -0.281 N 
ATOM     14  C   UNL     1       7.295  31.390  20.562  0.00  0.00    +0.248 C 
ATOM     30  O   UNL     1       6.969  30.691  19.615  0.00  0.00    -0.270 OA
ATOM     31  H   UNL     1       8.463  31.706  22.217  0.00  0.00    +0.155 HD
BRANCH  14  15
ATOM     15  C   UNL     1       6.774  32.791  20.572  0.00  0.00    +0.037 A 
ATOM     16  C   UNL     1       5.344  33.069  20.729  0.00  0.00    +0.013 A 
ATOM     17  C   UNL     1       4.866  34.429  20.718  0.00  0.00    +0.005 A 
ATOM     18  C   UNL     1       5.821  35.522  20.551  0.00  0.00    -0.033 A 
ATOM     28  C   UNL     1       7.235  35.218  20.402  0.00  0.00    +0.005 A 
ATOM     29  C   UNL     1       7.706  33.886  20.412  0.00  0.00    +0.013 A 
BRANCH  18  19
ATOM     19  C   UNL     1       5.398  37.003  20.506  0.00  0.00    +0.119 C 
BRANCH  19  20
ATOM     20  N   UNL     1       5.666  37.752  19.242  0.00  0.00    -0.302 NA
ATOM     21  C   UNL     1       5.398  39.252  19.396  0.00  0.00    +0.066 C 
ATOM     22  C   UNL     1       5.706  40.024  18.072  0.00  0.00    -0.064 C 
ATOM     23  N   UNL     1       4.866  39.437  16.936  0.00  0.00    +0.379 N 
ATOM     24  C   UNL     1       5.109  40.199  15.702  0.00  0.00    -0.096 C 
ATOM     25  H   UNL     1       3.792  39.567  17.208  0.00  0.00    -0.082 HD
ATOM     26  C   UNL     1       5.124  37.946  16.778  0.00  0.00    -0.064 C 
ATOM     27  C   UNL     1       4.844  37.192  18.108  0.00  0.00    +0.066 C 
ENDBRANCH  19  20
ENDBRANCH  18  19
ENDBRANCH  14  15
ENDBRANCH  12  13
TORSDOF 6
ENDMDL
MODEL 3
REMARK VINA RESULT:      -8.7      4.135     14.182
REMARK  Name = C:\Users\Docking\Desktop\test protocol\1iep_ligandH.pdb
REMARK  8 active torsions:
REMARK  status: ('A' for Active; 'I' for Inactive)
REMARK    1  A    between atoms: _5  and  _11
REMARK    2  A    between atoms: _19  and  _21
REMARK    3  A    between atoms: _22  and  _66
REMARK    4  A    between atoms: _27  and  _30
REMARK    5  A    between atoms: _32  and  _33
REMARK    6  A    between atoms: _38  and  _43
REMARK    7  A    between atoms: _43  and  _46
REMARK    8  A    between atoms: _53  and  _55
REMARK                            x       y       z     vdW  Elec       q    Type
REMARK                         _______ _______ _______ _____ _____    ______ ____
ROOT
ATOM     10  C   UNL     1       9.254  26.026  18.933  0.00  0.00    +0.038 A 
ATOM     11  C   UNL     1      10.589  25.890  18.475  0.00  0.00    +0.047 A 
ATOM     12  C   UNL     1      11.246  24.592  18.446  0.00  0.00    +0.035 A 
ATOM     32  C   UNL     1      10.512  23.453  18.888  0.00  0.00    +0.024 A 
ATOM     33  C   UNL     1       9.154  23.574  19.358  0.00  0.00    +0.007 A 
ATOM     34  C   UNL     1       8.502  24.852  19.392  0.00  0.00    -0.029 A 
ATOM     35  C   UNL     1       7.048  24.923  19.912  0.00  0.00    +0.045 C 
ENDROOT
BRANCH  10   9
ATOM      4  C   UNL     1       7.989  30.091  21.151  0.00  0.00    +0.077 A 
ATOM      5  C   UNL     1       8.507  29.635  22.409  0.00  0.00    +0.048 A 
ATOM      6  C   UNL     1       9.084  28.346  22.444  0.00  0.00    +0.116 A 
ATOM      7  N   UNL     1       9.135  27.578  21.301  0.00  0.00    -0.223 NA
ATOM      8  C   UNL     1       8.625  28.047  20.104  0.00  0.00    +0.220 A 
ATOM      9  N   UNL     1       8.673  27.296  18.940  0.00  0.00    -0.283 N 
ATOM     36  H   UNL     1       8.279  27.675  18.079  0.00  0.00    +0.155 HD
ATOM     37  N   UNL     1       8.067  29.275  20.045  0.00  0.00    -0.214 NA
BRANCH   4   3
ATOM      1  C   UNL     1       5.741  33.259  21.604  0.00  0.00    +0.020 A 
ATOM      2  C   UNL     1       6.323  31.958  21.840  0.00  0.00    +0.013 A 
ATOM      3  C   UNL     1       7.352  31.431  20.952  0.00  0.00    +0.019 A 
ATOM     38  C   UNL     1       7.773  32.252  19.827  0.00  0.00    +0.120 A 
ATOM     39  N   UNL     1       7.193  33.500  19.624  0.00  0.00    -0.263 NA
ATOM     40  C   UNL     1       6.201  34.017  20.470  0.00  0.00    +0.111 A 
ENDBRANCH   4   3
ENDBRANCH  10   9
BRANCH  12  13
ATOM     13  N   UNL     1      12.602  24.394  17.998  0.00  0.00    -0.281 N 
ATOM     14  C   UNL     1      13.040  23.666  16.903  0.00  0.00    +0.248 C 
ATOM     30  O   UNL     1      12.342  22.895  16.262  0.00  0.00    -0.270 OA
ATOM     31  H   UNL     1      13.328  24.844  18.556  0.00  0.00    +0.155 HD
BRANCH  14  15
ATOM     15  C   UNL     1      14.463  23.805  16.467  0.00  0.00    +0.037 A 
ATOM     16  C   UNL     1      15.552  23.896  17.443  0.00  0.00    +0.013 A 
ATOM     17  C   UNL     1      16.914  24.046  16.995  0.00  0.00    +0.005 A 
ATOM     18  C   UNL     1      17.194  24.104  15.563  0.00  0.00    -0.033 A 
ATOM     28  C   UNL     1      16.096  24.005  14.616  0.00  0.00    +0.005 A 
ATOM     29  C   UNL     1      14.759  23.859  15.051  0.00  0.00    +0.013 A 
BRANCH  18  19
ATOM     19  C   UNL     1      18.615  24.284  14.995  0.00  0.00    +0.119 C 
BRANCH  19  20
ATOM     20  N   UNL     1      19.124  23.222  14.077  0.00  0.00    -0.302 NA
ATOM     21  C   UNL     1      19.230  21.862  14.774  0.00  0.00    +0.066 C 
ATOM     22  C   UNL     1      19.743  20.758  13.793  0.00  0.00    -0.064 C 
ATOM     23  N   UNL     1      21.096  21.179  13.218  0.00  0.00    +0.379 N 
ATOM     24  C   UNL     1      21.608  20.117  12.339  0.00  0.00    -0.096 C 
ATOM     25  H   UNL     1      21.807  21.286  14.070  0.00  0.00    -0.082 HD
ATOM     26  C   UNL     1      21.000  22.532  12.525  0.00  0.00    -0.064 C 
ATOM     27  C   UNL     1      20.462  23.615  13.501  0.00  0.00    +0.066 C 
ENDBRANCH  19  20
ENDBRANCH  18  19
ENDBRANCH  14  15
ENDBRANCH  12  13
TORSDOF 6
ENDMDL
MODEL 4
REMARK VINA RESULT:      -8.7      6.411      8.710
REMARK  Name = C:\Users\Docking\Desktop\test protocol\1iep_ligandH.pdb
REMARK  8 active torsions:
REMARK  status: ('A' for Active; 'I' for Inactive)
REMARK    1  A    between atoms: _5  and  _11
REMARK    2  A    between atoms: _19  and  _21
REMARK    3  A    between atoms: _22  and  _66
REMARK    4  A    between atoms: _27  and  _30
REMARK    5  A    between atoms: _32  and  _33
REMARK    6  A    between atoms: _38  and  _43
REMARK    7  A    between atoms: _43  and  _46
REMARK    8  A    between atoms: _53  and  _55
REMARK                            x       y       z     vdW  Elec       q    Type
REMARK                         _______ _______ _______ _____ _____    ______ ____
ROOT
ATOM     10  C   UNL     1       7.346  32.107  20.522  0.00  0.00    +0.038 A 
ATOM     11  C   UNL     1       6.343  31.861  21.495  0.00  0.00    +0.047 A 
ATOM     12  C   UNL     1       5.597  32.954  22.099  0.00  0.00    +0.035 A 
ATOM     32  C   UNL     1       5.896  34.285  21.686  0.00  0.00    +0.024 A 
ATOM     33  C   UNL     1       6.912  34.553  20.699  0.00  0.00    +0.007 A 
ATOM     34  C   UNL     1       7.654  33.479  20.102  0.00  0.00    -0.029 A 
ATOM     35  C   UNL     1       8.737  33.825  19.054  0.00  0.00    +0.045 C 
ENDROOT
BRANCH  10   9
ATOM      4  C   UNL     1       9.558  27.865  20.917  0.00  0.00    +0.077 A 
ATOM      5  C   UNL     1       9.353  27.824  22.336  0.00  0.00    +0.048 A 
ATOM      6  C   UNL     1       8.680  28.917  22.927  0.00  0.00    +0.116 A 
ATOM      7  N   UNL     1       8.249  29.968  22.147  0.00  0.00    -0.223 NA
ATOM      8  C   UNL     1       8.464  29.977  20.781  0.00  0.00    +0.220 A 
ATOM      9  N   UNL     1       8.032  31.020  19.976  0.00  0.00    -0.283 N 
ATOM     36  H   UNL     1       8.217  30.993  18.973  0.00  0.00    +0.155 HD
ATOM     37  N   UNL     1       9.105  28.946  20.193  0.00  0.00    -0.214 NA
BRANCH   4   3
ATOM      1  C   UNL     1      10.602  25.392  18.072  0.00  0.00    +0.020 A 
ATOM      2  C   UNL     1       9.903  26.445  18.771  0.00  0.00    +0.013 A 
ATOM      3  C   UNL     1      10.249  26.783  20.146  0.00  0.00    +0.019 A 
ATOM     38  C   UNL     1      11.316  26.031  20.789  0.00  0.00    +0.120 A 
ATOM     39  N   UNL     1      11.971  25.021  20.091  0.00  0.00    -0.263 NA
ATOM     40  C   UNL     1      11.645  24.686  18.769  0.00  0.00    +0.111 A 
ENDBRANCH   4   3
ENDBRANCH  10   9
BRANCH  12  13
ATOM     13  N   UNL     1       4.573  32.766  23.097  0.00  0.00    -0.281 N 
ATOM     14  C   UNL     1       4.296  33.567  24.193  0.00  0.00    +0.248 C 
ATOM     30  O   UNL     1       5.028  34.455  24.603  0.00  0.00    -0.270 OA
ATOM     31  H   UNL     1       3.981  31.944  22.981  0.00  0.00    +0.155 HD
BRANCH  14  15
ATOM     15  C   UNL     1       3.029  33.337  24.952  0.00  0.00    +0.037 A 
ATOM     16  C   UNL     1       2.348  34.435  25.644  0.00  0.00    +0.013 A 
ATOM     17  C   UNL     1       1.137  34.183  26.383  0.00  0.00    +0.005 A 
ATOM     18  C   UNL     1       0.598  32.826  26.434  0.00  0.00    -0.033 A 
ATOM     28  C   UNL     1       1.291  31.757  25.735  0.00  0.00    +0.005 A 
ATOM     29  C   UNL     1       2.479  32.000  25.010  0.00  0.00    +0.013 A 
BRANCH  18  19
ATOM     19  C   UNL     1      -0.678  32.462  27.216  0.00  0.00    +0.119 C 
BRANCH  19  20
ATOM     20  N   UNL     1      -0.821  31.046  27.670  0.00  0.00    -0.302 NA
ATOM     21  C   UNL     1      -2.139  30.424  27.202  0.00  0.00    +0.066 C 
ATOM     22  C   UNL     1      -2.262  28.936  27.666  0.00  0.00    -0.064 C 
ATOM     23  N   UNL     1      -2.142  28.868  29.189  0.00  0.00    +0.379 N 
ATOM     24  C   UNL     1      -2.315  27.477  29.634  0.00  0.00    -0.096 C 
ATOM     25  H   UNL     1      -2.976  29.468  29.621  0.00  0.00    -0.082 HD
ATOM     26  C   UNL     1      -0.835  29.488  29.663  0.00  0.00    -0.064 C 
ATOM     27  C   UNL     1      -0.709  30.957  29.172  0.00  0.00    +0.066 C 
ENDBRANCH  19  20
ENDBRANCH  18  19
ENDBRANCH  14  15
ENDBRANCH  12  13
TORSDOF 6
ENDMDL
MODEL 5
REMARK VINA RESULT:      -8.5      6.351     10.148
REMARK  Name = C:\Users\Docking\Desktop\test protocol\1iep_ligandH.pdb
REMARK  8 active torsions:
REMARK  status: ('A' for Active; 'I' for Inactive)
REMARK    1  A    between atoms: _5  and  _11
REMARK    2  A    between atoms: _19  and  _21
REMARK    3  A    between atoms: _22  and  _66
REMARK    4  A    between atoms: _27  and  _30
REMARK    5  A    between atoms: _32  and  _33
REMARK    6  A    between atoms: _38  and  _43
REMARK    7  A    between atoms: _43  and  _46
REMARK    8  A    between atoms: _53  and  _55
REMARK                            x       y       z     vdW  Elec       q    Type
REMARK                         _______ _______ _______ _____ _____    ______ ____
ROOT
ATOM     10  C   UNL     1       5.965  33.252  21.279  0.00  0.00    +0.038 A 
ATOM     11  C   UNL     1       5.648  34.579  20.894  0.00  0.00    +0.047 A 
ATOM     12  C   UNL     1       6.526  35.338  20.016  0.00  0.00    +0.035 A 
ATOM     32  C   UNL     1       7.717  34.712  19.546  0.00  0.00    +0.024 A 
ATOM     33  C   UNL     1       8.055  33.363  19.929  0.00  0.00    +0.007 A 
ATOM     34  C   UNL     1       7.195  32.611  20.797  0.00  0.00    -0.029 A 
ATOM     35  C   UNL     1       7.611  31.172  21.180  0.00  0.00    +0.045 C 
ENDROOT
BRANCH  10   9
ATOM      4  C   UNL     1       3.119  33.031  25.138  0.00  0.00    +0.077 A 
ATOM      5  C   UNL     1       3.429  34.379  25.517  0.00  0.00    +0.048 A 
ATOM      6  C   UNL     1       4.331  35.093  24.696  0.00  0.00    +0.116 A 
ATOM      7  N   UNL     1       4.876  34.493  23.582  0.00  0.00    -0.223 NA
ATOM      8  C   UNL     1       4.557  33.190  23.245  0.00  0.00    +0.220 A 
ATOM      9  N   UNL     1       5.087  32.570  22.125  0.00  0.00    -0.283 N 
ATOM     36  H   UNL     1       4.833  31.605  21.915  0.00  0.00    +0.155 HD
ATOM     37  N   UNL     1       3.700  32.487  24.014  0.00  0.00    -0.214 NA
BRANCH   4   3
ATOM      1  C   UNL     1       0.837  30.034  26.192  0.00  0.00    +0.020 A 
ATOM      2  C   UNL     1       1.744  30.847  25.415  0.00  0.00    +0.013 A 
ATOM      3  C   UNL     1       2.181  32.149  25.902  0.00  0.00    +0.019 A 
ATOM     38  C   UNL     1       1.680  32.602  27.191  0.00  0.00    +0.120 A 
ATOM     39  N   UNL     1       0.806  31.798  27.917  0.00  0.00    -0.263 NA
ATOM     40  C   UNL     1       0.377  30.544  27.457  0.00  0.00    +0.111 A 
ENDBRANCH   4   3
ENDBRANCH  10   9
BRANCH  12  13
ATOM     13  N   UNL     1       6.260  36.692  19.597  0.00  0.00    -0.281 N 
ATOM     14  C   UNL     1       5.697  37.120  18.405  0.00  0.00    +0.248 C 
ATOM     30  O   UNL     1       5.532  36.409  17.425  0.00  0.00    -0.270 OA
ATOM     31  H   UNL     1       6.518  37.423  20.259  0.00  0.00    +0.155 HD
BRANCH  14  15
ATOM     15  C   UNL     1       5.269  38.546  18.280  0.00  0.00    +0.037 A 
ATOM     16  C   UNL     1       5.190  39.204  16.974  0.00  0.00    +0.013 A 
ATOM     17  C   UNL     1       4.790  40.586  16.883  0.00  0.00    +0.005 A 
ATOM     18  C   UNL     1       4.466  41.320  18.104  0.00  0.00    -0.033 A 
ATOM     28  C   UNL     1       4.549  40.641  19.387  0.00  0.00    +0.005 A 
ATOM     29  C   UNL     1       4.941  39.287  19.480  0.00  0.00    +0.013 A 
BRANCH  18  19
ATOM     19  C   UNL     1       4.051  42.803  18.103  0.00  0.00    +0.119 C 
BRANCH  19  20
ATOM     20  N   UNL     1       5.129  43.814  17.890  0.00  0.00    -0.302 NA
ATOM     21  C   UNL     1       5.838  44.183  19.197  0.00  0.00    +0.066 C 
ATOM     22  C   UNL     1       6.977  45.225  18.952  0.00  0.00    -0.064 C 
ATOM     23  N   UNL     1       6.391  46.470  18.283  0.00  0.00    +0.379 N 
ATOM     24  C   UNL     1       7.449  47.475  18.104  0.00  0.00    -0.096 C 
ATOM     25  H   UNL     1       5.630  46.899  18.976  0.00  0.00    -0.082 HD
ATOM     26  C   UNL     1       5.682  46.112  16.985  0.00  0.00    -0.064 C 
ATOM     27  C   UNL     1       4.572  45.054  17.235  0.00  0.00    +0.066 C 
ENDBRANCH  19  20
ENDBRANCH  18  19
ENDBRANCH  14  15
ENDBRANCH  12  13
TORSDOF 6
ENDMDL
