MODEL 1
REMARK VINA RESULT:      -9.1      0.000      0.000
REMARK  Name = C:\Users\Docking\Desktop\test protocol\1iep_ligandH.pdb
REMARK  8 active torsions:
REMARK  status: ('A' for Active; 'I' for Inactive)
REMARK    1  A    between atoms: _5  and  _11
REMARK    2  A    between atoms: _19  and  _21
REMARK    3  A    between atoms: _22  and  _66
REMARK    4  A    between atoms: _27  and  _30
REMARK    5  A    between atoms: _32  and  _33
REMARK    6  A    between atoms: _38  and  _43
REMARK    7  A    between atoms: _43  and  _46
REMARK    8  A    between atoms: _53  and  _55
REMARK                            x       y       z     vdW  Elec       q    Type
REMARK                         _______ _______ _______ _____ _____    ______ ____
ROOT
ATOM     10  C   UNL     1      21.158  24.201  19.868  0.00  0.00    +0.038 A 
ATOM     11  C   UNL     1      20.090  23.639  20.613  0.00  0.00    +0.047 A 
ATOM     12  C   UNL     1      20.316  23.040  21.919  0.00  0.00    +0.035 A 
ATOM     32  C   UNL     1      21.644  23.032  22.438  0.00  0.00    +0.024 A 
ATOM     33  C   UNL     1      22.742  23.598  21.694  0.00  0.00    +0.007 A 
ATOM     34  C   UNL     1      22.525  24.188  20.404  0.00  0.00    -0.029 A 
ATOM     35  C   UNL     1      23.740  24.774  19.648  0.00  0.00    +0.045 C 
ENDROOT
BRANCH  10   9
ATOM      4  C   UNL     1      20.329  23.841  15.154  0.00  0.00    +0.077 A 
ATOM      5  C   UNL     1      20.482  22.415  15.176  0.00  0.00    +0.048 A 
ATOM      6  C   UNL     1      20.781  21.813  16.419  0.00  0.00    +0.116 A 
ATOM      7  N   UNL     1      20.914  22.590  17.550  0.00  0.00    -0.223 NA
ATOM      8  C   UNL     1      20.762  23.963  17.494  0.00  0.00    +0.220 A 
ATOM      9  N   UNL     1      20.884  24.763  18.619  0.00  0.00    -0.283 N 
ATOM     36  H   UNL     1      20.772  25.773  18.535  0.00  0.00    +0.155 HD
ATOM     37  N   UNL     1      20.478  24.562  16.318  0.00  0.00    -0.214 NA
BRANCH   4   3
ATOM      1  C   UNL     1      18.947  24.873  11.643  0.00  0.00    +0.020 A 
ATOM      2  C   UNL     1      19.228  24.076  12.815  0.00  0.00    +0.013 A 
ATOM      3  C   UNL     1      20.009  24.622  13.918  0.00  0.00    +0.019 A 
ATOM     38  C   UNL     1      20.495  25.989  13.802  0.00  0.00    +0.120 A 
ATOM     39  N   UNL     1      20.210  26.732  12.661  0.00  0.00    -0.263 NA
ATOM     40  C   UNL     1      19.460  26.216  11.593  0.00  0.00    +0.111 A 
ENDBRANCH   4   3
ENDBRANCH  10   9
BRANCH  12  13
ATOM     13  N   UNL     1      19.272  22.447  22.717  0.00  0.00    -0.281 N 
ATOM     14  C   UNL     1      19.407  21.560  23.773  0.00  0.00    +0.248 C 
ATOM     30  O   UNL     1      20.441  20.974  24.056  0.00  0.00    -0.270 OA
ATOM     31  H   UNL     1      18.318  22.713  22.474  0.00  0.00    +0.155 HD
BRANCH  14  15
ATOM     15  C   UNL     1      18.217  21.272  24.631  0.00  0.00    +0.037 A 
ATOM     16  C   UNL     1      17.865  19.901  25.006  0.00  0.00    +0.013 A 
ATOM     17  C   UNL     1      16.702  19.650  25.820  0.00  0.00    +0.005 A 
ATOM     18  C   UNL     1      15.883  20.775  26.266  0.00  0.00    -0.033 A 
ATOM     28  C   UNL     1      16.258  22.126  25.883  0.00  0.00    +0.005 A 
ATOM     29  C   UNL     1      17.397  22.376  25.084  0.00  0.00    +0.013 A 
BRANCH  18  19
ATOM     19  C   UNL     1      14.613  20.599  27.119  0.00  0.00    +0.119 C 
BRANCH  19  20
ATOM     20  N   UNL     1      14.780  20.000  28.477  0.00  0.00    -0.302 NA
ATOM     21  C   UNL     1      13.701  20.480  29.453  0.00  0.00    +0.066 C 
ATOM     22  C   UNL     1      13.877  19.827  30.862  0.00  0.00    -0.064 C 
ATOM     23  N   UNL     1      15.274  20.146  31.398  0.00  0.00    +0.379 N 
ATOM     24  C   UNL     1      15.422  19.582  32.748  0.00  0.00    -0.096 C 
ATOM     25  H   UNL     1      15.358  21.255  31.484  0.00  0.00    -0.082 HD
ATOM     26  C   UNL     1      16.352  19.675  30.433  0.00  0.00    -0.064 C 
ATOM     27  C   UNL     1      16.151  20.307  29.028  0.00  0.00    +0.066 C 
ENDBRANCH  19  20
ENDBRANCH  18  19
ENDBRANCH  14  15
ENDBRANCH  12  13
TORSDOF 6
ENDMDL
MODEL 2
REMARK VINA RESULT:      -8.8      4.986     14.323
REMARK  Name = C:\Users\Docking\Desktop\test protocol\1iep_ligandH.pdb
REMARK  8 active torsions:
REMARK  status: ('A' for Active; 'I' for Inactive)
REMARK    1  A    between atoms: _5  and  _11
REMARK    2  A    between atoms: _19  and  _21
REMARK    3  A    between atoms: _22  and  _66
REMARK    4  A    between atoms: _27  and  _30
REMARK    5  A    between atoms: _32  and  _33
REMARK    6  A    between atoms: _38  and  _43
REMARK    7  A    between atoms: _43  and  _46
REMARK    8  A    between atoms: _53  and  _55
REMARK                            x       y       z     vdW  Elec       q    Type
REMARK                         _______ _______ _______ _____ _____    ______ ____
ROOT
ATOM     10  C   UNL     1      20.160  23.844  17.581  0.00  0.00    +0.038 A 
ATOM     11  C   UNL     1      19.746  25.135  17.164  0.00  0.00    +0.047 A 
ATOM     12  C   UNL     1      20.270  25.736  15.947  0.00  0.00    +0.035 A 
ATOM     32  C   UNL     1      21.213  24.993  15.178  0.00  0.00    +0.024 A 
ATOM     33  C   UNL     1      21.645  23.681  15.589  0.00  0.00    +0.007 A 
ATOM     34  C   UNL     1      21.133  23.083  16.789  0.00  0.00    -0.029 A 
ATOM     35  C   UNL     1      21.637  21.676  17.184  0.00  0.00    +0.045 C 
ENDROOT
BRANCH  10   9
ATOM      4  C   UNL     1      20.464  22.712  22.236  0.00  0.00    +0.077 A 
ATOM      5  C   UNL     1      21.814  23.190  22.325  0.00  0.00    +0.048 A 
ATOM      6  C   UNL     1      22.395  23.713  21.148  0.00  0.00    +0.116 A 
ATOM      7  N   UNL     1      21.672  23.751  19.976  0.00  0.00    -0.223 NA
ATOM      8  C   UNL     1      20.373  23.280  19.924  0.00  0.00    +0.220 A 
ATOM      9  N   UNL     1      19.624  23.315  18.758  0.00  0.00    -0.283 N 
ATOM     36  H   UNL     1      18.672  22.951  18.759  0.00  0.00    +0.155 HD
ATOM     37  N   UNL     1      19.795  22.774  21.034  0.00  0.00    -0.214 NA
BRANCH   4   3
ATOM      1  C   UNL     1      19.495  20.579  25.368  0.00  0.00    +0.020 A 
ATOM      2  C   UNL     1      20.265  21.104  24.264  0.00  0.00    +0.013 A 
ATOM      3  C   UNL     1      19.711  22.133  23.393  0.00  0.00    +0.019 A 
ATOM     38  C   UNL     1      18.366  22.614  23.670  0.00  0.00    +0.120 A 
ATOM     39  N   UNL     1      17.648  22.089  24.740  0.00  0.00    -0.263 NA
ATOM     40  C   UNL     1      18.170  21.097  25.584  0.00  0.00    +0.111 A 
ENDBRANCH   4   3
ENDBRANCH  10   9
BRANCH  12  13
ATOM     13  N   UNL     1      19.893  27.046  15.478  0.00  0.00    -0.281 N 
ATOM     14  C   UNL     1      19.166  27.368  14.343  0.00  0.00    +0.248 C 
ATOM     30  O   UNL     1      18.910  26.584  13.441  0.00  0.00    -0.270 OA
ATOM     31  H   UNL     1      20.200  27.832  16.051  0.00  0.00    +0.155 HD
BRANCH  14  15
ATOM     15  C   UNL     1      18.662  28.766  14.181  0.00  0.00    +0.037 A 
ATOM     16  C   UNL     1      17.379  29.040  13.529  0.00  0.00    +0.013 A 
ATOM     17  C   UNL     1      16.924  30.398  13.369  0.00  0.00    +0.005 A 
ATOM     18  C   UNL     1      17.754  31.494  13.865  0.00  0.00    -0.033 A 
ATOM     28  C   UNL     1      19.021  31.193  14.512  0.00  0.00    +0.005 A 
ATOM     29  C   UNL     1      19.470  29.863  14.669  0.00  0.00    +0.013 A 
BRANCH  18  19
ATOM     19  C   UNL     1      17.358  32.975  13.719  0.00  0.00    +0.119 C 
BRANCH  19  20
ATOM     20  N   UNL     1      17.170  33.499  12.333  0.00  0.00    -0.302 NA
ATOM     21  C   UNL     1      18.357  33.166  11.426  0.00  0.00    +0.066 C 
ATOM     22  C   UNL     1      18.133  33.702   9.975  0.00  0.00    -0.064 C 
ATOM     23  N   UNL     1      17.896  35.212  10.023  0.00  0.00    +0.379 N 
ATOM     24  C   UNL     1      17.742  35.728   8.655  0.00  0.00    -0.096 C 
ATOM     25  H   UNL     1      18.805  35.683  10.462  0.00  0.00    -0.082 HD
ATOM     26  C   UNL     1      16.718  35.553  10.925  0.00  0.00    -0.064 C 
ATOM     27  C   UNL     1      16.938  34.990  12.357  0.00  0.00    +0.066 C 
ENDBRANCH  19  20
ENDBRANCH  18  19
ENDBRANCH  14  15
ENDBRANCH  12  13
TORSDOF 6
ENDMDL
MODEL 3
REMARK VINA RESULT:      -8.6      6.986     13.449
REMARK  Name = C:\Users\Docking\Desktop\test protocol\1iep_ligandH.pdb
REMARK  8 active torsions:
REMARK  status: ('A' for Active; 'I' for Inactive)
REMARK    1  A    between atoms: _5  and  _11
REMARK    2  A    between atoms: _19  and  _21
REMARK    3  A    between atoms: _22  and  _66
REMARK    4  A    between atoms: _27  and  _30
REMARK    5  A    between atoms: _32  and  _33
REMARK    6  A    between atoms: _38  and  _43
REMARK    7  A    between atoms: _43  and  _46
REMARK    8  A    between atoms: _53  and  _55
REMARK                            x       y       z     vdW  Elec       q    Type
REMARK                         _______ _______ _______ _____ _____    ______ ____
ROOT
ATOM     10  C   UNL     1      17.818  20.834  26.712  0.00  0.00    +0.038 A 
ATOM     11  C   UNL     1      18.986  20.033  26.635  0.00  0.00    +0.047 A 
ATOM     12  C   UNL     1      19.802  20.007  25.431  0.00  0.00    +0.035 A 
ATOM     32  C   UNL     1      19.402  20.813  24.326  0.00  0.00    +0.024 A 
ATOM     33  C   UNL     1      18.217  21.633  24.387  0.00  0.00    +0.007 A 
ATOM     34  C   UNL     1      17.407  21.660  25.571  0.00  0.00    -0.029 A 
ATOM     35  C   UNL     1      16.144  22.553  25.578  0.00  0.00    +0.045 C 
ENDROOT
BRANCH  10   9
ATOM      4  C   UNL     1      14.113  19.317  29.359  0.00  0.00    +0.077 A 
ATOM      5  C   UNL     1      13.607  18.503  28.291  0.00  0.00    +0.048 A 
ATOM      6  C   UNL     1      14.326  18.508  27.075  0.00  0.00    +0.116 A 
ATOM      7  N   UNL     1      15.465  19.274  26.947  0.00  0.00    -0.223 NA
ATOM      8  C   UNL     1      15.924  20.049  27.996  0.00  0.00    +0.220 A 
ATOM      9  N   UNL     1      17.071  20.821  27.893  0.00  0.00    -0.283 N 
ATOM     36  H   UNL     1      17.373  21.384  28.687  0.00  0.00    +0.155 HD
ATOM     37  N   UNL     1      15.255  20.062  29.168  0.00  0.00    -0.214 NA
BRANCH   4   3
ATOM      1  C   UNL     1      11.448  19.467  32.219  0.00  0.00    +0.020 A 
ATOM      2  C   UNL     1      12.022  19.370  30.896  0.00  0.00    +0.013 A 
ATOM      3  C   UNL     1      13.466  19.414  30.706  0.00  0.00    +0.019 A 
ATOM     38  C   UNL     1      14.308  19.559  31.884  0.00  0.00    +0.120 A 
ATOM     39  N   UNL     1      13.728  19.652  33.144  0.00  0.00    -0.263 NA
ATOM     40  C   UNL     1      12.339  19.612  33.340  0.00  0.00    +0.111 A 
ENDBRANCH   4   3
ENDBRANCH  10   9
BRANCH  12  13
ATOM     13  N   UNL     1      20.994  19.207  25.292  0.00  0.00    -0.281 N 
ATOM     14  C   UNL     1      21.894  18.841  26.279  0.00  0.00    +0.248 C 
ATOM     30  O   UNL     1      21.927  19.327  27.399  0.00  0.00    -0.270 OA
ATOM     31  H   UNL     1      21.198  18.869  24.351  0.00  0.00    +0.155 HD
BRANCH  14  15
ATOM     15  C   UNL     1      22.916  17.793  25.972  0.00  0.00    +0.037 A 
ATOM     16  C   UNL     1      22.576  16.369  26.004  0.00  0.00    +0.013 A 
ATOM     17  C   UNL     1      23.584  15.378  25.721  0.00  0.00    +0.005 A 
ATOM     18  C   UNL     1      24.943  15.810  25.401  0.00  0.00    -0.033 A 
ATOM     28  C   UNL     1      25.251  17.230  25.371  0.00  0.00    +0.005 A 
ATOM     29  C   UNL     1      24.265  18.204  25.649  0.00  0.00    +0.013 A 
BRANCH  18  19
ATOM     19  C   UNL     1      26.087  14.822  25.106  0.00  0.00    +0.119 C 
BRANCH  19  20
ATOM     20  N   UNL     1      26.562  14.729  23.693  0.00  0.00    -0.302 NA
ATOM     21  C   UNL     1      27.611  15.795  23.368  0.00  0.00    +0.066 C 
ATOM     22  C   UNL     1      28.114  15.668  21.893  0.00  0.00    -0.064 C 
ATOM     23  N   UNL     1      26.922  15.773  20.940  0.00  0.00    +0.379 N 
ATOM     24  C   UNL     1      27.398  15.712  19.550  0.00  0.00    -0.096 C 
ATOM     25  H   UNL     1      26.453  16.772  21.094  0.00  0.00    -0.082 HD
ATOM     26  C   UNL     1      25.872  14.717  21.258  0.00  0.00    -0.064 C 
ATOM     27  C   UNL     1      25.401  14.833  22.735  0.00  0.00    +0.066 C 
ENDBRANCH  19  20
ENDBRANCH  18  19
ENDBRANCH  14  15
ENDBRANCH  12  13
TORSDOF 6
ENDMDL
MODEL 4
REMARK VINA RESULT:      -8.5      1.447      2.067
REMARK  Name = C:\Users\Docking\Desktop\test protocol\1iep_ligandH.pdb
REMARK  8 active torsions:
REMARK  status: ('A' for Active; 'I' for Inactive)
REMARK    1  A    between atoms: _5  and  _11
REMARK    2  A    between atoms: _19  and  _21
REMARK    3  A    between atoms: _22  and  _66
REMARK    4  A    between atoms: _27  and  _30
REMARK    5  A    between atoms: _32  and  _33
REMARK    6  A    between atoms: _38  and  _43
REMARK    7  A    between atoms: _43  and  _46
REMARK    8  A    between atoms: _53  and  _55
REMARK                            x       y       z     vdW  Elec       q    Type
REMARK                         _______ _______ _______ _____ _____    ______ ____
ROOT
ATOM     10  C   UNL     1      20.989  23.978  20.205  0.00  0.00    +0.038 A 
ATOM     11  C   UNL     1      20.004  23.452  21.079  0.00  0.00    +0.047 A 
ATOM     12  C   UNL     1      20.365  22.909  22.379  0.00  0.00    +0.035 A 
ATOM     32  C   UNL     1      21.739  22.920  22.759  0.00  0.00    +0.024 A 
ATOM     33  C   UNL     1      22.753  23.450  21.882  0.00  0.00    +0.007 A 
ATOM     34  C   UNL     1      22.404  23.984  20.597  0.00  0.00    -0.029 A 
ATOM     35  C   UNL     1      23.534  24.533  19.695  0.00  0.00    +0.045 C 
ENDROOT
BRANCH  10   9
ATOM      4  C   UNL     1      20.364  23.574  15.463  0.00  0.00    +0.077 A 
ATOM      5  C   UNL     1      20.909  22.248  15.444  0.00  0.00    +0.048 A 
ATOM      6  C   UNL     1      21.346  21.708  16.675  0.00  0.00    +0.116 A 
ATOM      7  N   UNL     1      21.240  22.449  17.832  0.00  0.00    -0.223 NA
ATOM      8  C   UNL     1      20.710  23.726  17.815  0.00  0.00    +0.220 A 
ATOM      9  N   UNL     1      20.587  24.486  18.968  0.00  0.00    -0.283 N 
ATOM     36  H   UNL     1      20.198  25.427  18.912  0.00  0.00    +0.155 HD
ATOM     37  N   UNL     1      20.287  24.264  16.652  0.00  0.00    -0.214 NA
BRANCH   4   3
ATOM      1  C   UNL     1      18.652  24.329  12.028  0.00  0.00    +0.020 A 
ATOM      2  C   UNL     1      19.121  23.601  13.184  0.00  0.00    +0.013 A 
ATOM      3  C   UNL     1      19.856  24.280  14.244  0.00  0.00    +0.019 A 
ATOM     38  C   UNL     1      20.102  25.707  14.102  0.00  0.00    +0.120 A 
ATOM     39  N   UNL     1      19.640  26.382  12.976  0.00  0.00    -0.263 NA
ATOM     40  C   UNL     1      18.933  25.739  11.949  0.00  0.00    +0.111 A 
ENDBRANCH   4   3
ENDBRANCH  10   9
BRANCH  12  13
ATOM     13  N   UNL     1      19.409  22.354  23.306  0.00  0.00    -0.281 N 
ATOM     14  C   UNL     1      19.597  21.315  24.203  0.00  0.00    +0.248 C 
ATOM     30  O   UNL     1      20.558  20.561  24.195  0.00  0.00    -0.270 OA
ATOM     31  H   UNL     1      18.482  22.778  23.299  0.00  0.00    +0.155 HD
BRANCH  14  15
ATOM     15  C   UNL     1      18.561  21.071  25.252  0.00  0.00    +0.037 A 
ATOM     16  C   UNL     1      18.711  19.992  26.232  0.00  0.00    +0.013 A 
ATOM     17  C   UNL     1      17.689  19.767  27.223  0.00  0.00    +0.005 A 
ATOM     18  C   UNL     1      16.507  20.626  27.239  0.00  0.00    -0.033 A 
ATOM     28  C   UNL     1      16.386  21.692  26.259  0.00  0.00    +0.005 A 
ATOM     29  C   UNL     1      17.385  21.915  25.286  0.00  0.00    +0.013 A 
BRANCH  18  19
ATOM     19  C   UNL     1      15.356  20.445  28.247  0.00  0.00    +0.119 C 
BRANCH  19  20
ATOM     20  N   UNL     1      14.050  19.956  27.713  0.00  0.00    -0.302 NA
ATOM     21  C   UNL     1      12.869  20.414  28.574  0.00  0.00    +0.066 C 
ATOM     22  C   UNL     1      11.509  19.913  27.988  0.00  0.00    -0.064 C 
ATOM     23  N   UNL     1      11.537  18.388  27.875  0.00  0.00    +0.379 N 
ATOM     24  C   UNL     1      10.239  17.909  27.379  0.00  0.00    -0.096 C 
ATOM     25  H   UNL     1      11.681  17.975  28.900  0.00  0.00    -0.082 HD
ATOM     26  C   UNL     1      12.710  17.923  27.022  0.00  0.00    -0.064 C 
ATOM     27  C   UNL     1      14.054  18.452  27.596  0.00  0.00    +0.066 C 
ENDBRANCH  19  20
ENDBRANCH  18  19
ENDBRANCH  14  15
ENDBRANCH  12  13
TORSDOF 6
ENDMDL
MODEL 5
REMARK VINA RESULT:      -8.5     13.987     16.713
REMARK  Name = C:\Users\Docking\Desktop\test protocol\1iep_ligandH.pdb
REMARK  8 active torsions:
REMARK  status: ('A' for Active; 'I' for Inactive)
REMARK    1  A    between atoms: _5  and  _11
REMARK    2  A    between atoms: _19  and  _21
REMARK    3  A    between atoms: _22  and  _66
REMARK    4  A    between atoms: _27  and  _30
REMARK    5  A    between atoms: _32  and  _33
REMARK    6  A    between atoms: _38  and  _43
REMARK    7  A    between atoms: _43  and  _46
REMARK    8  A    between atoms: _53  and  _55
REMARK                            x       y       z     vdW  Elec       q    Type
REMARK                         _______ _______ _______ _____ _____    ______ ____
ROOT
ATOM     10  C   UNL     1      17.215  33.691   7.153  0.00  0.00    +0.038 A 
ATOM     11  C   UNL     1      17.076  33.855   8.555  0.00  0.00    +0.047 A 
ATOM     12  C   UNL     1      15.832  33.523   9.231  0.00  0.00    +0.035 A 
ATOM     32  C   UNL     1      14.750  33.023   8.449  0.00  0.00    +0.024 A 
ATOM     33  C   UNL     1      14.874  32.851   7.023  0.00  0.00    +0.007 A 
ATOM     34  C   UNL     1      16.098  33.179   6.350  0.00  0.00    -0.029 A 
ATOM     35  C   UNL     1      16.172  32.981   4.818  0.00  0.00    +0.045 C 
ENDROOT
BRANCH  10   9
ATOM      4  C   UNL     1      21.702  32.642   5.811  0.00  0.00    +0.077 A 
ATOM      5  C   UNL     1      21.625  31.324   6.372  0.00  0.00    +0.048 A 
ATOM      6  C   UNL     1      20.415  30.958   7.004  0.00  0.00    +0.116 A 
ATOM      7  N   UNL     1      19.368  31.851   7.064  0.00  0.00    -0.223 NA
ATOM      8  C   UNL     1      19.476  33.115   6.513  0.00  0.00    +0.220 A 
ATOM      9  N   UNL     1      18.432  34.026   6.555  0.00  0.00    -0.283 N 
ATOM     36  H   UNL     1      18.554  34.952   6.144  0.00  0.00    +0.155 HD
ATOM     37  N   UNL     1      20.621  33.489   5.906  0.00  0.00    -0.214 NA
BRANCH   4   3
ATOM      1  C   UNL     1      25.406  33.347   4.769  0.00  0.00    +0.020 A 
ATOM      2  C   UNL     1      24.272  32.804   5.480  0.00  0.00    +0.013 A 
ATOM      3  C   UNL     1      22.912  33.175   5.108  0.00  0.00    +0.019 A 
ATOM     38  C   UNL     1      22.733  34.104   4.003  0.00  0.00    +0.120 A 
ATOM     39  N   UNL     1      23.845  34.612   3.337  0.00  0.00    -0.263 NA
ATOM     40  C   UNL     1      25.158  34.263   3.687  0.00  0.00    +0.111 A 
ENDBRANCH   4   3
ENDBRANCH  10   9
BRANCH  12  13
ATOM     13  N   UNL     1      15.629  33.676  10.651  0.00  0.00    -0.281 N 
ATOM     14  C   UNL     1      15.741  32.709  11.636  0.00  0.00    +0.248 C 
ATOM     30  O   UNL     1      15.824  31.509  11.421  0.00  0.00    -0.270 OA
ATOM     31  H   UNL     1      15.373  34.611  10.967  0.00  0.00    +0.155 HD
BRANCH  14  15
ATOM     15  C   UNL     1      15.746  33.135  13.069  0.00  0.00    +0.037 A 
ATOM     16  C   UNL     1      15.903  34.543  13.442  0.00  0.00    +0.013 A 
ATOM     17  C   UNL     1      15.922  34.925  14.832  0.00  0.00    +0.005 A 
ATOM     18  C   UNL     1      15.782  33.896  15.859  0.00  0.00    -0.033 A 
ATOM     28  C   UNL     1      15.623  32.507  15.461  0.00  0.00    +0.005 A 
ATOM     29  C   UNL     1      15.605  32.129  14.100  0.00  0.00    +0.013 A 
BRANCH  18  19
ATOM     19  C   UNL     1      15.813  34.210  17.367  0.00  0.00    +0.119 C 
BRANCH  19  20
ATOM     20  N   UNL     1      17.013  34.925  17.893  0.00  0.00    -0.302 NA
ATOM     21  C   UNL     1      16.897  36.443  17.725  0.00  0.00    +0.066 C 
ATOM     22  C   UNL     1      18.152  37.177  18.300  0.00  0.00    -0.064 C 
ATOM     23  N   UNL     1      19.410  36.650  17.608  0.00  0.00    +0.379 N 
ATOM     24  C   UNL     1      20.586  37.379  18.105  0.00  0.00    -0.096 C 
ATOM     25  H   UNL     1      19.313  36.868  16.519  0.00  0.00    -0.082 HD
ATOM     26  C   UNL     1      19.532  35.141  17.767  0.00  0.00    -0.064 C 
ATOM     27  C   UNL     1      18.267  34.423  17.219  0.00  0.00    +0.066 C 
ENDBRANCH  19  20
ENDBRANCH  18  19
ENDBRANCH  14  15
ENDBRANCH  12  13
TORSDOF 6
ENDMDL
