MODEL 1
REMARK VINA RESULT:      -7.7      0.000      0.000
REMARK  Name = C:\Users\Docking\Desktop\test protocol\1iep_ligandH.pdb
REMARK  8 active torsions:
REMARK  status: ('A' for Active; 'I' for Inactive)
REMARK    1  A    between atoms: _5  and  _11
REMARK    2  A    between atoms: _19  and  _21
REMARK    3  A    between atoms: _22  and  _66
REMARK    4  A    between atoms: _27  and  _30
REMARK    5  A    between atoms: _32  and  _33
REMARK    6  A    between atoms: _38  and  _43
REMARK    7  A    between atoms: _43  and  _46
REMARK    8  A    between atoms: _53  and  _55
REMARK                            x       y       z     vdW  Elec       q    Type
REMARK                         _______ _______ _______ _____ _____    ______ ____
ROOT
ATOM     10  C   UNL     1     -10.071  23.188  24.907  0.00  0.00    +0.038 A 
ATOM     11  C   UNL     1      -9.956  22.038  25.729  0.00  0.00    +0.047 A 
ATOM     12  C   UNL     1      -9.508  20.766  25.185  0.00  0.00    +0.035 A 
ATOM     32  C   UNL     1      -9.181  20.701  23.799  0.00  0.00    +0.024 A 
ATOM     33  C   UNL     1      -9.294  21.860  22.948  0.00  0.00    +0.007 A 
ATOM     34  C   UNL     1      -9.738  23.117  23.479  0.00  0.00    -0.029 A 
ATOM     35  C   UNL     1      -9.845  24.326  22.520  0.00  0.00    +0.045 C 
ENDROOT
BRANCH  10   9
ATOM      4  C   UNL     1     -13.521  26.318  26.065  0.00  0.00    +0.077 A 
ATOM      5  C   UNL     1     -14.538  25.516  25.447  0.00  0.00    +0.048 A 
ATOM      6  C   UNL     1     -14.130  24.309  24.837  0.00  0.00    +0.116 A 
ATOM      7  N   UNL     1     -12.802  23.941  24.849  0.00  0.00    -0.223 NA
ATOM      8  C   UNL     1     -11.847  24.738  25.452  0.00  0.00    +0.220 A 
ATOM      9  N   UNL     1     -10.507  24.384  25.483  0.00  0.00    -0.283 N 
ATOM     36  H   UNL     1      -9.832  25.003  25.931  0.00  0.00    +0.155 HD
ATOM     37  N   UNL     1     -12.210  25.896  26.040  0.00  0.00    -0.214 NA
BRANCH   4   3
ATOM      1  C   UNL     1     -14.848  29.908  26.872  0.00  0.00    +0.020 A 
ATOM      2  C   UNL     1     -14.615  28.670  26.165  0.00  0.00    +0.013 A 
ATOM      3  C   UNL     1     -13.795  27.619  26.754  0.00  0.00    +0.019 A 
ATOM     38  C   UNL     1     -13.222  27.853  28.071  0.00  0.00    +0.120 A 
ATOM     39  N   UNL     1     -13.463  29.055  28.728  0.00  0.00    -0.263 NA
ATOM     40  C   UNL     1     -14.249  30.075  28.170  0.00  0.00    +0.111 A 
ENDBRANCH   4   3
ENDBRANCH  10   9
BRANCH  12  13
ATOM     13  N   UNL     1      -9.379  19.562  25.969  0.00  0.00    -0.281 N 
ATOM     14  C   UNL     1     -10.203  18.449  25.960  0.00  0.00    +0.248 C 
ATOM     30  O   UNL     1     -11.303  18.406  25.429  0.00  0.00    -0.270 OA
ATOM     31  H   UNL     1      -8.584  19.527  26.607  0.00  0.00    +0.155 HD
BRANCH  14  15
ATOM     15  C   UNL     1      -9.745  17.207  26.655  0.00  0.00    +0.037 A 
ATOM     16  C   UNL     1     -10.680  16.124  26.970  0.00  0.00    +0.013 A 
ATOM     17  C   UNL     1     -10.216  14.944  27.655  0.00  0.00    +0.005 A 
ATOM     18  C   UNL     1      -8.808  14.841  28.030  0.00  0.00    -0.033 A 
ATOM     28  C   UNL     1      -7.901  15.928  27.700  0.00  0.00    +0.005 A 
ATOM     29  C   UNL     1      -8.353  17.086  27.029  0.00  0.00    +0.013 A 
BRANCH  18  19
ATOM     19  C   UNL     1      -8.229  13.628  28.782  0.00  0.00    +0.119 C 
BRANCH  19  20
ATOM     20  N   UNL     1      -6.815  13.727  29.254  0.00  0.00    -0.302 NA
ATOM     21  C   UNL     1      -5.914  12.680  28.593  0.00  0.00    +0.066 C 
ATOM     22  C   UNL     1      -4.435  12.813  29.081  0.00  0.00    -0.064 C 
ATOM     23  N   UNL     1      -4.390  12.681  30.604  0.00  0.00    +0.379 N 
ATOM     24  C   UNL     1      -2.994  12.747  31.061  0.00  0.00    -0.096 C 
ATOM     25  H   UNL     1      -4.785  11.673  30.869  0.00  0.00    -0.082 HD
ATOM     26  C   UNL     1      -5.285  13.717  31.270  0.00  0.00    -0.064 C 
ATOM     27  C   UNL     1      -6.747  13.596  30.756  0.00  0.00    +0.066 C 
ENDBRANCH  19  20
ENDBRANCH  18  19
ENDBRANCH  14  15
ENDBRANCH  12  13
TORSDOF 6
ENDMDL
MODEL 2
REMARK VINA RESULT:      -7.5      1.777      2.623
REMARK  Name = C:\Users\Docking\Desktop\test protocol\1iep_ligandH.pdb
REMARK  8 active torsions:
REMARK  status: ('A' for Active; 'I' for Inactive)
REMARK    1  A    between atoms: _5  and  _11
REMARK    2  A    between atoms: _19  and  _21
REMARK    3  A    between atoms: _22  and  _66
REMARK    4  A    between atoms: _27  and  _30
REMARK    5  A    between atoms: _32  and  _33
REMARK    6  A    between atoms: _38  and  _43
REMARK    7  A    between atoms: _43  and  _46
REMARK    8  A    between atoms: _53  and  _55
REMARK                            x       y       z     vdW  Elec       q    Type
REMARK                         _______ _______ _______ _____ _____    ______ ____
ROOT
ATOM     10  C   UNL     1     -10.005  22.988  24.301  0.00  0.00    +0.038 A 
ATOM     11  C   UNL     1      -9.784  21.783  25.015  0.00  0.00    +0.047 A 
ATOM     12  C   UNL     1      -9.417  20.555  24.326  0.00  0.00    +0.035 A 
ATOM     32  C   UNL     1      -9.280  20.592  22.908  0.00  0.00    +0.024 A 
ATOM     33  C   UNL     1      -9.501  21.808  22.166  0.00  0.00    +0.007 A 
ATOM     34  C   UNL     1      -9.866  23.021  22.840  0.00  0.00    -0.029 A 
ATOM     35  C   UNL     1     -10.097  24.294  21.993  0.00  0.00    +0.045 C 
ENDROOT
BRANCH  10   9
ATOM      4  C   UNL     1     -13.252  26.068  26.033  0.00  0.00    +0.077 A 
ATOM      5  C   UNL     1     -14.341  25.342  25.446  0.00  0.00    +0.048 A 
ATOM      6  C   UNL     1     -14.023  24.185  24.700  0.00  0.00    +0.116 A 
ATOM      7  N   UNL     1     -12.709  23.793  24.558  0.00  0.00    -0.223 NA
ATOM      8  C   UNL     1     -11.682  24.517  25.136  0.00  0.00    +0.220 A 
ATOM      9  N   UNL     1     -10.355  24.137  25.013  0.00  0.00    -0.283 N 
ATOM     36  H   UNL     1      -9.626  24.702  25.448  0.00  0.00    +0.155 HD
ATOM     37  N   UNL     1     -11.961  25.626  25.852  0.00  0.00    -0.214 NA
BRANCH   4   3
ATOM      1  C   UNL     1     -12.976  28.726  28.889  0.00  0.00    +0.020 A 
ATOM      2  C   UNL     1     -12.773  27.509  28.138  0.00  0.00    +0.013 A 
ATOM      3  C   UNL     1     -13.429  27.309  26.852  0.00  0.00    +0.019 A 
ATOM     38  C   UNL     1     -14.290  28.369  26.350  0.00  0.00    +0.120 A 
ATOM     39  N   UNL     1     -14.468  29.529  27.096  0.00  0.00    -0.263 NA
ATOM     40  C   UNL     1     -13.844  29.732  28.336  0.00  0.00    +0.111 A 
ENDBRANCH   4   3
ENDBRANCH  10   9
BRANCH  12  13
ATOM     13  N   UNL     1      -9.189  19.300  24.998  0.00  0.00    -0.281 N 
ATOM     14  C   UNL     1      -7.988  18.788  25.460  0.00  0.00    +0.248 C 
ATOM     30  O   UNL     1      -6.889  19.238  25.174  0.00  0.00    -0.270 OA
ATOM     31  H   UNL     1     -10.013  18.719  25.151  0.00  0.00    +0.155 HD
BRANCH  14  15
ATOM     15  C   UNL     1      -8.010  17.593  26.358  0.00  0.00    +0.037 A 
ATOM     16  C   UNL     1      -6.943  17.356  27.334  0.00  0.00    +0.013 A 
ATOM     17  C   UNL     1      -6.981  16.187  28.176  0.00  0.00    +0.005 A 
ATOM     18  C   UNL     1      -8.091  15.246  28.047  0.00  0.00    -0.033 A 
ATOM     28  C   UNL     1      -9.139  15.509  27.075  0.00  0.00    +0.005 A 
ATOM     29  C   UNL     1      -9.105  16.653  26.247  0.00  0.00    +0.013 A 
BRANCH  18  19
ATOM     19  C   UNL     1      -8.202  13.962  28.890  0.00  0.00    +0.119 C 
BRANCH  19  20
ATOM     20  N   UNL     1      -8.448  14.124  30.354  0.00  0.00    -0.302 NA
ATOM     21  C   UNL     1      -9.443  15.250  30.648  0.00  0.00    +0.066 C 
ATOM     22  C   UNL     1      -9.706  15.391  32.183  0.00  0.00    -0.064 C 
ATOM     23  N   UNL     1      -8.380  15.637  32.905  0.00  0.00    +0.379 N 
ATOM     24  C   UNL     1      -8.631  15.828  34.341  0.00  0.00    -0.096 C 
ATOM     25  H   UNL     1      -7.951  16.586  32.507  0.00  0.00    -0.082 HD
ATOM     26  C   UNL     1      -7.384  14.523  32.615  0.00  0.00    -0.064 C 
ATOM     27  C   UNL     1      -7.152  14.373  31.086  0.00  0.00    +0.066 C 
ENDBRANCH  19  20
ENDBRANCH  18  19
ENDBRANCH  14  15
ENDBRANCH  12  13
TORSDOF 6
ENDMDL
MODEL 3
REMARK VINA RESULT:      -7.4      3.488     12.372
REMARK  Name = C:\Users\Docking\Desktop\test protocol\1iep_ligandH.pdb
REMARK  8 active torsions:
REMARK  status: ('A' for Active; 'I' for Inactive)
REMARK    1  A    between atoms: _5  and  _11
REMARK    2  A    between atoms: _19  and  _21
REMARK    3  A    between atoms: _22  and  _66
REMARK    4  A    between atoms: _27  and  _30
REMARK    5  A    between atoms: _32  and  _33
REMARK    6  A    between atoms: _38  and  _43
REMARK    7  A    between atoms: _43  and  _46
REMARK    8  A    between atoms: _53  and  _55
REMARK                            x       y       z     vdW  Elec       q    Type
REMARK                         _______ _______ _______ _____ _____    ______ ____
ROOT
ATOM     10  C   UNL     1      -7.004  15.124  29.462  0.00  0.00    +0.038 A 
ATOM     11  C   UNL     1      -7.451  16.261  28.742  0.00  0.00    +0.047 A 
ATOM     12  C   UNL     1      -6.554  16.998  27.866  0.00  0.00    +0.035 A 
ATOM     32  C   UNL     1      -5.207  16.547  27.744  0.00  0.00    +0.024 A 
ATOM     33  C   UNL     1      -4.735  15.394  28.470  0.00  0.00    +0.007 A 
ATOM     34  C   UNL     1      -5.615  14.664  29.337  0.00  0.00    -0.029 A 
ATOM     35  C   UNL     1      -5.053  13.439  30.095  0.00  0.00    +0.045 C 
ENDROOT
BRANCH  10   9
ATOM      4  C   UNL     1      -9.478  14.689  33.552  0.00  0.00    +0.077 A 
ATOM      5  C   UNL     1      -8.901  15.883  34.097  0.00  0.00    +0.048 A 
ATOM      6  C   UNL     1      -7.966  16.576  33.296  0.00  0.00    +0.116 A 
ATOM      7  N   UNL     1      -7.640  16.101  32.044  0.00  0.00    -0.223 NA
ATOM      8  C   UNL     1      -8.215  14.945  31.549  0.00  0.00    +0.220 A 
ATOM      9  N   UNL     1      -7.908  14.454  30.289  0.00  0.00    -0.283 N 
ATOM     36  H   UNL     1      -8.348  13.594  29.963  0.00  0.00    +0.155 HD
ATOM     37  N   UNL     1      -9.109  14.264  32.295  0.00  0.00    -0.214 NA
BRANCH   4   3
ATOM      1  C   UNL     1     -11.384  12.726  36.348  0.00  0.00    +0.020 A 
ATOM      2  C   UNL     1     -10.385  13.542  35.697  0.00  0.00    +0.013 A 
ATOM      3  C   UNL     1     -10.484  13.848  34.275  0.00  0.00    +0.019 A 
ATOM     38  C   UNL     1     -11.615  13.309  33.535  0.00  0.00    +0.120 A 
ATOM     39  N   UNL     1     -12.560  12.524  34.188  0.00  0.00    -0.263 NA
ATOM     40  C   UNL     1     -12.475  12.222  35.556  0.00  0.00    +0.111 A 
ENDBRANCH   4   3
ENDBRANCH  10   9
BRANCH  12  13
ATOM     13  N   UNL     1      -6.950  18.164  27.116  0.00  0.00    -0.281 N 
ATOM     14  C   UNL     1      -7.208  18.257  25.758  0.00  0.00    +0.248 C 
ATOM     30  O   UNL     1      -6.929  17.392  24.941  0.00  0.00    -0.270 OA
ATOM     31  H   UNL     1      -7.052  19.026  27.652  0.00  0.00    +0.155 HD
BRANCH  14  15
ATOM     15  C   UNL     1      -7.857  19.495  25.229  0.00  0.00    +0.037 A 
ATOM     16  C   UNL     1      -7.295  20.218  24.086  0.00  0.00    +0.013 A 
ATOM     17  C   UNL     1      -7.931  21.420  23.607  0.00  0.00    +0.005 A 
ATOM     18  C   UNL     1      -9.139  21.904  24.270  0.00  0.00    -0.033 A 
ATOM     28  C   UNL     1      -9.678  21.164  25.399  0.00  0.00    +0.005 A 
ATOM     29  C   UNL     1      -9.056  19.987  25.873  0.00  0.00    +0.013 A 
BRANCH  18  19
ATOM     19  C   UNL     1      -9.872  23.188  23.840  0.00  0.00    +0.119 C 
BRANCH  19  20
ATOM     20  N   UNL     1     -11.295  23.339  24.265  0.00  0.00    -0.302 NA
ATOM     21  C   UNL     1     -12.254  23.341  23.071  0.00  0.00    +0.066 C 
ATOM     22  C   UNL     1     -13.741  23.476  23.536  0.00  0.00    -0.064 C 
ATOM     23  N   UNL     1     -13.900  24.754  24.361  0.00  0.00    +0.379 N 
ATOM     24  C   UNL     1     -15.309  24.914  24.751  0.00  0.00    -0.096 C 
ATOM     25  H   UNL     1     -13.630  25.615  23.706  0.00  0.00    -0.082 HD
ATOM     26  C   UNL     1     -12.948  24.761  25.549  0.00  0.00    -0.064 C 
ATOM     27  C   UNL     1     -11.476  24.597  25.078  0.00  0.00    +0.066 C 
ENDBRANCH  19  20
ENDBRANCH  18  19
ENDBRANCH  14  15
ENDBRANCH  12  13
TORSDOF 6
ENDMDL
MODEL 4
REMARK VINA RESULT:      -7.4      3.802     12.511
REMARK  Name = C:\Users\Docking\Desktop\test protocol\1iep_ligandH.pdb
REMARK  8 active torsions:
REMARK  status: ('A' for Active; 'I' for Inactive)
REMARK    1  A    between atoms: _5  and  _11
REMARK    2  A    between atoms: _19  and  _21
REMARK    3  A    between atoms: _22  and  _66
REMARK    4  A    between atoms: _27  and  _30
REMARK    5  A    between atoms: _32  and  _33
REMARK    6  A    between atoms: _38  and  _43
REMARK    7  A    between atoms: _43  and  _46
REMARK    8  A    between atoms: _53  and  _55
REMARK                            x       y       z     vdW  Elec       q    Type
REMARK                         _______ _______ _______ _____ _____    ______ ____
ROOT
ATOM     10  C   UNL     1      -7.332  15.472  29.124  0.00  0.00    +0.038 A 
ATOM     11  C   UNL     1      -7.761  16.665  28.487  0.00  0.00    +0.047 A 
ATOM     12  C   UNL     1      -6.873  17.411  27.609  0.00  0.00    +0.035 A 
ATOM     32  C   UNL     1      -5.554  16.911  27.400  0.00  0.00    +0.024 A 
ATOM     33  C   UNL     1      -5.102  15.701  28.040  0.00  0.00    +0.007 A 
ATOM     34  C   UNL     1      -5.972  14.963  28.909  0.00  0.00    -0.029 A 
ATOM     35  C   UNL     1      -5.431  13.675  29.573  0.00  0.00    +0.045 C 
ENDROOT
BRANCH  10   9
ATOM      4  C   UNL     1      -9.525  14.829  33.345  0.00  0.00    +0.077 A 
ATOM      5  C   UNL     1      -8.809  15.915  33.949  0.00  0.00    +0.048 A 
ATOM      6  C   UNL     1      -7.879  16.609  33.142  0.00  0.00    +0.116 A 
ATOM      7  N   UNL     1      -7.690  16.236  31.829  0.00  0.00    -0.223 NA
ATOM      8  C   UNL     1      -8.396  15.183  31.277  0.00  0.00    +0.220 A 
ATOM      9  N   UNL     1      -8.227  14.796  29.957  0.00  0.00    -0.283 N 
ATOM     36  H   UNL     1      -8.761  14.009  29.589  0.00  0.00    +0.155 HD
ATOM     37  N   UNL     1      -9.288  14.504  32.028  0.00  0.00    -0.214 NA
BRANCH   4   3
ATOM      1  C   UNL     1     -11.497  12.950  36.152  0.00  0.00    +0.020 A 
ATOM      2  C   UNL     1     -10.489  13.756  35.503  0.00  0.00    +0.013 A 
ATOM      3  C   UNL     1     -10.543  14.002  34.067  0.00  0.00    +0.019 A 
ATOM     38  C   UNL     1     -11.639  13.415  33.312  0.00  0.00    +0.120 A 
ATOM     39  N   UNL     1     -12.595  12.642  33.964  0.00  0.00    -0.263 NA
ATOM     40  C   UNL     1     -12.552  12.396  35.344  0.00  0.00    +0.111 A 
ENDBRANCH   4   3
ENDBRANCH  10   9
BRANCH  12  13
ATOM     13  N   UNL     1      -7.250  18.632  26.942  0.00  0.00    -0.281 N 
ATOM     14  C   UNL     1      -7.522  18.818  25.597  0.00  0.00    +0.248 C 
ATOM     30  O   UNL     1      -7.272  18.003  24.722  0.00  0.00    -0.270 OA
ATOM     31  H   UNL     1      -7.326  19.460  27.534  0.00  0.00    +0.155 HD
BRANCH  14  15
ATOM     15  C   UNL     1      -8.148  20.103  25.158  0.00  0.00    +0.037 A 
ATOM     16  C   UNL     1      -9.267  20.694  25.896  0.00  0.00    +0.013 A 
ATOM     17  C   UNL     1      -9.864  21.925  25.441  0.00  0.00    +0.005 A 
ATOM     18  C   UNL     1      -9.340  22.574  24.241  0.00  0.00    -0.033 A 
ATOM     28  C   UNL     1      -8.226  21.968  23.531  0.00  0.00    +0.005 A 
ATOM     29  C   UNL     1      -7.639  20.761  23.973  0.00  0.00    +0.013 A 
BRANCH  18  19
ATOM     19  C   UNL     1      -9.929  23.878  23.672  0.00  0.00    +0.119 C 
BRANCH  19  20
ATOM     20  N   UNL     1     -10.623  23.796  22.352  0.00  0.00    -0.302 NA
ATOM     21  C   UNL     1      -9.760  24.349  21.214  0.00  0.00    +0.066 C 
ATOM     22  C   UNL     1     -10.491  24.235  19.837  0.00  0.00    -0.064 C 
ATOM     23  N   UNL     1     -11.829  24.973  19.911  0.00  0.00    +0.379 N 
ATOM     24  C   UNL     1     -12.493  24.917  18.600  0.00  0.00    -0.096 C 
ATOM     25  H   UNL     1     -11.612  26.044  20.135  0.00  0.00    -0.082 HD
ATOM     26  C   UNL     1     -12.692  24.431  21.041  0.00  0.00    -0.064 C 
ATOM     27  C   UNL     1     -11.944  24.522  22.400  0.00  0.00    +0.066 C 
ENDBRANCH  19  20
ENDBRANCH  18  19
ENDBRANCH  14  15
ENDBRANCH  12  13
TORSDOF 6
ENDMDL
MODEL 5
REMARK VINA RESULT:      -7.4      4.954      8.432
REMARK  Name = C:\Users\Docking\Desktop\test protocol\1iep_ligandH.pdb
REMARK  8 active torsions:
REMARK  status: ('A' for Active; 'I' for Inactive)
REMARK    1  A    between atoms: _5  and  _11
REMARK    2  A    between atoms: _19  and  _21
REMARK    3  A    between atoms: _22  and  _66
REMARK    4  A    between atoms: _27  and  _30
REMARK    5  A    between atoms: _32  and  _33
REMARK    6  A    between atoms: _38  and  _43
REMARK    7  A    between atoms: _43  and  _46
REMARK    8  A    between atoms: _53  and  _55
REMARK                            x       y       z     vdW  Elec       q    Type
REMARK                         _______ _______ _______ _____ _____    ______ ____
ROOT
ATOM     10  C   UNL     1      -6.978  16.844  28.105  0.00  0.00    +0.038 A 
ATOM     11  C   UNL     1      -7.709  16.452  29.256  0.00  0.00    +0.047 A 
ATOM     12  C   UNL     1      -7.487  15.159  29.884  0.00  0.00    +0.035 A 
ATOM     32  C   UNL     1      -6.511  14.290  29.315  0.00  0.00    +0.024 A 
ATOM     33  C   UNL     1      -5.761  14.671  28.144  0.00  0.00    +0.007 A 
ATOM     34  C   UNL     1      -5.977  15.945  27.519  0.00  0.00    -0.029 A 
ATOM     35  C   UNL     1      -5.148  16.298  26.262  0.00  0.00    +0.045 C 
ENDROOT
BRANCH  10   9
ATOM      4  C   UNL     1      -9.270  19.710  25.011  0.00  0.00    +0.077 A 
ATOM      5  C   UNL     1     -10.005  18.614  24.449  0.00  0.00    +0.048 A 
ATOM      6  C   UNL     1      -9.759  17.327  24.979  0.00  0.00    +0.116 A 
ATOM      7  N   UNL     1      -8.844  17.161  25.996  0.00  0.00    -0.223 NA
ATOM      8  C   UNL     1      -8.151  18.240  26.514  0.00  0.00    +0.220 A 
ATOM      9  N   UNL     1      -7.232  18.097  27.542  0.00  0.00    -0.283 N 
ATOM     36  H   UNL     1      -6.735  18.916  27.892  0.00  0.00    +0.155 HD
ATOM     37  N   UNL     1      -8.366  19.478  26.024  0.00  0.00    -0.214 NA
BRANCH   4   3
ATOM      1  C   UNL     1      -8.512  23.284  23.613  0.00  0.00    +0.020 A 
ATOM      2  C   UNL     1      -8.312  21.917  24.037  0.00  0.00    +0.013 A 
ATOM      3  C   UNL     1      -9.421  21.129  24.559  0.00  0.00    +0.019 A 
ATOM     38  C   UNL     1     -10.731  21.758  24.640  0.00  0.00    +0.120 A 
ATOM     39  N   UNL     1     -10.893  23.077  24.226  0.00  0.00    -0.263 NA
ATOM     40  C   UNL     1      -9.833  23.846  23.723  0.00  0.00    +0.111 A 
ENDBRANCH   4   3
ENDBRANCH  10   9
BRANCH  12  13
ATOM     13  N   UNL     1      -8.204  14.704  31.049  0.00  0.00    -0.281 N 
ATOM     14  C   UNL     1      -8.401  15.377  32.244  0.00  0.00    +0.248 C 
ATOM     30  O   UNL     1      -7.806  16.393  32.572  0.00  0.00    -0.270 OA
ATOM     31  H   UNL     1      -8.616  13.773  30.986  0.00  0.00    +0.155 HD
BRANCH  14  15
ATOM     15  C   UNL     1      -9.393  14.835  33.222  0.00  0.00    +0.037 A 
ATOM     16  C   UNL     1     -10.799  14.649  32.855  0.00  0.00    +0.013 A 
ATOM     17  C   UNL     1     -11.738  14.141  33.824  0.00  0.00    +0.005 A 
ATOM     18  C   UNL     1     -11.273  13.813  35.169  0.00  0.00    -0.033 A 
ATOM     28  C   UNL     1      -9.871  14.002  35.505  0.00  0.00    +0.005 A 
ATOM     29  C   UNL     1      -8.948  14.501  34.559  0.00  0.00    +0.013 A 
BRANCH  18  19
ATOM     19  C   UNL     1     -12.209  13.285  36.272  0.00  0.00    +0.119 C 
BRANCH  19  20
ATOM     20  N   UNL     1     -12.280  11.805  36.459  0.00  0.00    -0.302 NA
ATOM     21  C   UNL     1     -11.234  11.301  37.457  0.00  0.00    +0.066 C 
ATOM     22  C   UNL     1     -11.337   9.754  37.657  0.00  0.00    -0.064 C 
ATOM     23  N   UNL     1     -11.176   9.056  36.305  0.00  0.00    +0.379 N 
ATOM     24  C   UNL     1     -11.214   7.599  36.498  0.00  0.00    -0.096 C 
ATOM     25  H   UNL     1     -10.168   9.318  35.907  0.00  0.00    -0.082 HD
ATOM     26  C   UNL     1     -12.211   9.553  35.306  0.00  0.00    -0.064 C 
ATOM     27  C   UNL     1     -12.119  11.096  35.137  0.00  0.00    +0.066 C 
ENDBRANCH  19  20
ENDBRANCH  18  19
ENDBRANCH  14  15
ENDBRANCH  12  13
TORSDOF 6
ENDMDL
