MODEL 1
REMARK VINA RESULT:      -8.8      0.000      0.000
REMARK  Name = C:\Users\Docking\Desktop\test protocol\1iep_ligandH.pdb
REMARK  8 active torsions:
REMARK  status: ('A' for Active; 'I' for Inactive)
REMARK    1  A    between atoms: _5  and  _11
REMARK    2  A    between atoms: _19  and  _21
REMARK    3  A    between atoms: _22  and  _66
REMARK    4  A    between atoms: _27  and  _30
REMARK    5  A    between atoms: _32  and  _33
REMARK    6  A    between atoms: _38  and  _43
REMARK    7  A    between atoms: _43  and  _46
REMARK    8  A    between atoms: _53  and  _55
REMARK                            x       y       z     vdW  Elec       q    Type
REMARK                         _______ _______ _______ _____ _____    ______ ____
ROOT
ATOM     10  C   UNL     1      14.137  21.933  14.974  0.00  0.00    +0.038 A 
ATOM     11  C   UNL     1      15.415  21.683  14.411  0.00  0.00    +0.047 A 
ATOM     12  C   UNL     1      16.362  22.764  14.186  0.00  0.00    +0.035 A 
ATOM     32  C   UNL     1      15.976  24.087  14.549  0.00  0.00    +0.024 A 
ATOM     33  C   UNL     1      14.681  24.359  15.122  0.00  0.00    +0.007 A 
ATOM     34  C   UNL     1      13.741  23.298  15.343  0.00  0.00    -0.029 A 
ATOM     35  C   UNL     1      12.364  23.648  15.954  0.00  0.00    +0.045 C 
ENDROOT
BRANCH  10   9
ATOM      4  C   UNL     1      10.689  18.953  13.468  0.00  0.00    +0.077 A 
ATOM      5  C   UNL     1      10.595  19.611  12.196  0.00  0.00    +0.048 A 
ATOM      6  C   UNL     1      11.446  20.716  11.972  0.00  0.00    +0.116 A 
ATOM      7  N   UNL     1      12.322  21.124  12.954  0.00  0.00    -0.223 NA
ATOM      8  C   UNL     1      12.387  20.469  14.170  0.00  0.00    +0.220 A 
ATOM      9  N   UNL     1      13.267  20.858  15.168  0.00  0.00    -0.283 N 
ATOM     36  H   UNL     1      13.279  20.353  16.054  0.00  0.00    +0.155 HD
ATOM     37  N   UNL     1      11.584  19.412  14.409  0.00  0.00    -0.214 NA
BRANCH   4   3
ATOM      1  C   UNL     1       7.717  16.706  14.660  0.00  0.00    +0.020 A 
ATOM      2  C   UNL     1       8.476  17.882  14.299  0.00  0.00    +0.013 A 
ATOM      3  C   UNL     1       9.859  17.769  13.853  0.00  0.00    +0.019 A 
ATOM     38  C   UNL     1      10.449  16.440  13.781  0.00  0.00    +0.120 A 
ATOM     39  N   UNL     1       9.694  15.326  14.136  0.00  0.00    -0.263 NA
ATOM     40  C   UNL     1       8.363  15.423  14.568  0.00  0.00    +0.111 A 
ENDBRANCH   4   3
ENDBRANCH  10   9
BRANCH  12  13
ATOM     13  N   UNL     1      17.670  22.572  13.611  0.00  0.00    -0.281 N 
ATOM     14  C   UNL     1      18.788  22.011  14.206  0.00  0.00    +0.248 C 
ATOM     30  O   UNL     1      18.893  21.781  15.401  0.00  0.00    -0.270 OA
ATOM     31  H   UNL     1      17.786  22.889  12.648  0.00  0.00    +0.155 HD
BRANCH  14  15
ATOM     15  C   UNL     1      19.965  21.668  13.351  0.00  0.00    +0.037 A 
ATOM     16  C   UNL     1      20.592  20.345  13.415  0.00  0.00    +0.013 A 
ATOM     17  C   UNL     1      21.737  20.047  12.592  0.00  0.00    +0.005 A 
ATOM     18  C   UNL     1      22.262  21.074  11.696  0.00  0.00    -0.033 A 
ATOM     28  C   UNL     1      21.618  22.376  11.648  0.00  0.00    +0.005 A 
ATOM     29  C   UNL     1      20.497  22.673  12.454  0.00  0.00    +0.013 A 
BRANCH  18  19
ATOM     19  C   UNL     1      23.493  20.850  10.797  0.00  0.00    +0.119 C 
BRANCH  19  20
ATOM     20  N   UNL     1      23.294  20.973   9.323  0.00  0.00    -0.302 NA
ATOM     21  C   UNL     1      22.664  19.714   8.721  0.00  0.00    +0.066 C 
ATOM     22  C   UNL     1      22.443  19.869   7.181  0.00  0.00    -0.064 C 
ATOM     23  N   UNL     1      23.779  20.182   6.505  0.00  0.00    +0.379 N 
ATOM     24  C   UNL     1      23.584  20.271   5.050  0.00  0.00    -0.096 C 
ATOM     25  H   UNL     1      24.466  19.327   6.703  0.00  0.00    -0.082 HD
ATOM     26  C   UNL     1      24.414  21.431   7.099  0.00  0.00    -0.064 C 
ATOM     27  C   UNL     1      24.602  21.278   8.635  0.00  0.00    +0.066 C 
ENDBRANCH  19  20
ENDBRANCH  18  19
ENDBRANCH  14  15
ENDBRANCH  12  13
TORSDOF 6
ENDMDL
MODEL 2
REMARK VINA RESULT:      -8.4      7.877     13.221
REMARK  Name = C:\Users\Docking\Desktop\test protocol\1iep_ligandH.pdb
REMARK  8 active torsions:
REMARK  status: ('A' for Active; 'I' for Inactive)
REMARK    1  A    between atoms: _5  and  _11
REMARK    2  A    between atoms: _19  and  _21
REMARK    3  A    between atoms: _22  and  _66
REMARK    4  A    between atoms: _27  and  _30
REMARK    5  A    between atoms: _32  and  _33
REMARK    6  A    between atoms: _38  and  _43
REMARK    7  A    between atoms: _43  and  _46
REMARK    8  A    between atoms: _53  and  _55
REMARK                            x       y       z     vdW  Elec       q    Type
REMARK                         _______ _______ _______ _____ _____    ______ ____
ROOT
ATOM     10  C   UNL     1      10.179  25.759  12.034  0.00  0.00    +0.038 A 
ATOM     11  C   UNL     1       9.909  24.444  12.489  0.00  0.00    +0.047 A 
ATOM     12  C   UNL     1       9.844  23.325  11.562  0.00  0.00    +0.035 A 
ATOM     32  C   UNL     1      10.062  23.581  10.177  0.00  0.00    +0.024 A 
ATOM     33  C   UNL     1      10.337  24.913   9.697  0.00  0.00    +0.007 A 
ATOM     34  C   UNL     1      10.400  26.021  10.606  0.00  0.00    -0.029 A 
ATOM     35  C   UNL     1      10.692  27.427  10.034  0.00  0.00    +0.045 C 
ENDROOT
BRANCH  10   9
ATOM      4  C   UNL     1      12.525  28.469  15.227  0.00  0.00    +0.077 A 
ATOM      5  C   UNL     1      13.746  27.739  15.038  0.00  0.00    +0.048 A 
ATOM      6  C   UNL     1      13.726  26.669  14.115  0.00  0.00    +0.116 A 
ATOM      7  N   UNL     1      12.566  26.361  13.437  0.00  0.00    -0.223 NA
ATOM      8  C   UNL     1      11.406  27.084  13.644  0.00  0.00    +0.220 A 
ATOM      9  N   UNL     1      10.230  26.796  12.968  0.00  0.00    -0.283 N 
ATOM     36  H   UNL     1       9.393  27.349  13.154  0.00  0.00    +0.155 HD
ATOM     37  N   UNL     1      11.398  28.109  14.521  0.00  0.00    -0.214 NA
BRANCH   4   3
ATOM      1  C   UNL     1      11.020  31.262  17.515  0.00  0.00    +0.020 A 
ATOM      2  C   UNL     1      11.097  30.140  16.607  0.00  0.00    +0.013 A 
ATOM      3  C   UNL     1      12.388  29.627  16.165  0.00  0.00    +0.019 A 
ATOM     38  C   UNL     1      13.591  30.277  16.664  0.00  0.00    +0.120 A 
ATOM     39  N   UNL     1      13.485  31.356  17.536  0.00  0.00    -0.263 NA
ATOM     40  C   UNL     1      12.249  31.859  17.967  0.00  0.00    +0.111 A 
ENDBRANCH   4   3
ENDBRANCH  10   9
BRANCH  12  13
ATOM     13  N   UNL     1       9.565  21.969  11.966  0.00  0.00    -0.281 N 
ATOM     14  C   UNL     1      10.473  20.962  12.254  0.00  0.00    +0.248 C 
ATOM     30  O   UNL     1      11.667  21.016  12.002  0.00  0.00    -0.270 OA
ATOM     31  H   UNL     1       8.579  21.720  12.048  0.00  0.00    +0.155 HD
BRANCH  14  15
ATOM     15  C   UNL     1       9.980  19.710  12.905  0.00  0.00    +0.037 A 
ATOM     16  C   UNL     1      10.814  18.508  12.970  0.00  0.00    +0.013 A 
ATOM     17  C   UNL     1      10.308  17.308  13.588  0.00  0.00    +0.005 A 
ATOM     18  C   UNL     1       8.959  17.306  14.148  0.00  0.00    -0.033 A 
ATOM     28  C   UNL     1       8.154  18.515  14.075  0.00  0.00    +0.005 A 
ATOM     29  C   UNL     1       8.647  19.692  13.469  0.00  0.00    +0.013 A 
BRANCH  18  19
ATOM     19  C   UNL     1       8.329  16.065  14.808  0.00  0.00    +0.119 C 
BRANCH  19  20
ATOM     20  N   UNL     1       7.351  16.299  15.911  0.00  0.00    -0.302 NA
ATOM     21  C   UNL     1       7.814  15.675  17.231  0.00  0.00    +0.066 C 
ATOM     22  C   UNL     1       6.789  15.949  18.380  0.00  0.00    -0.064 C 
ATOM     23  N   UNL     1       5.417  15.407  17.977  0.00  0.00    +0.379 N 
ATOM     24  C   UNL     1       4.466  15.611  19.079  0.00  0.00    -0.096 C 
ATOM     25  H   UNL     1       5.521  14.308  17.818  0.00  0.00    -0.082 HD
ATOM     26  C   UNL     1       4.951  16.020  16.664  0.00  0.00    -0.064 C 
ATOM     27  C   UNL     1       5.989  15.768  15.536  0.00  0.00    +0.066 C 
ENDBRANCH  19  20
ENDBRANCH  18  19
ENDBRANCH  14  15
ENDBRANCH  12  13
TORSDOF 6
ENDMDL
MODEL 3
REMARK VINA RESULT:      -8.3      8.349     16.343
REMARK  Name = C:\Users\Docking\Desktop\test protocol\1iep_ligandH.pdb
REMARK  8 active torsions:
REMARK  status: ('A' for Active; 'I' for Inactive)
REMARK    1  A    between atoms: _5  and  _11
REMARK    2  A    between atoms: _19  and  _21
REMARK    3  A    between atoms: _22  and  _66
REMARK    4  A    between atoms: _27  and  _30
REMARK    5  A    between atoms: _32  and  _33
REMARK    6  A    between atoms: _38  and  _43
REMARK    7  A    between atoms: _43  and  _46
REMARK    8  A    between atoms: _53  and  _55
REMARK                            x       y       z     vdW  Elec       q    Type
REMARK                         _______ _______ _______ _____ _____    ______ ____
ROOT
ATOM     10  C   UNL     1       9.043  17.896  14.785  0.00  0.00    +0.038 A 
ATOM     11  C   UNL     1       7.712  17.405  14.795  0.00  0.00    +0.047 A 
ATOM     12  C   UNL     1       7.437  15.980  14.898  0.00  0.00    +0.035 A 
ATOM     32  C   UNL     1       8.541  15.083  14.991  0.00  0.00    +0.024 A 
ATOM     33  C   UNL     1       9.900  15.565  14.981  0.00  0.00    +0.007 A 
ATOM     34  C   UNL     1      10.178  16.969  14.877  0.00  0.00    -0.029 A 
ATOM     35  C   UNL     1      11.654  17.428  14.865  0.00  0.00    +0.045 C 
ENDROOT
BRANCH  10   9
ATOM      4  C   UNL     1      10.289  21.820  12.318  0.00  0.00    +0.077 A 
ATOM      5  C   UNL     1      10.578  21.058  11.137  0.00  0.00    +0.048 A 
ATOM      6  C   UNL     1      10.400  19.658  11.209  0.00  0.00    +0.116 A 
ATOM      7  N   UNL     1       9.964  19.074  12.378  0.00  0.00    -0.223 NA
ATOM      8  C   UNL     1       9.696  19.838  13.500  0.00  0.00    +0.220 A 
ATOM      9  N   UNL     1       9.250  19.273  14.684  0.00  0.00    -0.283 N 
ATOM     36  H   UNL     1       9.071  19.870  15.491  0.00  0.00    +0.155 HD
ATOM     37  N   UNL     1       9.860  21.177  13.458  0.00  0.00    -0.214 NA
BRANCH   4   3
ATOM      1  C   UNL     1      11.773  25.416  12.727  0.00  0.00    +0.020 A 
ATOM      2  C   UNL     1      11.695  23.975  12.660  0.00  0.00    +0.013 A 
ATOM      3  C   UNL     1      10.426  23.309  12.399  0.00  0.00    +0.019 A 
ATOM     38  C   UNL     1       9.244  24.136  12.208  0.00  0.00    +0.120 A 
ATOM     39  N   UNL     1       9.349  25.522  12.280  0.00  0.00    -0.263 NA
ATOM     40  C   UNL     1      10.565  26.174  12.533  0.00  0.00    +0.111 A 
ENDBRANCH   4   3
ENDBRANCH  10   9
BRANCH  12  13
ATOM     13  N   UNL     1       6.107  15.423  14.905  0.00  0.00    -0.281 N 
ATOM     14  C   UNL     1       5.292  15.177  15.998  0.00  0.00    +0.248 C 
ATOM     30  O   UNL     1       5.670  15.202  17.161  0.00  0.00    -0.270 OA
ATOM     31  H   UNL     1       5.719  15.180  13.994  0.00  0.00    +0.155 HD
BRANCH  14  15
ATOM     15  C   UNL     1       3.855  14.841  15.767  0.00  0.00    +0.037 A 
ATOM     16  C   UNL     1       3.337  13.496  16.028  0.00  0.00    +0.013 A 
ATOM     17  C   UNL     1       1.949  13.194  15.780  0.00  0.00    +0.005 A 
ATOM     18  C   UNL     1       1.069  14.242  15.268  0.00  0.00    -0.033 A 
ATOM     28  C   UNL     1       1.608  15.569  15.023  0.00  0.00    +0.005 A 
ATOM     29  C   UNL     1       2.967  15.868  15.264  0.00  0.00    +0.013 A 
BRANCH  18  19
ATOM     19  C   UNL     1      -0.420  14.004  14.955  0.00  0.00    +0.119 C 
BRANCH  19  20
ATOM     20  N   UNL     1      -0.815  13.945  13.516  0.00  0.00    -0.302 NA
ATOM     21  C   UNL     1      -1.849  15.018  13.160  0.00  0.00    +0.066 C 
ATOM     22  C   UNL     1      -2.233  14.957  11.646  0.00  0.00    -0.064 C 
ATOM     23  N   UNL     1      -2.764  13.561  11.313  0.00  0.00    +0.379 N 
ATOM     24  C   UNL     1      -3.181  13.518   9.904  0.00  0.00    -0.096 C 
ATOM     25  H   UNL     1      -3.670  13.386  11.939  0.00  0.00    -0.082 HD
ATOM     26  C   UNL     1      -1.744  12.489  11.666  0.00  0.00    -0.064 C 
ATOM     27  C   UNL     1      -1.346  12.577  13.166  0.00  0.00    +0.066 C 
ENDBRANCH  19  20
ENDBRANCH  18  19
ENDBRANCH  14  15
ENDBRANCH  12  13
TORSDOF 6
ENDMDL
MODEL 4
REMARK VINA RESULT:      -8.3      5.663      7.745
REMARK  Name = C:\Users\Docking\Desktop\test protocol\1iep_ligandH.pdb
REMARK  8 active torsions:
REMARK  status: ('A' for Active; 'I' for Inactive)
REMARK    1  A    between atoms: _5  and  _11
REMARK    2  A    between atoms: _19  and  _21
REMARK    3  A    between atoms: _22  and  _66
REMARK    4  A    between atoms: _27  and  _30
REMARK    5  A    between atoms: _32  and  _33
REMARK    6  A    between atoms: _38  and  _43
REMARK    7  A    between atoms: _43  and  _46
REMARK    8  A    between atoms: _53  and  _55
REMARK                            x       y       z     vdW  Elec       q    Type
REMARK                         _______ _______ _______ _____ _____    ______ ____
ROOT
ATOM     10  C   UNL     1      11.787  20.233  14.676  0.00  0.00    +0.038 A 
ATOM     11  C   UNL     1      13.020  19.932  15.310  0.00  0.00    +0.047 A 
ATOM     12  C   UNL     1      14.272  20.486  14.819  0.00  0.00    +0.035 A 
ATOM     32  C   UNL     1      14.232  21.344  13.682  0.00  0.00    +0.024 A 
ATOM     33  C   UNL     1      12.988  21.659  13.025  0.00  0.00    +0.007 A 
ATOM     34  C   UNL     1      11.749  21.115  13.503  0.00  0.00    -0.029 A 
ATOM     35  C   UNL     1      10.446  21.482  12.756  0.00  0.00    +0.045 C 
ENDROOT
BRANCH  10   9
ATOM      4  C   UNL     1       8.744  16.566  15.250  0.00  0.00    +0.077 A 
ATOM      5  C   UNL     1       9.544  15.697  14.436  0.00  0.00    +0.048 A 
ATOM      6  C   UNL     1      10.727  16.235  13.882  0.00  0.00    +0.116 A 
ATOM      7  N   UNL     1      11.075  17.545  14.131  0.00  0.00    -0.223 NA
ATOM      8  C   UNL     1      10.280  18.356  14.920  0.00  0.00    +0.220 A 
ATOM      9  N   UNL     1      10.614  19.674  15.190  0.00  0.00    -0.283 N 
ATOM     36  H   UNL     1       9.997  20.242  15.770  0.00  0.00    +0.155 HD
ATOM     37  N   UNL     1       9.144  17.867  15.459  0.00  0.00    -0.214 NA
BRANCH   4   3
ATOM      1  C   UNL     1       5.032  15.485  15.848  0.00  0.00    +0.020 A 
ATOM      2  C   UNL     1       6.238  15.892  15.165  0.00  0.00    +0.013 A 
ATOM      3  C   UNL     1       7.467  16.143  15.908  0.00  0.00    +0.019 A 
ATOM     38  C   UNL     1       7.441  15.973  17.353  0.00  0.00    +0.120 A 
ATOM     39  N   UNL     1       6.264  15.581  17.984  0.00  0.00    -0.263 NA
ATOM     40  C   UNL     1       5.076  15.338  17.279  0.00  0.00    +0.111 A 
ENDBRANCH   4   3
ENDBRANCH  10   9
BRANCH  12  13
ATOM     13  N   UNL     1      15.556  20.210  15.416  0.00  0.00    -0.281 N 
ATOM     14  C   UNL     1      16.161  20.865  16.475  0.00  0.00    +0.248 C 
ATOM     30  O   UNL     1      15.781  21.932  16.936  0.00  0.00    -0.270 OA
ATOM     31  H   UNL     1      16.082  19.437  15.008  0.00  0.00    +0.155 HD
BRANCH  14  15
ATOM     15  C   UNL     1      17.371  20.255  17.106  0.00  0.00    +0.037 A 
ATOM     16  C   UNL     1      18.699  20.847  16.930  0.00  0.00    +0.013 A 
ATOM     17  C   UNL     1      19.852  20.229  17.535  0.00  0.00    +0.005 A 
ATOM     18  C   UNL     1      19.681  19.011  18.323  0.00  0.00    -0.033 A 
ATOM     28  C   UNL     1      18.351  18.448  18.486  0.00  0.00    +0.005 A 
ATOM     29  C   UNL     1      17.218  19.051  17.894  0.00  0.00    +0.013 A 
BRANCH  18  19
ATOM     19  C   UNL     1      20.858  18.272  18.988  0.00  0.00    +0.119 C 
BRANCH  19  20
ATOM     20  N   UNL     1      20.527  17.268  20.042  0.00  0.00    -0.302 NA
ATOM     21  C   UNL     1      21.645  17.135  21.080  0.00  0.00    +0.066 C 
ATOM     22  C   UNL     1      21.273  16.097  22.188  0.00  0.00    -0.064 C 
ATOM     23  N   UNL     1      20.975  14.745  21.537  0.00  0.00    +0.379 N 
ATOM     24  C   UNL     1      20.681  13.752  22.581  0.00  0.00    -0.096 C 
ATOM     25  H   UNL     1      21.898  14.415  21.006  0.00  0.00    -0.082 HD
ATOM     26  C   UNL     1      19.866  14.869  20.502  0.00  0.00    -0.064 C 
ATOM     27  C   UNL     1      20.233  15.924  19.422  0.00  0.00    +0.066 C 
ENDBRANCH  19  20
ENDBRANCH  18  19
ENDBRANCH  14  15
ENDBRANCH  12  13
TORSDOF 6
ENDMDL
MODEL 5
REMARK VINA RESULT:      -8.2      5.677      7.689
REMARK  Name = C:\Users\Docking\Desktop\test protocol\1iep_ligandH.pdb
REMARK  8 active torsions:
REMARK  status: ('A' for Active; 'I' for Inactive)
REMARK    1  A    between atoms: _5  and  _11
REMARK    2  A    between atoms: _19  and  _21
REMARK    3  A    between atoms: _22  and  _66
REMARK    4  A    between atoms: _27  and  _30
REMARK    5  A    between atoms: _32  and  _33
REMARK    6  A    between atoms: _38  and  _43
REMARK    7  A    between atoms: _43  and  _46
REMARK    8  A    between atoms: _53  and  _55
REMARK                            x       y       z     vdW  Elec       q    Type
REMARK                         _______ _______ _______ _____ _____    ______ ____
ROOT
ATOM     10  C   UNL     1      12.248  20.160  14.935  0.00  0.00    +0.038 A 
ATOM     11  C   UNL     1      13.485  19.867  15.564  0.00  0.00    +0.047 A 
ATOM     12  C   UNL     1      14.734  20.413  15.057  0.00  0.00    +0.035 A 
ATOM     32  C   UNL     1      14.687  21.257  13.909  0.00  0.00    +0.024 A 
ATOM     33  C   UNL     1      13.438  21.564  13.257  0.00  0.00    +0.007 A 
ATOM     34  C   UNL     1      12.203  21.027  13.751  0.00  0.00    -0.029 A 
ATOM     35  C   UNL     1      10.894  21.385  13.008  0.00  0.00    +0.045 C 
ENDROOT
BRANCH  10   9
ATOM      4  C   UNL     1       9.046  16.607  15.332  0.00  0.00    +0.077 A 
ATOM      5  C   UNL     1       9.748  15.789  14.384  0.00  0.00    +0.048 A 
ATOM      6  C   UNL     1      10.924  16.323  13.812  0.00  0.00    +0.116 A 
ATOM      7  N   UNL     1      11.358  17.582  14.169  0.00  0.00    -0.223 NA
ATOM      8  C   UNL     1      10.657  18.345  15.085  0.00  0.00    +0.220 A 
ATOM      9  N   UNL     1      11.078  19.609  15.464  0.00  0.00    -0.283 N 
ATOM     36  H   UNL     1      10.529  20.143  16.137  0.00  0.00    +0.155 HD
ATOM     37  N   UNL     1       9.529  17.858  15.644  0.00  0.00    -0.214 NA
BRANCH   4   3
ATOM      1  C   UNL     1       5.397  15.379  16.023  0.00  0.00    +0.020 A 
ATOM      2  C   UNL     1       6.585  15.783  15.306  0.00  0.00    +0.013 A 
ATOM      3  C   UNL     1       7.789  16.181  16.024  0.00  0.00    +0.019 A 
ATOM     38  C   UNL     1       7.758  16.159  17.479  0.00  0.00    +0.120 A 
ATOM     39  N   UNL     1       6.599  15.768  18.142  0.00  0.00    -0.263 NA
ATOM     40  C   UNL     1       5.434  15.384  17.462  0.00  0.00    +0.111 A 
ENDBRANCH   4   3
ENDBRANCH  10   9
BRANCH  12  13
ATOM     13  N   UNL     1      16.022  20.144  15.648  0.00  0.00    -0.281 N 
ATOM     14  C   UNL     1      16.503  20.575  16.873  0.00  0.00    +0.248 C 
ATOM     30  O   UNL     1      15.975  21.440  17.557  0.00  0.00    -0.270 OA
ATOM     31  H   UNL     1      16.655  19.565  15.096  0.00  0.00    +0.155 HD
BRANCH  14  15
ATOM     15  C   UNL     1      17.759  19.969  17.410  0.00  0.00    +0.037 A 
ATOM     16  C   UNL     1      19.052  20.641  17.261  0.00  0.00    +0.013 A 
ATOM     17  C   UNL     1      20.251  20.026  17.772  0.00  0.00    +0.005 A 
ATOM     18  C   UNL     1      20.161  18.730  18.441  0.00  0.00    -0.033 A 
ATOM     28  C   UNL     1      18.865  18.087  18.580  0.00  0.00    +0.005 A 
ATOM     29  C   UNL     1      17.688  18.687  18.078  0.00  0.00    +0.013 A 
BRANCH  18  19
ATOM     19  C   UNL     1      21.391  17.990  18.999  0.00  0.00    +0.119 C 
BRANCH  19  20
ATOM     20  N   UNL     1      21.802  18.305  20.400  0.00  0.00    -0.302 NA
ATOM     21  C   UNL     1      22.922  19.347  20.449  0.00  0.00    +0.066 C 
ATOM     22  C   UNL     1      23.324  19.682  21.923  0.00  0.00    -0.064 C 
ATOM     23  N   UNL     1      23.747  18.398  22.637  0.00  0.00    +0.379 N 
ATOM     24  C   UNL     1      24.180  18.717  24.006  0.00  0.00    -0.096 C 
ATOM     25  H   UNL     1      24.626  17.981  22.093  0.00  0.00    -0.082 HD
ATOM     26  C   UNL     1      22.639  17.355  22.591  0.00  0.00    -0.064 C 
ATOM     27  C   UNL     1      22.227  17.051  21.123  0.00  0.00    +0.066 C 
ENDBRANCH  19  20
ENDBRANCH  18  19
ENDBRANCH  14  15
ENDBRANCH  12  13
TORSDOF 6
ENDMDL
