MODEL 1
REMARK VINA RESULT:      -7.9      0.000      0.000
REMARK  Name = C:\Users\Docking\Desktop\test protocol\1iep_ligandH.pdb
REMARK  8 active torsions:
REMARK  status: ('A' for Active; 'I' for Inactive)
REMARK    1  A    between atoms: _5  and  _11
REMARK    2  A    between atoms: _19  and  _21
REMARK    3  A    between atoms: _22  and  _66
REMARK    4  A    between atoms: _27  and  _30
REMARK    5  A    between atoms: _32  and  _33
REMARK    6  A    between atoms: _38  and  _43
REMARK    7  A    between atoms: _43  and  _46
REMARK    8  A    between atoms: _53  and  _55
REMARK                            x       y       z     vdW  Elec       q    Type
REMARK                         _______ _______ _______ _____ _____    ______ ____
ROOT
ATOM     10  C   UNL     1      11.414  20.522  14.802  0.00  0.00    +0.038 A 
ATOM     11  C   UNL     1      10.335  19.612  14.939  0.00  0.00    +0.047 A 
ATOM     12  C   UNL     1      10.566  18.178  15.015  0.00  0.00    +0.035 A 
ATOM     32  C   UNL     1      11.909  17.705  14.951  0.00  0.00    +0.024 A 
ATOM     33  C   UNL     1      13.018  18.616  14.810  0.00  0.00    +0.007 A 
ATOM     34  C   UNL     1      12.796  20.032  14.732  0.00  0.00    -0.029 A 
ATOM     35  C   UNL     1      14.022  20.961  14.576  0.00  0.00    +0.045 C 
ENDROOT
BRANCH  10   9
ATOM      4  C   UNL     1       9.974  24.435  12.424  0.00  0.00    +0.077 A 
ATOM      5  C   UNL     1       9.787  23.699  11.207  0.00  0.00    +0.048 A 
ATOM      6  C   UNL     1      10.079  22.317  11.233  0.00  0.00    +0.116 A 
ATOM      7  N   UNL     1      10.525  21.725  12.396  0.00  0.00    -0.223 NA
ATOM      8  C   UNL     1      10.696  22.465  13.552  0.00  0.00    +0.220 A 
ATOM      9  N   UNL     1      11.136  21.889  14.734  0.00  0.00    -0.283 N 
ATOM     36  H   UNL     1      11.257  22.470  15.563  0.00  0.00    +0.155 HD
ATOM     37  N   UNL     1      10.425  23.786  13.552  0.00  0.00    -0.214 NA
BRANCH   4   3
ATOM      1  C   UNL     1       8.318  27.967  12.139  0.00  0.00    +0.020 A 
ATOM      2  C   UNL     1       8.531  26.547  11.982  0.00  0.00    +0.013 A 
ATOM      3  C   UNL     1       9.705  25.902  12.557  0.00  0.00    +0.019 A 
ATOM     38  C   UNL     1      10.651  26.729  13.291  0.00  0.00    +0.120 A 
ATOM     39  N   UNL     1      10.420  28.094  13.425  0.00  0.00    -0.263 NA
ATOM     40  C   UNL     1       9.295  28.726  12.874  0.00  0.00    +0.111 A 
ENDBRANCH   4   3
ENDBRANCH  10   9
BRANCH  12  13
ATOM     13  N   UNL     1       9.509  17.205  15.146  0.00  0.00    -0.281 N 
ATOM     14  C   UNL     1       8.919  16.741  16.310  0.00  0.00    +0.248 C 
ATOM     30  O   UNL     1       9.360  16.935  17.433  0.00  0.00    -0.270 OA
ATOM     31  H   UNL     1       9.154  16.811  14.275  0.00  0.00    +0.155 HD
BRANCH  14  15
ATOM     15  C   UNL     1       7.667  15.931  16.211  0.00  0.00    +0.037 A 
ATOM     16  C   UNL     1       6.657  15.961  17.273  0.00  0.00    +0.013 A 
ATOM     17  C   UNL     1       5.466  15.157  17.160  0.00  0.00    +0.005 A 
ATOM     18  C   UNL     1       5.277  14.317  15.980  0.00  0.00    -0.033 A 
ATOM     28  C   UNL     1       6.293  14.311  14.939  0.00  0.00    +0.005 A 
ATOM     29  C   UNL     1       7.462  15.096  15.047  0.00  0.00    +0.013 A 
BRANCH  18  19
ATOM     19  C   UNL     1       4.047  13.411  15.786  0.00  0.00    +0.119 C 
BRANCH  19  20
ATOM     20  N   UNL     1       2.857  14.009  15.110  0.00  0.00    -0.302 NA
ATOM     21  C   UNL     1       1.722  14.300  16.096  0.00  0.00    +0.066 C 
ATOM     22  C   UNL     1       0.494  14.946  15.377  0.00  0.00    -0.064 C 
ATOM     23  N   UNL     1       0.015  14.019  14.259  0.00  0.00    +0.379 N 
ATOM     24  C   UNL     1      -1.175  14.596  13.618  0.00  0.00    -0.096 C 
ATOM     25  H   UNL     1      -0.287  13.053  14.727  0.00  0.00    -0.082 HD
ATOM     26  C   UNL     1       1.138  13.722  13.275  0.00  0.00    -0.064 C 
ATOM     27  C   UNL     1       2.365  13.108  14.005  0.00  0.00    +0.066 C 
ENDBRANCH  19  20
ENDBRANCH  18  19
ENDBRANCH  14  15
ENDBRANCH  12  13
TORSDOF 6
ENDMDL
MODEL 2
REMARK VINA RESULT:      -7.9      6.766     13.876
REMARK  Name = C:\Users\Docking\Desktop\test protocol\1iep_ligandH.pdb
REMARK  8 active torsions:
REMARK  status: ('A' for Active; 'I' for Inactive)
REMARK    1  A    between atoms: _5  and  _11
REMARK    2  A    between atoms: _19  and  _21
REMARK    3  A    between atoms: _22  and  _66
REMARK    4  A    between atoms: _27  and  _30
REMARK    5  A    between atoms: _32  and  _33
REMARK    6  A    between atoms: _38  and  _43
REMARK    7  A    between atoms: _43  and  _46
REMARK    8  A    between atoms: _53  and  _55
REMARK                            x       y       z     vdW  Elec       q    Type
REMARK                         _______ _______ _______ _____ _____    ______ ____
ROOT
ATOM     10  C   UNL     1      12.756  20.179  14.457  0.00  0.00    +0.038 A 
ATOM     11  C   UNL     1      13.969  19.835  15.105  0.00  0.00    +0.047 A 
ATOM     12  C   UNL     1      15.027  20.816  15.292  0.00  0.00    +0.035 A 
ATOM     32  C   UNL     1      14.813  22.140  14.808  0.00  0.00    +0.024 A 
ATOM     33  C   UNL     1      13.586  22.507  14.146  0.00  0.00    +0.007 A 
ATOM     34  C   UNL     1      12.541  21.542  13.957  0.00  0.00    -0.029 A 
ATOM     35  C   UNL     1      11.248  21.989  13.234  0.00  0.00    +0.045 C 
ENDROOT
BRANCH  10   9
ATOM      4  C   UNL     1       9.212  17.434  16.173  0.00  0.00    +0.077 A 
ATOM      5  C   UNL     1       9.346  17.983  17.492  0.00  0.00    +0.048 A 
ATOM      6  C   UNL     1      10.343  18.964  17.688  0.00  0.00    +0.116 A 
ATOM      7  N   UNL     1      11.142  19.360  16.637  0.00  0.00    -0.223 NA
ATOM      8  C   UNL     1      10.988  18.809  15.378  0.00  0.00    +0.220 A 
ATOM      9  N   UNL     1      11.774  19.197  14.304  0.00  0.00    -0.283 N 
ATOM     36  H   UNL     1      11.634  18.761  13.393  0.00  0.00    +0.155 HD
ATOM     37  N   UNL     1      10.043  17.869  15.165  0.00  0.00    -0.214 NA
BRANCH   4   3
ATOM      1  C   UNL     1       7.156  14.763  14.190  0.00  0.00    +0.020 A 
ATOM      2  C   UNL     1       8.151  15.765  14.492  0.00  0.00    +0.013 A 
ATOM      3  C   UNL     1       8.202  16.391  15.807  0.00  0.00    +0.019 A 
ATOM     38  C   UNL     1       7.225  15.976  16.802  0.00  0.00    +0.120 A 
ATOM     39  N   UNL     1       6.278  15.009  16.482  0.00  0.00    -0.263 NA
ATOM     40  C   UNL     1       6.217  14.401  15.219  0.00  0.00    +0.111 A 
ENDBRANCH   4   3
ENDBRANCH  10   9
BRANCH  12  13
ATOM     13  N   UNL     1      16.284  20.523  15.935  0.00  0.00    -0.281 N 
ATOM     14  C   UNL     1      16.674  20.841  17.226  0.00  0.00    +0.248 C 
ATOM     30  O   UNL     1      16.078  21.618  17.957  0.00  0.00    -0.270 OA
ATOM     31  H   UNL     1      16.968  20.020  15.371  0.00  0.00    +0.155 HD
BRANCH  14  15
ATOM     15  C   UNL     1      17.915  20.217  17.779  0.00  0.00    +0.037 A 
ATOM     16  C   UNL     1      17.900  18.861  18.334  0.00  0.00    +0.013 A 
ATOM     17  C   UNL     1      19.107  18.289  18.877  0.00  0.00    +0.005 A 
ATOM     18  C   UNL     1      20.339  19.073  18.866  0.00  0.00    -0.033 A 
ATOM     28  C   UNL     1      20.326  20.414  18.304  0.00  0.00    +0.005 A 
ATOM     29  C   UNL     1      19.145  20.978  17.772  0.00  0.00    +0.013 A 
BRANCH  18  19
ATOM     19  C   UNL     1      21.668  18.551  19.443  0.00  0.00    +0.119 C 
BRANCH  19  20
ATOM     20  N   UNL     1      22.063  19.037  20.799  0.00  0.00    -0.302 NA
ATOM     21  C   UNL     1      23.341  19.878  20.759  0.00  0.00    +0.066 C 
ATOM     22  C   UNL     1      23.727  20.397  22.182  0.00  0.00    -0.064 C 
ATOM     23  N   UNL     1      23.891  19.206  23.129  0.00  0.00    +0.379 N 
ATOM     24  C   UNL     1      24.310  19.686  24.453  0.00  0.00    -0.096 C 
ATOM     25  H   UNL     1      24.710  18.565  22.726  0.00  0.00    -0.082 HD
ATOM     26  C   UNL     1      22.625  18.363  23.173  0.00  0.00    -0.064 C 
ATOM     27  C   UNL     1      22.235  17.877  21.749  0.00  0.00    +0.066 C 
ENDBRANCH  19  20
ENDBRANCH  18  19
ENDBRANCH  14  15
ENDBRANCH  12  13
TORSDOF 6
ENDMDL
MODEL 3
REMARK VINA RESULT:      -7.8      0.932      1.605
REMARK  Name = C:\Users\Docking\Desktop\test protocol\1iep_ligandH.pdb
REMARK  8 active torsions:
REMARK  status: ('A' for Active; 'I' for Inactive)
REMARK    1  A    between atoms: _5  and  _11
REMARK    2  A    between atoms: _19  and  _21
REMARK    3  A    between atoms: _22  and  _66
REMARK    4  A    between atoms: _27  and  _30
REMARK    5  A    between atoms: _32  and  _33
REMARK    6  A    between atoms: _38  and  _43
REMARK    7  A    between atoms: _43  and  _46
REMARK    8  A    between atoms: _53  and  _55
REMARK                            x       y       z     vdW  Elec       q    Type
REMARK                         _______ _______ _______ _____ _____    ______ ____
ROOT
ATOM     10  C   UNL     1      11.524  20.444  14.807  0.00  0.00    +0.038 A 
ATOM     11  C   UNL     1      10.408  19.592  15.002  0.00  0.00    +0.047 A 
ATOM     12  C   UNL     1      10.566  18.147  15.066  0.00  0.00    +0.035 A 
ATOM     32  C   UNL     1      11.877  17.605  14.929  0.00  0.00    +0.024 A 
ATOM     33  C   UNL     1      13.023  18.457  14.729  0.00  0.00    +0.007 A 
ATOM     34  C   UNL     1      12.872  19.882  14.663  0.00  0.00    -0.029 A 
ATOM     35  C   UNL     1      14.135  20.747  14.441  0.00  0.00    +0.045 C 
ENDROOT
BRANCH  10   9
ATOM      4  C   UNL     1      10.108  24.427  12.532  0.00  0.00    +0.077 A 
ATOM      5  C   UNL     1       9.785  23.700  11.338  0.00  0.00    +0.048 A 
ATOM      6  C   UNL     1      10.004  22.304  11.348  0.00  0.00    +0.116 A 
ATOM      7  N   UNL     1      10.509  21.691  12.474  0.00  0.00    -0.223 NA
ATOM      8  C   UNL     1      10.812  22.421  13.608  0.00  0.00    +0.220 A 
ATOM      9  N   UNL     1      11.314  21.824  14.755  0.00  0.00    -0.283 N 
ATOM     36  H   UNL     1      11.532  22.399  15.568  0.00  0.00    +0.155 HD
ATOM     37  N   UNL     1      10.613  23.756  13.624  0.00  0.00    -0.214 NA
BRANCH   4   3
ATOM      1  C   UNL     1      10.739  28.202  13.338  0.00  0.00    +0.020 A 
ATOM      2  C   UNL     1      10.963  26.779  13.219  0.00  0.00    +0.013 A 
ATOM      3  C   UNL     1       9.929  25.906  12.678  0.00  0.00    +0.019 A 
ATOM     38  C   UNL     1       8.672  26.508  12.262  0.00  0.00    +0.120 A 
ATOM     39  N   UNL     1       8.485  27.881  12.389  0.00  0.00    -0.263 NA
ATOM     40  C   UNL     1       9.471  28.731  12.911  0.00  0.00    +0.111 A 
ENDBRANCH   4   3
ENDBRANCH  10   9
BRANCH  12  13
ATOM     13  N   UNL     1       9.469  17.231  15.254  0.00  0.00    -0.281 N 
ATOM     14  C   UNL     1       8.956  16.750  16.447  0.00  0.00    +0.248 C 
ATOM     30  O   UNL     1       9.503  16.870  17.533  0.00  0.00    -0.270 OA
ATOM     31  H   UNL     1       9.015  16.896  14.403  0.00  0.00    +0.155 HD
BRANCH  14  15
ATOM     15  C   UNL     1       7.653  16.018  16.430  0.00  0.00    +0.037 A 
ATOM     16  C   UNL     1       7.263  15.186  15.288  0.00  0.00    +0.013 A 
ATOM     17  C   UNL     1       5.994  14.504  15.290  0.00  0.00    +0.005 A 
ATOM     18  C   UNL     1       5.104  14.649  16.440  0.00  0.00    -0.033 A 
ATOM     28  C   UNL     1       5.518  15.476  17.562  0.00  0.00    +0.005 A 
ATOM     29  C   UNL     1       6.761  16.147  17.563  0.00  0.00    +0.013 A 
BRANCH  18  19
ATOM     19  C   UNL     1       3.722  13.975  16.518  0.00  0.00    +0.119 C 
BRANCH  19  20
ATOM     20  N   UNL     1       3.193  13.351  15.268  0.00  0.00    -0.302 NA
ATOM     21  C   UNL     1       1.954  14.081  14.742  0.00  0.00    +0.066 C 
ATOM     22  C   UNL     1       1.428  13.430  13.422  0.00  0.00    -0.064 C 
ATOM     23  N   UNL     1       1.120  11.952  13.673  0.00  0.00    +0.379 N 
ATOM     24  C   UNL     1       0.571  11.351  12.449  0.00  0.00    -0.096 C 
ATOM     25  H   UNL     1       0.332  11.900  14.459  0.00  0.00    -0.082 HD
ATOM     26  C   UNL     1       2.346  11.220  14.199  0.00  0.00    -0.064 C 
ATOM     27  C   UNL     1       2.879  11.893  15.495  0.00  0.00    +0.066 C 
ENDBRANCH  19  20
ENDBRANCH  18  19
ENDBRANCH  14  15
ENDBRANCH  12  13
TORSDOF 6
ENDMDL
MODEL 4
REMARK VINA RESULT:      -7.8      4.284      7.352
REMARK  Name = C:\Users\Docking\Desktop\test protocol\1iep_ligandH.pdb
REMARK  8 active torsions:
REMARK  status: ('A' for Active; 'I' for Inactive)
REMARK    1  A    between atoms: _5  and  _11
REMARK    2  A    between atoms: _19  and  _21
REMARK    3  A    between atoms: _22  and  _66
REMARK    4  A    between atoms: _27  and  _30
REMARK    5  A    between atoms: _32  and  _33
REMARK    6  A    between atoms: _38  and  _43
REMARK    7  A    between atoms: _43  and  _46
REMARK    8  A    between atoms: _53  and  _55
REMARK                            x       y       z     vdW  Elec       q    Type
REMARK                         _______ _______ _______ _____ _____    ______ ____
ROOT
ATOM     10  C   UNL     1      14.175  20.194  15.160  0.00  0.00    +0.038 A 
ATOM     11  C   UNL     1      13.218  19.159  15.315  0.00  0.00    +0.047 A 
ATOM     12  C   UNL     1      11.839  19.340  14.890  0.00  0.00    +0.035 A 
ATOM     32  C   UNL     1      11.469  20.587  14.308  0.00  0.00    +0.024 A 
ATOM     33  C   UNL     1      12.429  21.650  14.143  0.00  0.00    +0.007 A 
ATOM     34  C   UNL     1      13.790  21.479  14.563  0.00  0.00    -0.029 A 
ATOM     35  C   UNL     1      14.775  22.655  14.368  0.00  0.00    +0.045 C 
ENDROOT
BRANCH  10   9
ATOM      4  C   UNL     1      17.573  20.126  18.549  0.00  0.00    +0.077 A 
ATOM      5  C   UNL     1      16.667  20.610  19.550  0.00  0.00    +0.048 A 
ATOM      6  C   UNL     1      15.337  20.871  19.151  0.00  0.00    +0.116 A 
ATOM      7  N   UNL     1      14.953  20.660  17.844  0.00  0.00    -0.223 NA
ATOM      8  C   UNL     1      15.852  20.194  16.903  0.00  0.00    +0.220 A 
ATOM      9  N   UNL     1      15.486  19.967  15.585  0.00  0.00    -0.283 N 
ATOM     36  H   UNL     1      16.181  19.630  14.920  0.00  0.00    +0.155 HD
ATOM     37  N   UNL     1      17.128  19.938  17.259  0.00  0.00    -0.214 NA
BRANCH   4   3
ATOM      1  C   UNL     1      21.463  19.865  18.234  0.00  0.00    +0.020 A 
ATOM      2  C   UNL     1      20.092  20.204  17.929  0.00  0.00    +0.013 A 
ATOM      3  C   UNL     1      19.010  19.801  18.817  0.00  0.00    +0.019 A 
ATOM     38  C   UNL     1      19.351  19.050  20.016  0.00  0.00    +0.120 A 
ATOM     39  N   UNL     1      20.680  18.737  20.284  0.00  0.00    -0.263 NA
ATOM     40  C   UNL     1      21.730  19.118  19.435  0.00  0.00    +0.111 A 
ENDBRANCH   4   3
ENDBRANCH  10   9
BRANCH  12  13
ATOM     13  N   UNL     1      10.821  18.328  15.030  0.00  0.00    -0.281 N 
ATOM     14  C   UNL     1      10.373  17.726  16.194  0.00  0.00    +0.248 C 
ATOM     30  O   UNL     1      10.933  17.813  17.277  0.00  0.00    -0.270 OA
ATOM     31  H   UNL     1      10.377  18.018  14.166  0.00  0.00    +0.155 HD
BRANCH  14  15
ATOM     15  C   UNL     1       9.132  16.894  16.146  0.00  0.00    +0.037 A 
ATOM     16  C   UNL     1       8.462  16.457  17.374  0.00  0.00    +0.013 A 
ATOM     17  C   UNL     1       7.276  15.641  17.299  0.00  0.00    +0.005 A 
ATOM     18  C   UNL     1       6.751  15.259  15.990  0.00  0.00    -0.033 A 
ATOM     28  C   UNL     1       7.433  15.711  14.789  0.00  0.00    +0.005 A 
ATOM     29  C   UNL     1       8.596  16.509  14.858  0.00  0.00    +0.013 A 
BRANCH  18  19
ATOM     19  C   UNL     1       5.503  14.373  15.816  0.00  0.00    +0.119 C 
BRANCH  19  20
ATOM     20  N   UNL     1       4.209  15.063  15.535  0.00  0.00    -0.302 NA
ATOM     21  C   UNL     1       3.762  15.944  16.706  0.00  0.00    +0.066 C 
ATOM     22  C   UNL     1       2.418  16.675  16.386  0.00  0.00    -0.064 C 
ATOM     23  N   UNL     1       1.344  15.640  16.047  0.00  0.00    +0.379 N 
ATOM     24  C   UNL     1       0.065  16.321  15.802  0.00  0.00    -0.096 C 
ATOM     25  H   UNL     1       1.214  14.984  16.939  0.00  0.00    -0.082 HD
ATOM     26  C   UNL     1       1.782  14.758  14.886  0.00  0.00    -0.064 C 
ATOM     27  C   UNL     1       3.134  14.058  15.202  0.00  0.00    +0.066 C 
ENDBRANCH  19  20
ENDBRANCH  18  19
ENDBRANCH  14  15
ENDBRANCH  12  13
TORSDOF 6
ENDMDL
MODEL 5
REMARK VINA RESULT:      -7.7     20.685     24.441
REMARK  Name = C:\Users\Docking\Desktop\test protocol\1iep_ligandH.pdb
REMARK  8 active torsions:
REMARK  status: ('A' for Active; 'I' for Inactive)
REMARK    1  A    between atoms: _5  and  _11
REMARK    2  A    between atoms: _19  and  _21
REMARK    3  A    between atoms: _22  and  _66
REMARK    4  A    between atoms: _27  and  _30
REMARK    5  A    between atoms: _32  and  _33
REMARK    6  A    between atoms: _38  and  _43
REMARK    7  A    between atoms: _43  and  _46
REMARK    8  A    between atoms: _53  and  _55
REMARK                            x       y       z     vdW  Elec       q    Type
REMARK                         _______ _______ _______ _____ _____    ______ ____
ROOT
ATOM     10  C   UNL     1      26.785   6.861  22.998  0.00  0.00    +0.038 A 
ATOM     11  C   UNL     1      26.867   8.260  23.211  0.00  0.00    +0.047 A 
ATOM     12  C   UNL     1      27.099   8.807  24.539  0.00  0.00    +0.035 A 
ATOM     32  C   UNL     1      27.245   7.899  25.628  0.00  0.00    +0.024 A 
ATOM     33  C   UNL     1      27.164   6.473  25.429  0.00  0.00    +0.007 A 
ATOM     34  C   UNL     1      26.933   5.928  24.122  0.00  0.00    -0.029 A 
ATOM     35  C   UNL     1      26.848   4.391  23.969  0.00  0.00    +0.045 C 
ENDROOT
BRANCH  10   9
ATOM      4  C   UNL     1      24.905   7.295  18.604  0.00  0.00    +0.077 A 
ATOM      5  C   UNL     1      24.294   8.553  18.925  0.00  0.00    +0.048 A 
ATOM      6  C   UNL     1      24.482   9.050  20.234  0.00  0.00    +0.116 A 
ATOM      7  N   UNL     1      25.227   8.334  21.146  0.00  0.00    -0.223 NA
ATOM      8  C   UNL     1      25.801   7.123  20.804  0.00  0.00    +0.220 A 
ATOM      9  N   UNL     1      26.562   6.390  21.702  0.00  0.00    -0.283 N 
ATOM     36  H   UNL     1      26.962   5.498  21.413  0.00  0.00    +0.155 HD
ATOM     37  N   UNL     1      25.635   6.627  19.560  0.00  0.00    -0.214 NA
BRANCH   4   3
ATOM      1  C   UNL     1      24.649   6.714  14.744  0.00  0.00    +0.020 A 
ATOM      2  C   UNL     1      24.750   7.394  16.014  0.00  0.00    +0.013 A 
ATOM      3  C   UNL     1      24.800   6.641  17.261  0.00  0.00    +0.019 A 
ATOM     38  C   UNL     1      24.746   5.189  17.187  0.00  0.00    +0.120 A 
ATOM     39  N   UNL     1      24.647   4.561  15.949  0.00  0.00    -0.263 NA
ATOM     40  C   UNL     1      24.597   5.275  14.743  0.00  0.00    +0.111 A 
ENDBRANCH   4   3
ENDBRANCH  10   9
BRANCH  12  13
ATOM     13  N   UNL     1      27.184  10.219  24.817  0.00  0.00    -0.281 N 
ATOM     14  C   UNL     1      26.217  11.036  25.381  0.00  0.00    +0.248 C 
ATOM     30  O   UNL     1      25.048  10.717  25.536  0.00  0.00    -0.270 OA
ATOM     31  H   UNL     1      28.063  10.672  24.569  0.00  0.00    +0.155 HD
BRANCH  14  15
ATOM     15  C   UNL     1      26.601  12.411  25.823  0.00  0.00    +0.037 A 
ATOM     16  C   UNL     1      27.792  13.076  25.289  0.00  0.00    +0.013 A 
ATOM     17  C   UNL     1      28.150  14.396  25.745  0.00  0.00    +0.005 A 
ATOM     18  C   UNL     1      27.313  15.060  26.741  0.00  0.00    -0.033 A 
ATOM     28  C   UNL     1      26.134  14.380  27.251  0.00  0.00    +0.005 A 
ATOM     29  C   UNL     1      25.781  13.085  26.807  0.00  0.00    +0.013 A 
BRANCH  18  19
ATOM     19  C   UNL     1      27.630  16.460  27.301  0.00  0.00    +0.119 C 
BRANCH  19  20
ATOM     20  N   UNL     1      27.362  17.629  26.411  0.00  0.00    -0.302 NA
ATOM     21  C   UNL     1      28.397  18.742  26.598  0.00  0.00    +0.066 C 
ATOM     22  C   UNL     1      28.114  19.948  25.644  0.00  0.00    -0.064 C 
ATOM     23  N   UNL     1      26.700  20.474  25.896  0.00  0.00    +0.379 N 
ATOM     24  C   UNL     1      26.452  21.644  25.041  0.00  0.00    -0.096 C 
ATOM     25  H   UNL     1      26.650  20.813  26.957  0.00  0.00    -0.082 HD
ATOM     26  C   UNL     1      25.665  19.372  25.715  0.00  0.00    -0.064 C 
ATOM     27  C   UNL     1      25.972  18.167  26.647  0.00  0.00    +0.066 C 
ENDBRANCH  19  20
ENDBRANCH  18  19
ENDBRANCH  14  15
ENDBRANCH  12  13
TORSDOF 6
ENDMDL
