MODEL 1
REMARK VINA RESULT:     -10.7      0.000      0.000
REMARK  Name = C:\Users\Docking\Desktop\test protocol\1iep_ligandH.pdb
REMARK  8 active torsions:
REMARK  status: ('A' for Active; 'I' for Inactive)
REMARK    1  A    between atoms: _5  and  _11
REMARK    2  A    between atoms: _19  and  _21
REMARK    3  A    between atoms: _22  and  _66
REMARK    4  A    between atoms: _27  and  _30
REMARK    5  A    between atoms: _32  and  _33
REMARK    6  A    between atoms: _38  and  _43
REMARK    7  A    between atoms: _43  and  _46
REMARK    8  A    between atoms: _53  and  _55
REMARK                            x       y       z     vdW  Elec       q    Type
REMARK                         _______ _______ _______ _____ _____    ______ ____
ROOT
ATOM     10  C   UNL     1       8.260 -17.087 -14.419  0.00  0.00    +0.038 A 
ATOM     11  C   UNL     1       8.255 -18.450 -14.029  0.00  0.00    +0.047 A 
ATOM     12  C   UNL     1       9.492 -19.146 -13.709  0.00  0.00    +0.035 A 
ATOM     32  C   UNL     1      10.716 -18.421 -13.794  0.00  0.00    +0.024 A 
ATOM     33  C   UNL     1      10.740 -17.034 -14.189  0.00  0.00    +0.007 A 
ATOM     34  C   UNL     1       9.523 -16.344 -14.508  0.00  0.00    -0.029 A 
ATOM     35  C   UNL     1       9.608 -14.859 -14.933  0.00  0.00    +0.045 C 
ENDROOT
BRANCH  10   9
ATOM      4  C   UNL     1       4.829 -15.752 -17.498  0.00  0.00    +0.077 A 
ATOM      5  C   UNL     1       5.534 -16.310 -18.617  0.00  0.00    +0.048 A 
ATOM      6  C   UNL     1       6.779 -16.925 -18.358  0.00  0.00    +0.116 A 
ATOM      7  N   UNL     1       7.273 -16.974 -17.072  0.00  0.00    -0.223 NA
ATOM      8  C   UNL     1       6.569 -16.424 -16.016  0.00  0.00    +0.220 A 
ATOM      9  N   UNL     1       7.043 -16.468 -14.714  0.00  0.00    -0.283 N 
ATOM     36  H   UNL     1       6.497 -16.045 -13.964  0.00  0.00    +0.155 HD
ATOM     37  N   UNL     1       5.378 -15.829 -16.238  0.00  0.00    -0.214 NA
BRANCH   4   3
ATOM      1  C   UNL     1       1.537 -14.204 -18.936  0.00  0.00    +0.020 A 
ATOM      2  C   UNL     1       2.820 -14.867 -18.883  0.00  0.00    +0.013 A 
ATOM      3  C   UNL     1       3.500 -15.071 -17.610  0.00  0.00    +0.019 A 
ATOM     38  C   UNL     1       2.850 -14.591 -16.401  0.00  0.00    +0.120 A 
ATOM     39  N   UNL     1       1.615 -13.955 -16.483  0.00  0.00    -0.263 NA
ATOM     40  C   UNL     1       0.952 -13.751 -17.702  0.00  0.00    +0.111 A 
ENDBRANCH   4   3
ENDBRANCH  10   9
BRANCH  12  13
ATOM     13  N   UNL     1       9.550 -20.532 -13.315  0.00  0.00    -0.281 N 
ATOM     14  C   UNL     1       9.814 -21.050 -12.058  0.00  0.00    +0.248 C 
ATOM     30  O   UNL     1      10.253 -20.400 -11.121  0.00  0.00    -0.270 OA
ATOM     31  H   UNL     1       9.375 -21.214 -14.053  0.00  0.00    +0.155 HD
BRANCH  14  15
ATOM     15  C   UNL     1       9.568 -22.503 -11.809  0.00  0.00    +0.037 A 
ATOM     16  C   UNL     1      10.415 -23.271 -10.894  0.00  0.00    +0.013 A 
ATOM     17  C   UNL     1      10.167 -24.676 -10.685  0.00  0.00    +0.005 A 
ATOM     18  C   UNL     1       9.063 -25.321 -11.393  0.00  0.00    -0.033 A 
ATOM     28  C   UNL     1       8.235 -24.533 -12.291  0.00  0.00    +0.005 A 
ATOM     29  C   UNL     1       8.477 -23.157 -12.499  0.00  0.00    +0.013 A 
BRANCH  18  19
ATOM     19  C   UNL     1       8.738 -26.819 -11.247  0.00  0.00    +0.119 C 
BRANCH  19  20
ATOM     20  N   UNL     1       7.977 -27.238 -10.033  0.00  0.00    -0.302 NA
ATOM     21  C   UNL     1       8.623 -28.438  -9.335  0.00  0.00    +0.066 C 
ATOM     22  C   UNL     1       7.827 -28.849  -8.054  0.00  0.00    -0.064 C 
ATOM     23  N   UNL     1       6.379 -29.160  -8.436  0.00  0.00    +0.379 N 
ATOM     24  C   UNL     1       5.641 -29.603  -7.243  0.00  0.00    -0.096 C 
ATOM     25  H   UNL     1       6.395 -30.009  -9.158  0.00  0.00    -0.082 HD
ATOM     26  C   UNL     1       5.729 -27.974  -9.133  0.00  0.00    -0.064 C 
ATOM     27  C   UNL     1       6.545 -27.555 -10.387  0.00  0.00    +0.066 C 
ENDBRANCH  19  20
ENDBRANCH  18  19
ENDBRANCH  14  15
ENDBRANCH  12  13
TORSDOF 6
ENDMDL
MODEL 2
REMARK VINA RESULT:     -10.7      1.815      2.676
REMARK  Name = C:\Users\Docking\Desktop\test protocol\1iep_ligandH.pdb
REMARK  8 active torsions:
REMARK  status: ('A' for Active; 'I' for Inactive)
REMARK    1  A    between atoms: _5  and  _11
REMARK    2  A    between atoms: _19  and  _21
REMARK    3  A    between atoms: _22  and  _66
REMARK    4  A    between atoms: _27  and  _30
REMARK    5  A    between atoms: _32  and  _33
REMARK    6  A    between atoms: _38  and  _43
REMARK    7  A    between atoms: _43  and  _46
REMARK    8  A    between atoms: _53  and  _55
REMARK                            x       y       z     vdW  Elec       q    Type
REMARK                         _______ _______ _______ _____ _____    ______ ____
ROOT
ATOM     10  C   UNL     1       8.276 -17.243 -14.401  0.00  0.00    +0.038 A 
ATOM     11  C   UNL     1       8.277 -18.612 -14.028  0.00  0.00    +0.047 A 
ATOM     12  C   UNL     1       9.505 -19.283 -13.634  0.00  0.00    +0.035 A 
ATOM     32  C   UNL     1      10.715 -18.529 -13.628  0.00  0.00    +0.024 A 
ATOM     33  C   UNL     1      10.732 -17.138 -14.005  0.00  0.00    +0.007 A 
ATOM     34  C   UNL     1       9.524 -16.471 -14.398  0.00  0.00    -0.029 A 
ATOM     35  C   UNL     1       9.603 -14.979 -14.798  0.00  0.00    +0.045 C 
ENDROOT
BRANCH  10   9
ATOM      4  C   UNL     1       5.048 -15.908 -17.694  0.00  0.00    +0.077 A 
ATOM      5  C   UNL     1       5.850 -16.413 -18.770  0.00  0.00    +0.048 A 
ATOM      6  C   UNL     1       7.090 -17.003 -18.435  0.00  0.00    +0.116 A 
ATOM      7  N   UNL     1       7.487 -17.076 -17.118  0.00  0.00    -0.223 NA
ATOM      8  C   UNL     1       6.691 -16.578 -16.104  0.00  0.00    +0.220 A 
ATOM      9  N   UNL     1       7.067 -16.649 -14.771  0.00  0.00    -0.283 N 
ATOM     36  H   UNL     1       6.455 -16.263 -14.053  0.00  0.00    +0.155 HD
ATOM     37  N   UNL     1       5.503 -16.009 -16.398  0.00  0.00    -0.214 NA
BRANCH   4   3
ATOM      1  C   UNL     1       1.457 -15.076 -19.002  0.00  0.00    +0.020 A 
ATOM      2  C   UNL     1       2.733 -15.737 -18.855  0.00  0.00    +0.013 A 
ATOM      3  C   UNL     1       3.713 -15.260 -17.887  0.00  0.00    +0.019 A 
ATOM     38  C   UNL     1       3.367 -14.102 -17.076  0.00  0.00    +0.120 A 
ATOM     39  N   UNL     1       2.131 -13.484 -17.241  0.00  0.00    -0.263 NA
ATOM     40  C   UNL     1       1.181 -13.934 -18.171  0.00  0.00    +0.111 A 
ENDBRANCH   4   3
ENDBRANCH  10   9
BRANCH  12  13
ATOM     13  N   UNL     1       9.569 -20.672 -13.253  0.00  0.00    -0.281 N 
ATOM     14  C   UNL     1       9.877 -21.201 -12.011  0.00  0.00    +0.248 C 
ATOM     30  O   UNL     1      10.356 -20.561 -11.086  0.00  0.00    -0.270 OA
ATOM     31  H   UNL     1       9.362 -21.348 -13.989  0.00  0.00    +0.155 HD
BRANCH  14  15
ATOM     15  C   UNL     1       9.632 -22.655 -11.764  0.00  0.00    +0.037 A 
ATOM     16  C   UNL     1      10.344 -23.377 -10.707  0.00  0.00    +0.013 A 
ATOM     17  C   UNL     1      10.101 -24.783 -10.501  0.00  0.00    +0.005 A 
ATOM     18  C   UNL     1       9.138 -25.475 -11.354  0.00  0.00    -0.033 A 
ATOM     28  C   UNL     1       8.441 -24.733 -12.391  0.00  0.00    +0.005 A 
ATOM     29  C   UNL     1       8.678 -23.356 -12.597  0.00  0.00    +0.013 A 
BRANCH  18  19
ATOM     19  C   UNL     1       8.831 -26.979 -11.219  0.00  0.00    +0.119 C 
BRANCH  19  20
ATOM     20  N   UNL     1       9.211 -27.859 -12.364  0.00  0.00    -0.302 NA
ATOM     21  C   UNL     1       9.051 -29.344 -12.025  0.00  0.00    +0.066 C 
ATOM     22  C   UNL     1       9.432 -30.250 -13.240  0.00  0.00    -0.064 C 
ATOM     23  N   UNL     1      10.868 -29.945 -13.670  0.00  0.00    +0.379 N 
ATOM     24  C   UNL     1      11.248 -30.836 -14.776  0.00  0.00    -0.096 C 
ATOM     25  H   UNL     1      11.535 -30.173 -12.807  0.00  0.00    -0.082 HD
ATOM     26  C   UNL     1      11.037 -28.470 -14.007  0.00  0.00    -0.064 C 
ATOM     27  C   UNL     1      10.628 -27.578 -12.802  0.00  0.00    +0.066 C 
ENDBRANCH  19  20
ENDBRANCH  18  19
ENDBRANCH  14  15
ENDBRANCH  12  13
TORSDOF 6
ENDMDL
MODEL 3
REMARK VINA RESULT:     -10.6      4.111     12.648
REMARK  Name = C:\Users\Docking\Desktop\test protocol\1iep_ligandH.pdb
REMARK  8 active torsions:
REMARK  status: ('A' for Active; 'I' for Inactive)
REMARK    1  A    between atoms: _5  and  _11
REMARK    2  A    between atoms: _19  and  _21
REMARK    3  A    between atoms: _22  and  _66
REMARK    4  A    between atoms: _27  and  _30
REMARK    5  A    between atoms: _32  and  _33
REMARK    6  A    between atoms: _38  and  _43
REMARK    7  A    between atoms: _43  and  _46
REMARK    8  A    between atoms: _53  and  _55
REMARK                            x       y       z     vdW  Elec       q    Type
REMARK                         _______ _______ _______ _____ _____    ______ ____
ROOT
ATOM     10  C   UNL     1      10.004 -25.722 -12.336  0.00  0.00    +0.038 A 
ATOM     11  C   UNL     1       9.933 -24.407 -12.863  0.00  0.00    +0.047 A 
ATOM     12  C   UNL     1       9.967 -23.244 -11.990  0.00  0.00    +0.035 A 
ATOM     32  C   UNL     1      10.077 -23.457 -10.585  0.00  0.00    +0.024 A 
ATOM     33  C   UNL     1      10.149 -24.787 -10.032  0.00  0.00    +0.007 A 
ATOM     34  C   UNL     1      10.114 -25.938 -10.889  0.00  0.00    -0.029 A 
ATOM     35  C   UNL     1      10.188 -27.340 -10.241  0.00  0.00    +0.045 C 
ENDROOT
BRANCH  10   9
ATOM      4  C   UNL     1      12.155 -29.076 -15.013  0.00  0.00    +0.077 A 
ATOM      5  C   UNL     1      13.463 -28.620 -14.638  0.00  0.00    +0.048 A 
ATOM      6  C   UNL     1      13.539 -27.516 -13.760  0.00  0.00    +0.116 A 
ATOM      7  N   UNL     1      12.386 -26.919 -13.298  0.00  0.00    -0.223 NA
ATOM      8  C   UNL     1      11.140 -27.382 -13.680  0.00  0.00    +0.220 A 
ATOM      9  N   UNL     1       9.968 -26.802 -13.221  0.00  0.00    -0.283 N 
ATOM     36  H   UNL     1       9.069 -27.168 -13.532  0.00  0.00    +0.155 HD
ATOM     37  N   UNL     1      11.041 -28.435 -14.518  0.00  0.00    -0.214 NA
BRANCH   4   3
ATOM      1  C   UNL     1      10.657 -31.386 -17.791  0.00  0.00    +0.020 A 
ATOM      2  C   UNL     1      10.851 -30.243 -16.929  0.00  0.00    +0.013 A 
ATOM      3  C   UNL     1      11.911 -30.234 -15.930  0.00  0.00    +0.019 A 
ATOM     38  C   UNL     1      12.766 -31.407 -15.827  0.00  0.00    +0.120 A 
ATOM     39  N   UNL     1      12.555 -32.494 -16.669  0.00  0.00    -0.263 NA
ATOM     40  C   UNL     1      11.537 -32.515 -17.634  0.00  0.00    +0.111 A 
ENDBRANCH   4   3
ENDBRANCH  10   9
BRANCH  12  13
ATOM     13  N   UNL     1       9.891 -21.885 -12.466  0.00  0.00    -0.281 N 
ATOM     14  C   UNL     1      10.915 -21.099 -12.967  0.00  0.00    +0.248 C 
ATOM     30  O   UNL     1      12.103 -21.375 -12.882  0.00  0.00    -0.270 OA
ATOM     31  H   UNL     1       8.969 -21.450 -12.429  0.00  0.00    +0.155 HD
BRANCH  14  15
ATOM     15  C   UNL     1      10.573 -19.813 -13.648  0.00  0.00    +0.037 A 
ATOM     16  C   UNL     1      10.179 -18.629 -12.881  0.00  0.00    +0.013 A 
ATOM     17  C   UNL     1       9.837 -17.406 -13.563  0.00  0.00    +0.005 A 
ATOM     18  C   UNL     1       9.889 -17.362 -15.023  0.00  0.00    -0.033 A 
ATOM     28  C   UNL     1      10.288 -18.550 -15.758  0.00  0.00    +0.005 A 
ATOM     29  C   UNL     1      10.623 -19.751 -15.093  0.00  0.00    +0.013 A 
BRANCH  18  19
ATOM     19  C   UNL     1       9.520 -16.106 -15.835  0.00  0.00    +0.119 C 
BRANCH  19  20
ATOM     20  N   UNL     1       8.115 -15.999 -16.328  0.00  0.00    -0.302 NA
ATOM     21  C   UNL     1       7.108 -16.554 -15.317  0.00  0.00    +0.066 C 
ATOM     22  C   UNL     1       5.641 -16.414 -15.840  0.00  0.00    -0.064 C 
ATOM     23  N   UNL     1       5.510 -17.131 -17.185  0.00  0.00    +0.379 N 
ATOM     24  C   UNL     1       4.118 -17.050 -17.651  0.00  0.00    -0.096 C 
ATOM     25  H   UNL     1       5.749 -18.207 -17.018  0.00  0.00    -0.082 HD
ATOM     26  C   UNL     1       6.510 -16.587 -18.195  0.00  0.00    -0.064 C 
ATOM     27  C   UNL     1       7.962 -16.704 -17.653  0.00  0.00    +0.066 C 
ENDBRANCH  19  20
ENDBRANCH  18  19
ENDBRANCH  14  15
ENDBRANCH  12  13
TORSDOF 6
ENDMDL
MODEL 4
REMARK VINA RESULT:     -10.6      3.891      6.882
REMARK  Name = C:\Users\Docking\Desktop\test protocol\1iep_ligandH.pdb
REMARK  8 active torsions:
REMARK  status: ('A' for Active; 'I' for Inactive)
REMARK    1  A    between atoms: _5  and  _11
REMARK    2  A    between atoms: _19  and  _21
REMARK    3  A    between atoms: _22  and  _66
REMARK    4  A    between atoms: _27  and  _30
REMARK    5  A    between atoms: _32  and  _33
REMARK    6  A    between atoms: _38  and  _43
REMARK    7  A    between atoms: _43  and  _46
REMARK    8  A    between atoms: _53  and  _55
REMARK                            x       y       z     vdW  Elec       q    Type
REMARK                         _______ _______ _______ _____ _____    ______ ____
ROOT
ATOM     10  C   UNL     1      12.054 -23.448 -14.137  0.00  0.00    +0.038 A 
ATOM     11  C   UNL     1      11.132 -24.329 -13.515  0.00  0.00    +0.047 A 
ATOM     12  C   UNL     1      11.535 -25.659 -13.086  0.00  0.00    +0.035 A 
ATOM     32  C   UNL     1      12.885 -26.059 -13.304  0.00  0.00    +0.024 A 
ATOM     33  C   UNL     1      13.835 -25.177 -13.935  0.00  0.00    +0.007 A 
ATOM     34  C   UNL     1      13.443 -23.865 -14.363  0.00  0.00    -0.029 A 
ATOM     35  C   UNL     1      14.502 -22.964 -15.040  0.00  0.00    +0.045 C 
ENDROOT
BRANCH  10   9
ATOM      4  C   UNL     1      10.209 -19.123 -13.174  0.00  0.00    +0.077 A 
ATOM      5  C   UNL     1      10.089 -19.420 -11.776  0.00  0.00    +0.048 A 
ATOM      6  C   UNL     1      10.506 -20.700 -11.346  0.00  0.00    +0.116 A 
ATOM      7  N   UNL     1      11.005 -21.607 -12.256  0.00  0.00    -0.223 NA
ATOM      8  C   UNL     1      11.106 -21.289 -13.598  0.00  0.00    +0.220 A 
ATOM      9  N   UNL     1      11.613 -22.182 -14.529  0.00  0.00    -0.283 N 
ATOM     36  H   UNL     1      11.664 -21.912 -15.511  0.00  0.00    +0.155 HD
ATOM     37  N   UNL     1      10.714 -20.073 -14.033  0.00  0.00    -0.214 NA
BRANCH   4   3
ATOM      1  C   UNL     1       8.134 -16.250 -14.829  0.00  0.00    +0.020 A 
ATOM      2  C   UNL     1       8.464 -17.533 -14.251  0.00  0.00    +0.013 A 
ATOM      3  C   UNL     1       9.814 -17.812 -13.780  0.00  0.00    +0.019 A 
ATOM     38  C   UNL     1      10.815 -16.764 -13.909  0.00  0.00    +0.120 A 
ATOM     39  N   UNL     1      10.469 -15.539 -14.471  0.00  0.00    -0.263 NA
ATOM     40  C   UNL     1       9.173 -15.260 -14.929  0.00  0.00    +0.111 A 
ENDBRANCH   4   3
ENDBRANCH  10   9
BRANCH  12  13
ATOM     13  N   UNL     1      10.641 -26.600 -12.457  0.00  0.00    -0.281 N 
ATOM     14  C   UNL     1      10.336 -26.715 -11.111  0.00  0.00    +0.248 C 
ATOM     30  O   UNL     1      10.952 -26.161 -10.213  0.00  0.00    -0.270 OA
ATOM     31  H   UNL     1      10.177 -27.261 -13.080  0.00  0.00    +0.155 HD
BRANCH  14  15
ATOM     15  C   UNL     1       9.190 -27.582 -10.702  0.00  0.00    +0.037 A 
ATOM     16  C   UNL     1       8.878 -28.820 -11.422  0.00  0.00    +0.013 A 
ATOM     17  C   UNL     1       7.756 -29.629 -11.017  0.00  0.00    +0.005 A 
ATOM     18  C   UNL     1       6.937 -29.203  -9.885  0.00  0.00    -0.033 A 
ATOM     28  C   UNL     1       7.272 -27.974  -9.185  0.00  0.00    +0.005 A 
ATOM     29  C   UNL     1       8.370 -27.178  -9.579  0.00  0.00    +0.013 A 
BRANCH  18  19
ATOM     19  C   UNL     1       5.709 -29.994  -9.397  0.00  0.00    +0.119 C 
BRANCH  19  20
ATOM     20  N   UNL     1       4.369 -29.538  -9.874  0.00  0.00    -0.302 NA
ATOM     21  C   UNL     1       4.444 -28.883 -11.256  0.00  0.00    +0.066 C 
ATOM     22  C   UNL     1       3.031 -28.433 -11.750  0.00  0.00    -0.064 C 
ATOM     23  N   UNL     1       2.418 -27.474 -10.728  0.00  0.00    +0.379 N 
ATOM     24  C   UNL     1       1.114 -27.004 -11.218  0.00  0.00    -0.096 C 
ATOM     25  H   UNL     1       3.090 -26.588 -10.651  0.00  0.00    -0.082 HD
ATOM     26  C   UNL     1       2.342 -28.117  -9.351  0.00  0.00    -0.064 C 
ATOM     27  C   UNL     1       3.747 -28.587  -8.882  0.00  0.00    +0.066 C 
ENDBRANCH  19  20
ENDBRANCH  18  19
ENDBRANCH  14  15
ENDBRANCH  12  13
TORSDOF 6
ENDMDL
MODEL 5
REMARK VINA RESULT:     -10.6      3.531     11.383
REMARK  Name = C:\Users\Docking\Desktop\test protocol\1iep_ligandH.pdb
REMARK  8 active torsions:
REMARK  status: ('A' for Active; 'I' for Inactive)
REMARK    1  A    between atoms: _5  and  _11
REMARK    2  A    between atoms: _19  and  _21
REMARK    3  A    between atoms: _22  and  _66
REMARK    4  A    between atoms: _27  and  _30
REMARK    5  A    between atoms: _32  and  _33
REMARK    6  A    between atoms: _38  and  _43
REMARK    7  A    between atoms: _43  and  _46
REMARK    8  A    between atoms: _53  and  _55
REMARK                            x       y       z     vdW  Elec       q    Type
REMARK                         _______ _______ _______ _____ _____    ______ ____
ROOT
ATOM     10  C   UNL     1       9.389 -17.893 -14.918  0.00  0.00    +0.038 A 
ATOM     11  C   UNL     1       7.999 -17.659 -15.076  0.00  0.00    +0.047 A 
ATOM     12  C   UNL     1       7.462 -16.307 -15.107  0.00  0.00    +0.035 A 
ATOM     32  C   UNL     1       8.371 -15.216 -14.977  0.00  0.00    +0.024 A 
ATOM     33  C   UNL     1       9.787 -15.436 -14.815  0.00  0.00    +0.007 A 
ATOM     34  C   UNL     1      10.321 -16.768 -14.781  0.00  0.00    -0.029 A 
ATOM     35  C   UNL     1      11.847 -16.944 -14.598  0.00  0.00    +0.045 C 
ENDROOT
BRANCH  10   9
ATOM      4  C   UNL     1      10.817 -21.838 -12.586  0.00  0.00    +0.077 A 
ATOM      5  C   UNL     1      10.657 -21.211 -11.306  0.00  0.00    +0.048 A 
ATOM      6  C   UNL     1      10.212 -19.869 -11.291  0.00  0.00    +0.116 A 
ATOM      7  N   UNL     1       9.949 -19.215 -12.475  0.00  0.00    -0.223 NA
ATOM      8  C   UNL     1      10.115 -19.848 -13.693  0.00  0.00    +0.220 A 
ATOM      9  N   UNL     1       9.849 -19.211 -14.895  0.00  0.00    -0.283 N 
ATOM     36  H   UNL     1       9.992 -19.711 -15.773  0.00  0.00    +0.155 HD
ATOM     37  N   UNL     1      10.540 -21.128 -13.734  0.00  0.00    -0.214 NA
BRANCH   4   3
ATOM      1  C   UNL     1      12.797 -24.999 -13.765  0.00  0.00    +0.020 A 
ATOM      2  C   UNL     1      12.393 -23.618 -13.627  0.00  0.00    +0.013 A 
ATOM      3  C   UNL     1      11.276 -23.251 -12.766  0.00  0.00    +0.019 A 
ATOM     38  C   UNL     1      10.583 -24.314 -12.053  0.00  0.00    +0.120 A 
ATOM     39  N   UNL     1      10.993 -25.634 -12.207  0.00  0.00    -0.263 NA
ATOM     40  C   UNL     1      12.066 -25.999 -13.034  0.00  0.00    +0.111 A 
ENDBRANCH   4   3
ENDBRANCH  10   9
BRANCH  12  13
ATOM     13  N   UNL     1       6.060 -16.008 -15.257  0.00  0.00    -0.281 N 
ATOM     14  C   UNL     1       5.327 -15.928 -16.430  0.00  0.00    +0.248 C 
ATOM     30  O   UNL     1       5.815 -15.892 -17.549  0.00  0.00    -0.270 OA
ATOM     31  H   UNL     1       5.545 -15.834 -14.394  0.00  0.00    +0.155 HD
BRANCH  14  15
ATOM     15  C   UNL     1       3.836 -15.865 -16.346  0.00  0.00    +0.037 A 
ATOM     16  C   UNL     1       3.057 -16.984 -15.810  0.00  0.00    +0.013 A 
ATOM     17  C   UNL     1       1.618 -16.904 -15.756  0.00  0.00    +0.005 A 
ATOM     18  C   UNL     1       0.950 -15.698 -16.240  0.00  0.00    -0.033 A 
ATOM     28  C   UNL     1       1.747 -14.601 -16.762  0.00  0.00    +0.005 A 
ATOM     29  C   UNL     1       3.157 -14.676 -16.817  0.00  0.00    +0.013 A 
BRANCH  18  19
ATOM     19  C   UNL     1      -0.582 -15.534 -16.240  0.00  0.00    +0.119 C 
BRANCH  19  20
ATOM     20  N   UNL     1      -1.262 -15.465 -14.913  0.00  0.00    -0.302 NA
ATOM     21  C   UNL     1      -0.421 -14.717 -13.874  0.00  0.00    +0.066 C 
ATOM     22  C   UNL     1      -1.158 -14.635 -12.498  0.00  0.00    -0.064 C 
ATOM     23  N   UNL     1      -1.487 -16.048 -12.013  0.00  0.00    +0.379 N 
ATOM     24  C   UNL     1      -2.128 -15.977 -10.692  0.00  0.00    -0.096 C 
ATOM     25  H   UNL     1      -0.524 -16.596 -11.893  0.00  0.00    -0.082 HD
ATOM     26  C   UNL     1      -2.321 -16.799 -13.041  0.00  0.00    -0.064 C 
ATOM     27  C   UNL     1      -1.592 -16.850 -14.413  0.00  0.00    +0.066 C 
ENDBRANCH  19  20
ENDBRANCH  18  19
ENDBRANCH  14  15
ENDBRANCH  12  13
TORSDOF 6
ENDMDL
