MODEL 1
REMARK VINA RESULT:      -9.0      0.000      0.000
REMARK  Name = C:\Users\Docking\Desktop\test protocol\1iep_ligandH.pdb
REMARK  8 active torsions:
REMARK  status: ('A' for Active; 'I' for Inactive)
REMARK    1  A    between atoms: _5  and  _11
REMARK    2  A    between atoms: _19  and  _21
REMARK    3  A    between atoms: _22  and  _66
REMARK    4  A    between atoms: _27  and  _30
REMARK    5  A    between atoms: _32  and  _33
REMARK    6  A    between atoms: _38  and  _43
REMARK    7  A    between atoms: _43  and  _46
REMARK    8  A    between atoms: _53  and  _55
REMARK                            x       y       z     vdW  Elec       q    Type
REMARK                         _______ _______ _______ _____ _____    ______ ____
ROOT
ATOM     10  C   UNL     1       8.981  20.720  45.425  0.00  0.00    +0.038 A 
ATOM     11  C   UNL     1       9.451  19.486  44.907  0.00  0.00    +0.047 A 
ATOM     12  C   UNL     1      10.167  19.425  43.642  0.00  0.00    +0.035 A 
ATOM     32  C   UNL     1      10.389  20.640  42.932  0.00  0.00    +0.024 A 
ATOM     33  C   UNL     1       9.917  21.903  43.443  0.00  0.00    +0.007 A 
ATOM     34  C   UNL     1       9.209  21.970  44.689  0.00  0.00    -0.029 A 
ATOM     35  C   UNL     1       8.720  23.350  45.186  0.00  0.00    +0.045 C 
ENDROOT
BRANCH  10   9
ATOM      4  C   UNL     1       5.140  19.731  48.128  0.00  0.00    +0.077 A 
ATOM      5  C   UNL     1       4.420  19.191  47.011  0.00  0.00    +0.048 A 
ATOM      6  C   UNL     1       5.071  19.193  45.757  0.00  0.00    +0.116 A 
ATOM      7  N   UNL     1       6.347  19.699  45.640  0.00  0.00    -0.223 NA
ATOM      8  C   UNL     1       7.013  20.214  46.737  0.00  0.00    +0.220 A 
ATOM      9  N   UNL     1       8.300  20.721  46.644  0.00  0.00    -0.283 N 
ATOM     36  H   UNL     1       8.754  21.098  47.475  0.00  0.00    +0.155 HD
ATOM     37  N   UNL     1       6.413  20.225  47.946  0.00  0.00    -0.214 NA
BRANCH   4   3
ATOM      1  C   UNL     1       4.168  18.816  51.805  0.00  0.00    +0.020 A 
ATOM      2  C   UNL     1       4.718  18.703  50.474  0.00  0.00    +0.013 A 
ATOM      3  C   UNL     1       4.589  19.796  49.518  0.00  0.00    +0.019 A 
ATOM     38  C   UNL     1       3.892  21.000  49.945  0.00  0.00    +0.120 A 
ATOM     39  N   UNL     1       3.371  21.080  51.233  0.00  0.00    -0.263 NA
ATOM     40  C   UNL     1       3.488  20.034  52.160  0.00  0.00    +0.111 A 
ENDBRANCH   4   3
ENDBRANCH  10   9
BRANCH  12  13
ATOM     13  N   UNL     1      10.660  18.200  43.063  0.00  0.00    -0.281 N 
ATOM     14  C   UNL     1      10.052  17.406  42.104  0.00  0.00    +0.248 C 
ATOM     30  O   UNL     1       8.887  17.516  41.754  0.00  0.00    -0.270 OA
ATOM     31  H   UNL     1      11.568  17.880  43.400  0.00  0.00    +0.155 HD
BRANCH  14  15
ATOM     15  C   UNL     1      10.850  16.323  41.452  0.00  0.00    +0.037 A 
ATOM     16  C   UNL     1      10.203  15.129  40.901  0.00  0.00    +0.013 A 
ATOM     17  C   UNL     1      10.997  14.092  40.292  0.00  0.00    +0.005 A 
ATOM     18  C   UNL     1      12.449  14.245  40.230  0.00  0.00    -0.033 A 
ATOM     28  C   UNL     1      13.064  15.442  40.779  0.00  0.00    +0.005 A 
ATOM     29  C   UNL     1      12.289  16.460  41.378  0.00  0.00    +0.013 A 
BRANCH  18  19
ATOM     19  C   UNL     1      13.377  13.179  39.617  0.00  0.00    +0.119 C 
BRANCH  19  20
ATOM     20  N   UNL     1      13.541  11.901  40.371  0.00  0.00    -0.302 NA
ATOM     21  C   UNL     1      12.403  10.916  40.086  0.00  0.00    +0.066 C 
ATOM     22  C   UNL     1      12.603   9.575  40.866  0.00  0.00    -0.064 C 
ATOM     23  N   UNL     1      12.703   9.869  42.364  0.00  0.00    +0.379 N 
ATOM     24  C   UNL     1      12.832   8.606  43.104  0.00  0.00    -0.096 C 
ATOM     25  H   UNL     1      11.747  10.350  42.678  0.00  0.00    -0.082 HD
ATOM     26  C   UNL     1      13.829  10.850  42.655  0.00  0.00    -0.064 C 
ATOM     27  C   UNL     1      13.637  12.168  41.853  0.00  0.00    +0.066 C 
ENDBRANCH  19  20
ENDBRANCH  18  19
ENDBRANCH  14  15
ENDBRANCH  12  13
TORSDOF 6
ENDMDL
MODEL 2
REMARK VINA RESULT:      -8.7      2.631     12.495
REMARK  Name = C:\Users\Docking\Desktop\test protocol\1iep_ligandH.pdb
REMARK  8 active torsions:
REMARK  status: ('A' for Active; 'I' for Inactive)
REMARK    1  A    between atoms: _5  and  _11
REMARK    2  A    between atoms: _19  and  _21
REMARK    3  A    between atoms: _22  and  _66
REMARK    4  A    between atoms: _27  and  _30
REMARK    5  A    between atoms: _32  and  _33
REMARK    6  A    between atoms: _38  and  _43
REMARK    7  A    between atoms: _43  and  _46
REMARK    8  A    between atoms: _53  and  _55
REMARK                            x       y       z     vdW  Elec       q    Type
REMARK                         _______ _______ _______ _____ _____    ______ ____
ROOT
ATOM     10  C   UNL     1      10.181  16.385  40.863  0.00  0.00    +0.038 A 
ATOM     11  C   UNL     1       9.520  16.767  42.058  0.00  0.00    +0.047 A 
ATOM     12  C   UNL     1       9.956  17.926  42.822  0.00  0.00    +0.035 A 
ATOM     32  C   UNL     1      11.068  18.675  42.338  0.00  0.00    +0.024 A 
ATOM     33  C   UNL     1      11.752  18.300  41.125  0.00  0.00    +0.007 A 
ATOM     34  C   UNL     1      11.328  17.157  40.369  0.00  0.00    -0.029 A 
ATOM     35  C   UNL     1      12.103  16.798  39.080  0.00  0.00    +0.045 C 
ENDROOT
BRANCH  10   9
ATOM      4  C   UNL     1      10.487  11.762  39.610  0.00  0.00    +0.077 A 
ATOM      5  C   UNL     1      11.681  11.571  40.382  0.00  0.00    +0.048 A 
ATOM      6  C   UNL     1      12.188  12.689  41.080  0.00  0.00    +0.116 A 
ATOM      7  N   UNL     1      11.541  13.904  41.006  0.00  0.00    -0.223 NA
ATOM      8  C   UNL     1      10.392  14.054  40.252  0.00  0.00    +0.220 A 
ATOM      9  N   UNL     1       9.720  15.264  40.169  0.00  0.00    -0.283 N 
ATOM     36  H   UNL     1       8.880  15.336  39.596  0.00  0.00    +0.155 HD
ATOM     37  N   UNL     1       9.888  13.002  39.574  0.00  0.00    -0.214 NA
BRANCH   4   3
ATOM      1  C   UNL     1       8.212   8.753  38.576  0.00  0.00    +0.020 A 
ATOM      2  C   UNL     1       8.819   9.786  39.383  0.00  0.00    +0.013 A 
ATOM      3  C   UNL     1       9.827  10.675  38.819  0.00  0.00    +0.019 A 
ATOM     38  C   UNL     1      10.201  10.492  37.425  0.00  0.00    +0.120 A 
ATOM     39  N   UNL     1       9.601   9.487  36.673  0.00  0.00    -0.263 NA
ATOM     40  C   UNL     1       8.631   8.624  37.205  0.00  0.00    +0.111 A 
ENDBRANCH   4   3
ENDBRANCH  10   9
BRANCH  12  13
ATOM     13  N   UNL     1       9.329  18.357  44.047  0.00  0.00    -0.281 N 
ATOM     14  C   UNL     1       8.677  19.554  44.294  0.00  0.00    +0.248 C 
ATOM     30  O   UNL     1       8.720  20.529  43.559  0.00  0.00    -0.270 OA
ATOM     31  H   UNL     1       9.371  17.700  44.826  0.00  0.00    +0.155 HD
BRANCH  14  15
ATOM     15  C   UNL     1       7.872  19.692  45.546  0.00  0.00    +0.037 A 
ATOM     16  C   UNL     1       8.186  20.720  46.542  0.00  0.00    +0.013 A 
ATOM     17  C   UNL     1       7.405  20.821  47.749  0.00  0.00    +0.005 A 
ATOM     18  C   UNL     1       6.299  19.891  47.966  0.00  0.00    -0.033 A 
ATOM     28  C   UNL     1       6.006  18.884  46.959  0.00  0.00    +0.005 A 
ATOM     29  C   UNL     1       6.770  18.782  45.775  0.00  0.00    +0.013 A 
BRANCH  18  19
ATOM     19  C   UNL     1       5.425  19.912  49.234  0.00  0.00    +0.119 C 
BRANCH  19  20
ATOM     20  N   UNL     1       4.388  20.981  49.332  0.00  0.00    -0.302 NA
ATOM     21  C   UNL     1       5.005  22.359  49.587  0.00  0.00    +0.066 C 
ATOM     22  C   UNL     1       3.907  23.469  49.664  0.00  0.00    -0.064 C 
ATOM     23  N   UNL     1       2.903  23.114  50.762  0.00  0.00    +0.379 N 
ATOM     24  C   UNL     1       1.902  24.184  50.876  0.00  0.00    -0.096 C 
ATOM     25  H   UNL     1       3.459  23.066  51.727  0.00  0.00    -0.082 HD
ATOM     26  C   UNL     1       2.286  21.744  50.517  0.00  0.00    -0.064 C 
ATOM     27  C   UNL     1       3.388  20.652  50.413  0.00  0.00    +0.066 C 
ENDBRANCH  19  20
ENDBRANCH  18  19
ENDBRANCH  14  15
ENDBRANCH  12  13
TORSDOF 6
ENDMDL
MODEL 3
REMARK VINA RESULT:      -8.7      1.673      2.374
REMARK  Name = C:\Users\Docking\Desktop\test protocol\1iep_ligandH.pdb
REMARK  8 active torsions:
REMARK  status: ('A' for Active; 'I' for Inactive)
REMARK    1  A    between atoms: _5  and  _11
REMARK    2  A    between atoms: _19  and  _21
REMARK    3  A    between atoms: _22  and  _66
REMARK    4  A    between atoms: _27  and  _30
REMARK    5  A    between atoms: _32  and  _33
REMARK    6  A    between atoms: _38  and  _43
REMARK    7  A    between atoms: _43  and  _46
REMARK    8  A    between atoms: _53  and  _55
REMARK                            x       y       z     vdW  Elec       q    Type
REMARK                         _______ _______ _______ _____ _____    ______ ____
ROOT
ATOM     10  C   UNL     1       9.347  21.050  46.064  0.00  0.00    +0.038 A 
ATOM     11  C   UNL     1       9.581  19.814  45.407  0.00  0.00    +0.047 A 
ATOM     12  C   UNL     1      10.422  19.739  44.223  0.00  0.00    +0.035 A 
ATOM     32  C   UNL     1      11.011  20.941  43.735  0.00  0.00    +0.024 A 
ATOM     33  C   UNL     1      10.784  22.206  44.389  0.00  0.00    +0.007 A 
ATOM     34  C   UNL     1       9.953  22.287  45.557  0.00  0.00    -0.029 A 
ATOM     35  C   UNL     1       9.739  23.670  46.213  0.00  0.00    +0.045 C 
ENDROOT
BRANCH  10   9
ATOM      4  C   UNL     1       5.256  20.009  48.348  0.00  0.00    +0.077 A 
ATOM      5  C   UNL     1       4.686  19.409  47.177  0.00  0.00    +0.048 A 
ATOM      6  C   UNL     1       5.475  19.395  46.005  0.00  0.00    +0.116 A 
ATOM      7  N   UNL     1       6.739  19.943  46.015  0.00  0.00    -0.223 NA
ATOM      8  C   UNL     1       7.259  20.515  47.162  0.00  0.00    +0.220 A 
ATOM      9  N   UNL     1       8.532  21.064  47.197  0.00  0.00    -0.283 N 
ATOM     36  H   UNL     1       8.876  21.484  48.061  0.00  0.00    +0.155 HD
ATOM     37  N   UNL     1       6.525  20.542  48.294  0.00  0.00    -0.214 NA
BRANCH   4   3
ATOM      1  C   UNL     1       3.896  19.174  51.919  0.00  0.00    +0.020 A 
ATOM      2  C   UNL     1       4.598  19.038  50.664  0.00  0.00    +0.013 A 
ATOM      3  C   UNL     1       4.548  20.098  49.664  0.00  0.00    +0.019 A 
ATOM     38  C   UNL     1       3.773  21.291  49.969  0.00  0.00    +0.120 A 
ATOM     39  N   UNL     1       3.106  21.393  51.186  0.00  0.00    -0.263 NA
ATOM     40  C   UNL     1       3.146  20.379  52.155  0.00  0.00    +0.111 A 
ENDBRANCH   4   3
ENDBRANCH  10   9
BRANCH  12  13
ATOM     13  N   UNL     1      10.688  18.514  43.510  0.00  0.00    -0.281 N 
ATOM     14  C   UNL     1       9.978  17.974  42.450  0.00  0.00    +0.248 C 
ATOM     30  O   UNL     1       8.873  18.356  42.092  0.00  0.00    -0.270 OA
ATOM     31  H   UNL     1      11.499  17.981  43.824  0.00  0.00    +0.155 HD
BRANCH  14  15
ATOM     15  C   UNL     1      10.573  16.834  41.688  0.00  0.00    +0.037 A 
ATOM     16  C   UNL     1      12.019  16.739  41.470  0.00  0.00    +0.013 A 
ATOM     17  C   UNL     1      12.566  15.638  40.716  0.00  0.00    +0.005 A 
ATOM     18  C   UNL     1      11.665  14.623  40.176  0.00  0.00    -0.033 A 
ATOM     28  C   UNL     1      10.235  14.739  40.412  0.00  0.00    +0.005 A 
ATOM     29  C   UNL     1       9.696  15.817  41.149  0.00  0.00    +0.013 A 
BRANCH  18  19
ATOM     19  C   UNL     1      12.159  13.426  39.342  0.00  0.00    +0.119 C 
BRANCH  19  20
ATOM     20  N   UNL     1      11.127  12.468  38.844  0.00  0.00    -0.302 NA
ATOM     21  C   UNL     1      11.046  11.208  39.711  0.00  0.00    +0.066 C 
ATOM     22  C   UNL     1       9.946  10.227  39.188  0.00  0.00    -0.064 C 
ATOM     23  N   UNL     1      10.241   9.865  37.732  0.00  0.00    +0.379 N 
ATOM     24  C   UNL     1       9.241   8.897  37.255  0.00  0.00    -0.096 C 
ATOM     25  H   UNL     1      11.237   9.364  37.703  0.00  0.00    -0.082 HD
ATOM     26  C   UNL     1      10.326  11.112  36.863  0.00  0.00    -0.064 C 
ATOM     27  C   UNL     1      11.401  12.093  37.408  0.00  0.00    +0.066 C 
ENDBRANCH  19  20
ENDBRANCH  18  19
ENDBRANCH  14  15
ENDBRANCH  12  13
TORSDOF 6
ENDMDL
MODEL 4
REMARK VINA RESULT:      -8.5      3.859      6.168
REMARK  Name = C:\Users\Docking\Desktop\test protocol\1iep_ligandH.pdb
REMARK  8 active torsions:
REMARK  status: ('A' for Active; 'I' for Inactive)
REMARK    1  A    between atoms: _5  and  _11
REMARK    2  A    between atoms: _19  and  _21
REMARK    3  A    between atoms: _22  and  _66
REMARK    4  A    between atoms: _27  and  _30
REMARK    5  A    between atoms: _32  and  _33
REMARK    6  A    between atoms: _38  and  _43
REMARK    7  A    between atoms: _43  and  _46
REMARK    8  A    between atoms: _53  and  _55
REMARK                            x       y       z     vdW  Elec       q    Type
REMARK                         _______ _______ _______ _____ _____    ______ ____
ROOT
ATOM     10  C   UNL     1       6.259  20.278  47.755  0.00  0.00    +0.038 A 
ATOM     11  C   UNL     1       7.146  19.760  46.777  0.00  0.00    +0.047 A 
ATOM     12  C   UNL     1       6.655  18.973  45.657  0.00  0.00    +0.035 A 
ATOM     32  C   UNL     1       5.253  18.736  45.561  0.00  0.00    +0.024 A 
ATOM     33  C   UNL     1       4.337  19.254  46.546  0.00  0.00    +0.007 A 
ATOM     34  C   UNL     1       4.816  20.029  47.655  0.00  0.00    -0.029 A 
ATOM     35  C   UNL     1       3.789  20.554  48.685  0.00  0.00    +0.045 C 
ENDROOT
BRANCH  10   9
ATOM      4  C   UNL     1       9.196  23.649  49.501  0.00  0.00    +0.077 A 
ATOM      5  C   UNL     1       9.748  23.923  48.205  0.00  0.00    +0.048 A 
ATOM      6  C   UNL     1       9.254  23.169  47.117  0.00  0.00    +0.116 A 
ATOM      7  N   UNL     1       8.280  22.216  47.321  0.00  0.00    -0.223 NA
ATOM      8  C   UNL     1       7.770  21.976  48.583  0.00  0.00    +0.220 A 
ATOM      9  N   UNL     1       6.785  21.027  48.810  0.00  0.00    -0.283 N 
ATOM     36  H   UNL     1       6.440  20.874  49.757  0.00  0.00    +0.155 HD
ATOM     37  N   UNL     1       8.227  22.681  49.639  0.00  0.00    -0.214 NA
BRANCH   4   3
ATOM      1  C   UNL     1       9.941  26.452  52.125  0.00  0.00    +0.020 A 
ATOM      2  C   UNL     1       9.525  25.811  50.899  0.00  0.00    +0.013 A 
ATOM      3  C   UNL     1       9.613  24.364  50.748  0.00  0.00    +0.019 A 
ATOM     38  C   UNL     1      10.128  23.589  51.867  0.00  0.00    +0.120 A 
ATOM     39  N   UNL     1      10.522  24.234  53.035  0.00  0.00    -0.263 NA
ATOM     40  C   UNL     1      10.444  25.626  53.190  0.00  0.00    +0.111 A 
ENDBRANCH   4   3
ENDBRANCH  10   9
BRANCH  12  13
ATOM     13  N   UNL     1       7.509  18.414  44.638  0.00  0.00    -0.281 N 
ATOM     14  C   UNL     1       8.475  19.063  43.886  0.00  0.00    +0.248 C 
ATOM     30  O   UNL     1       8.604  20.277  43.826  0.00  0.00    -0.270 OA
ATOM     31  H   UNL     1       7.386  17.419  44.448  0.00  0.00    +0.155 HD
BRANCH  14  15
ATOM     15  C   UNL     1       9.426  18.246  43.073  0.00  0.00    +0.037 A 
ATOM     16  C   UNL     1      10.875  18.381  43.236  0.00  0.00    +0.013 A 
ATOM     17  C   UNL     1      11.771  17.593  42.426  0.00  0.00    +0.005 A 
ATOM     18  C   UNL     1      11.218  16.661  41.446  0.00  0.00    -0.033 A 
ATOM     28  C   UNL     1       9.775  16.544  41.309  0.00  0.00    +0.005 A 
ATOM     29  C   UNL     1       8.895  17.315  42.100  0.00  0.00    +0.013 A 
BRANCH  18  19
ATOM     19  C   UNL     1      12.098  15.796  40.525  0.00  0.00    +0.119 C 
BRANCH  19  20
ATOM     20  N   UNL     1      12.537  16.402  39.232  0.00  0.00    -0.302 NA
ATOM     21  C   UNL     1      12.576  17.931  39.298  0.00  0.00    +0.066 C 
ATOM     22  C   UNL     1      13.059  18.547  37.945  0.00  0.00    -0.064 C 
ATOM     23  N   UNL     1      12.138  18.078  36.817  0.00  0.00    +0.379 N 
ATOM     24  C   UNL     1      12.554  18.701  35.552  0.00  0.00    -0.096 C 
ATOM     25  H   UNL     1      11.109  18.438  37.049  0.00  0.00    -0.082 HD
ATOM     26  C   UNL     1      12.090  16.558  36.746  0.00  0.00    -0.064 C 
ATOM     27  C   UNL     1      11.638  15.955  38.105  0.00  0.00    +0.066 C 
ENDBRANCH  19  20
ENDBRANCH  18  19
ENDBRANCH  14  15
ENDBRANCH  12  13
TORSDOF 6
ENDMDL
MODEL 5
REMARK VINA RESULT:      -8.5     28.525     32.275
REMARK  Name = C:\Users\Docking\Desktop\test protocol\1iep_ligandH.pdb
REMARK  8 active torsions:
REMARK  status: ('A' for Active; 'I' for Inactive)
REMARK    1  A    between atoms: _5  and  _11
REMARK    2  A    between atoms: _19  and  _21
REMARK    3  A    between atoms: _22  and  _66
REMARK    4  A    between atoms: _27  and  _30
REMARK    5  A    between atoms: _32  and  _33
REMARK    6  A    between atoms: _38  and  _43
REMARK    7  A    between atoms: _43  and  _46
REMARK    8  A    between atoms: _53  and  _55
REMARK                            x       y       z     vdW  Elec       q    Type
REMARK                         _______ _______ _______ _____ _____    ______ ____
ROOT
ATOM     10  C   UNL     1      17.530  47.012  28.239  0.00  0.00    +0.038 A 
ATOM     11  C   UNL     1      17.115  45.675  28.008  0.00  0.00    +0.047 A 
ATOM     12  C   UNL     1      16.218  45.345  26.911  0.00  0.00    +0.035 A 
ATOM     32  C   UNL     1      15.765  46.400  26.067  0.00  0.00    +0.024 A 
ATOM     33  C   UNL     1      16.176  47.764  26.288  0.00  0.00    +0.007 A 
ATOM     34  C   UNL     1      17.059  48.097  27.370  0.00  0.00    -0.029 A 
ATOM     35  C   UNL     1      17.461  49.577  27.563  0.00  0.00    +0.045 C 
ENDROOT
BRANCH  10   9
ATOM      4  C   UNL     1      18.364  48.033  32.854  0.00  0.00    +0.077 A 
ATOM      5  C   UNL     1      16.963  48.078  33.158  0.00  0.00    +0.048 A 
ATOM      6  C   UNL     1      16.060  47.839  32.098  0.00  0.00    +0.116 A 
ATOM      7  N   UNL     1      16.535  47.577  30.831  0.00  0.00    -0.223 NA
ATOM      8  C   UNL     1      17.893  47.543  30.571  0.00  0.00    +0.220 A 
ATOM      9  N   UNL     1      18.392  47.272  29.306  0.00  0.00    -0.283 N 
ATOM     36  H   UNL     1      19.400  47.264  29.154  0.00  0.00    +0.155 HD
ATOM     37  N   UNL     1      18.775  47.768  31.566  0.00  0.00    -0.214 NA
BRANCH   4   3
ATOM      1  C   UNL     1      21.847  48.210  34.624  0.00  0.00    +0.020 A 
ATOM      2  C   UNL     1      20.846  47.972  33.610  0.00  0.00    +0.013 A 
ATOM      3  C   UNL     1      19.441  48.261  33.868  0.00  0.00    +0.019 A 
ATOM     38  C   UNL     1      19.080  48.796  35.172  0.00  0.00    +0.120 A 
ATOM     39  N   UNL     1      20.066  49.014  36.130  0.00  0.00    -0.263 NA
ATOM     40  C   UNL     1      21.421  48.738  35.893  0.00  0.00    +0.111 A 
ENDBRANCH   4   3
ENDBRANCH  10   9
BRANCH  12  13
ATOM     13  N   UNL     1      15.756  44.007  26.633  0.00  0.00    -0.281 N 
ATOM     14  C   UNL     1      14.594  43.398  27.077  0.00  0.00    +0.248 C 
ATOM     30  O   UNL     1      13.876  43.841  27.961  0.00  0.00    -0.270 OA
ATOM     31  H   UNL     1      16.359  43.441  26.036  0.00  0.00    +0.155 HD
BRANCH  14  15
ATOM     15  C   UNL     1      14.178  42.101  26.461  0.00  0.00    +0.037 A 
ATOM     16  C   UNL     1      13.201  41.228  27.116  0.00  0.00    +0.013 A 
ATOM     17  C   UNL     1      12.830  39.975  26.508  0.00  0.00    +0.005 A 
ATOM     18  C   UNL     1      13.435  39.588  25.236  0.00  0.00    -0.033 A 
ATOM     28  C   UNL     1      14.398  40.476  24.605  0.00  0.00    +0.005 A 
ATOM     29  C   UNL     1      14.765  41.705  25.198  0.00  0.00    +0.013 A 
BRANCH  18  19
ATOM     19  C   UNL     1      13.114  38.260  24.525  0.00  0.00    +0.119 C 
BRANCH  19  20
ATOM     20  N   UNL     1      13.879  37.052  24.956  0.00  0.00    -0.302 NA
ATOM     21  C   UNL     1      15.044  36.743  24.012  0.00  0.00    +0.066 C 
ATOM     22  C   UNL     1      15.847  35.489  24.490  0.00  0.00    -0.064 C 
ATOM     23  N   UNL     1      14.902  34.291  24.595  0.00  0.00    +0.379 N 
ATOM     24  C   UNL     1      15.665  33.097  24.988  0.00  0.00    -0.096 C 
ATOM     25  H   UNL     1      14.480  34.104  23.580  0.00  0.00    -0.082 HD
ATOM     26  C   UNL     1      13.739  34.591  25.530  0.00  0.00    -0.064 C 
ATOM     27  C   UNL     1      12.965  35.855  25.062  0.00  0.00    +0.066 C 
ENDBRANCH  19  20
ENDBRANCH  18  19
ENDBRANCH  14  15
ENDBRANCH  12  13
TORSDOF 6
ENDMDL
