MODEL 1
REMARK VINA RESULT:     -12.3      0.000      0.000
REMARK  Name = C:\Users\Docking\Desktop\test protocol\1iep_ligandH.pdb
REMARK  8 active torsions:
REMARK  status: ('A' for Active; 'I' for Inactive)
REMARK    1  A    between atoms: _5  and  _11
REMARK    2  A    between atoms: _19  and  _21
REMARK    3  A    between atoms: _22  and  _66
REMARK    4  A    between atoms: _27  and  _30
REMARK    5  A    between atoms: _32  and  _33
REMARK    6  A    between atoms: _38  and  _43
REMARK    7  A    between atoms: _43  and  _46
REMARK    8  A    between atoms: _53  and  _55
REMARK                            x       y       z     vdW  Elec       q    Type
REMARK                         _______ _______ _______ _____ _____    ______ ____
ROOT
ATOM     10  C   UNL     1      37.649  31.995  13.702  0.00  0.00    +0.038 A 
ATOM     11  C   UNL     1      38.274  33.215  13.336  0.00  0.00    +0.047 A 
ATOM     12  C   UNL     1      37.528  34.275  12.677  0.00  0.00    +0.035 A 
ATOM     32  C   UNL     1      36.144  34.061  12.409  0.00  0.00    +0.024 A 
ATOM     33  C   UNL     1      35.493  32.828  12.773  0.00  0.00    +0.007 A 
ATOM     34  C   UNL     1      36.225  31.777  13.421  0.00  0.00    -0.029 A 
ATOM     35  C   UNL     1      35.476  30.473  13.783  0.00  0.00    +0.045 C 
ENDROOT
BRANCH  10   9
ATOM      4  C   UNL     1      40.531  28.159  13.593  0.00  0.00    +0.077 A 
ATOM      5  C   UNL     1      40.488  28.094  12.160  0.00  0.00    +0.048 A 
ATOM      6  C   UNL     1      39.707  29.062  11.490  0.00  0.00    +0.116 A 
ATOM      7  N   UNL     1      39.025  30.019  12.208  0.00  0.00    -0.223 NA
ATOM      8  C   UNL     1      39.086  30.053  13.589  0.00  0.00    +0.220 A 
ATOM      9  N   UNL     1      38.413  31.011  14.332  0.00  0.00    -0.283 N 
ATOM     36  H   UNL     1      38.478  30.997  15.350  0.00  0.00    +0.155 HD
ATOM     37  N   UNL     1      39.823  29.138  14.253  0.00  0.00    -0.214 NA
BRANCH   4   3
ATOM      1  C   UNL     1      42.257  26.442  16.655  0.00  0.00    +0.020 A 
ATOM      2  C   UNL     1      41.491  27.390  15.879  0.00  0.00    +0.013 A 
ATOM      3  C   UNL     1      41.315  27.208  14.443  0.00  0.00    +0.019 A 
ATOM     38  C   UNL     1      41.930  26.047  13.819  0.00  0.00    +0.120 A 
ATOM     39  N   UNL     1      42.663  25.151  14.592  0.00  0.00    -0.263 NA
ATOM     40  C   UNL     1      42.842  25.317  15.973  0.00  0.00    +0.111 A 
ENDBRANCH   4   3
ENDBRANCH  10   9
BRANCH  12  13
ATOM     13  N   UNL     1      38.111  35.531  12.275  0.00  0.00    -0.281 N 
ATOM     14  C   UNL     1      37.999  36.169  11.050  0.00  0.00    +0.248 C 
ATOM     30  O   UNL     1      37.552  35.648  10.039  0.00  0.00    -0.270 OA
ATOM     31  H   UNL     1      38.675  36.008  12.979  0.00  0.00    +0.155 HD
BRANCH  14  15
ATOM     15  C   UNL     1      38.463  37.584  10.928  0.00  0.00    +0.037 A 
ATOM     16  C   UNL     1      39.698  37.920  10.215  0.00  0.00    +0.013 A 
ATOM     17  C   UNL     1      40.132  39.291  10.127  0.00  0.00    +0.005 A 
ATOM     18  C   UNL     1      39.328  40.339  10.752  0.00  0.00    -0.033 A 
ATOM     28  C   UNL     1      38.104  39.978  11.448  0.00  0.00    +0.005 A 
ATOM     29  C   UNL     1      37.676  38.635  11.538  0.00  0.00    +0.013 A 
BRANCH  18  19
ATOM     19  C   UNL     1      39.726  41.826  10.726  0.00  0.00    +0.119 C 
BRANCH  19  20
ATOM     20  N   UNL     1      38.715  42.813  11.211  0.00  0.00    -0.302 NA
ATOM     21  C   UNL     1      38.530  43.975  10.231  0.00  0.00    +0.066 C 
ATOM     22  C   UNL     1      37.453  44.986  10.743  0.00  0.00    -0.064 C 
ATOM     23  N   UNL     1      37.859  45.502  12.125  0.00  0.00    +0.379 N 
ATOM     24  C   UNL     1      36.878  46.496  12.585  0.00  0.00    -0.096 C 
ATOM     25  H   UNL     1      38.841  46.019  12.018  0.00  0.00    -0.082 HD
ATOM     26  C   UNL     1      38.047  44.353  13.105  0.00  0.00    -0.064 C 
ATOM     27  C   UNL     1      39.098  43.339  12.572  0.00  0.00    +0.066 C 
ENDBRANCH  19  20
ENDBRANCH  18  19
ENDBRANCH  14  15
ENDBRANCH  12  13
TORSDOF 6
ENDMDL
