MODEL 1
REMARK VINA RESULT:      -8.2      0.000      0.000
REMARK  Name = C:\Users\Docking\Desktop\test protocol\1iep_ligandH.pdb
REMARK  8 active torsions:
REMARK  status: ('A' for Active; 'I' for Inactive)
REMARK    1  A    between atoms: _5  and  _11
REMARK    2  A    between atoms: _19  and  _21
REMARK    3  A    between atoms: _22  and  _66
REMARK    4  A    between atoms: _27  and  _30
REMARK    5  A    between atoms: _32  and  _33
REMARK    6  A    between atoms: _38  and  _43
REMARK    7  A    between atoms: _43  and  _46
REMARK    8  A    between atoms: _53  and  _55
REMARK                            x       y       z     vdW  Elec       q    Type
REMARK                         _______ _______ _______ _____ _____    ______ ____
ROOT
ATOM     10  C   UNL     1      16.223  -0.966   3.303  0.00  0.00    +0.038 A 
ATOM     11  C   UNL     1      17.116  -1.319   2.260  0.00  0.00    +0.047 A 
ATOM     12  C   UNL     1      18.554  -1.357   2.479  0.00  0.00    +0.035 A 
ATOM     32  C   UNL     1      19.047  -1.032   3.776  0.00  0.00    +0.024 A 
ATOM     33  C   UNL     1      18.154  -0.669   4.848  0.00  0.00    +0.007 A 
ATOM     34  C   UNL     1      16.736  -0.628   4.637  0.00  0.00    -0.029 A 
ATOM     35  C   UNL     1      15.826  -0.226   5.821  0.00  0.00    +0.045 C 
ENDROOT
BRANCH  10   9
ATOM      4  C   UNL     1      11.888  -3.024   3.268  0.00  0.00    +0.077 A 
ATOM      5  C   UNL     1      12.401  -4.253   3.802  0.00  0.00    +0.048 A 
ATOM      6  C   UNL     1      13.788  -4.317   4.064  0.00  0.00    +0.116 A 
ATOM      7  N   UNL     1      14.592  -3.227   3.809  0.00  0.00    -0.223 NA
ATOM      8  C   UNL     1      14.064  -2.057   3.293  0.00  0.00    +0.220 A 
ATOM      9  N   UNL     1      14.853  -0.946   3.037  0.00  0.00    -0.283 N 
ATOM     36  H   UNL     1      14.427  -0.104   2.649  0.00  0.00    +0.155 HD
ATOM     37  N   UNL     1      12.743  -1.972   3.032  0.00  0.00    -0.214 NA
BRANCH   4   3
ATOM      1  C   UNL     1       8.426  -1.321   2.624  0.00  0.00    +0.020 A 
ATOM      2  C   UNL     1       9.825  -1.482   2.947  0.00  0.00    +0.013 A 
ATOM      3  C   UNL     1      10.444  -2.801   2.942  0.00  0.00    +0.019 A 
ATOM     38  C   UNL     1       9.613  -3.946   2.601  0.00  0.00    +0.120 A 
ATOM     39  N   UNL     1       8.268  -3.761   2.295  0.00  0.00    -0.263 NA
ATOM     40  C   UNL     1       7.661  -2.496   2.299  0.00  0.00    +0.111 A 
ENDBRANCH   4   3
ENDBRANCH  10   9
BRANCH  12  13
ATOM     13  N   UNL     1      19.509  -1.701   1.456  0.00  0.00    -0.281 N 
ATOM     14  C   UNL     1      19.723  -1.067   0.243  0.00  0.00    +0.248 C 
ATOM     30  O   UNL     1      18.974  -0.232  -0.242  0.00  0.00    -0.270 OA
ATOM     31  H   UNL     1      20.100  -2.510   1.649  0.00  0.00    +0.155 HD
BRANCH  14  15
ATOM     15  C   UNL     1      20.936  -1.423  -0.554  0.00  0.00    +0.037 A 
ATOM     16  C   UNL     1      21.319  -2.821  -0.772  0.00  0.00    +0.013 A 
ATOM     17  C   UNL     1      22.504  -3.136  -1.530  0.00  0.00    +0.005 A 
ATOM     18  C   UNL     1      23.314  -2.050  -2.078  0.00  0.00    -0.033 A 
ATOM     28  C   UNL     1      22.907  -0.673  -1.852  0.00  0.00    +0.005 A 
ATOM     29  C   UNL     1      21.747  -0.360  -1.108  0.00  0.00    +0.013 A 
BRANCH  18  19
ATOM     19  C   UNL     1      24.605  -2.293  -2.881  0.00  0.00    +0.119 C 
BRANCH  19  20
ATOM     20  N   UNL     1      25.848  -1.623  -2.397  0.00  0.00    -0.302 NA
ATOM     21  C   UNL     1      26.972  -1.677  -3.435  0.00  0.00    +0.066 C 
ATOM     22  C   UNL     1      28.258  -0.952  -2.921  0.00  0.00    -0.064 C 
ATOM     23  N   UNL     1      28.706  -1.587  -1.604  0.00  0.00    +0.379 N 
ATOM     24  C   UNL     1      29.948  -0.946  -1.147  0.00  0.00    -0.096 C 
ATOM     25  H   UNL     1      28.934  -2.660  -1.806  0.00  0.00    -0.082 HD
ATOM     26  C   UNL     1      27.594  -1.540  -0.566  0.00  0.00    -0.064 C 
ATOM     27  C   UNL     1      26.311  -2.238  -1.099  0.00  0.00    +0.066 C 
ENDBRANCH  19  20
ENDBRANCH  18  19
ENDBRANCH  14  15
ENDBRANCH  12  13
TORSDOF 6
ENDMDL
MODEL 2
REMARK VINA RESULT:      -8.1      1.805      2.164
REMARK  Name = C:\Users\Docking\Desktop\test protocol\1iep_ligandH.pdb
REMARK  8 active torsions:
REMARK  status: ('A' for Active; 'I' for Inactive)
REMARK    1  A    between atoms: _5  and  _11
REMARK    2  A    between atoms: _19  and  _21
REMARK    3  A    between atoms: _22  and  _66
REMARK    4  A    between atoms: _27  and  _30
REMARK    5  A    between atoms: _32  and  _33
REMARK    6  A    between atoms: _38  and  _43
REMARK    7  A    between atoms: _43  and  _46
REMARK    8  A    between atoms: _53  and  _55
REMARK                            x       y       z     vdW  Elec       q    Type
REMARK                         _______ _______ _______ _____ _____    ______ ____
ROOT
ATOM     10  C   UNL     1      16.303  -1.163   3.077  0.00  0.00    +0.038 A 
ATOM     11  C   UNL     1      17.156  -1.652   2.055  0.00  0.00    +0.047 A 
ATOM     12  C   UNL     1      18.593  -1.755   2.259  0.00  0.00    +0.035 A 
ATOM     32  C   UNL     1      19.127  -1.353   3.518  0.00  0.00    +0.024 A 
ATOM     33  C   UNL     1      18.275  -0.853   4.567  0.00  0.00    +0.007 A 
ATOM     34  C   UNL     1      16.857  -0.747   4.371  0.00  0.00    -0.029 A 
ATOM     35  C   UNL     1      15.992  -0.197   5.530  0.00  0.00    +0.045 C 
ENDROOT
BRANCH  10   9
ATOM      4  C   UNL     1      11.863  -2.980   3.231  0.00  0.00    +0.077 A 
ATOM      5  C   UNL     1      12.319  -4.198   3.836  0.00  0.00    +0.048 A 
ATOM      6  C   UNL     1      13.705  -4.320   4.085  0.00  0.00    +0.116 A 
ATOM      7  N   UNL     1      14.561  -3.294   3.750  0.00  0.00    -0.223 NA
ATOM      8  C   UNL     1      14.089  -2.133   3.166  0.00  0.00    +0.220 A 
ATOM      9  N   UNL     1      14.931  -1.085   2.827  0.00  0.00    -0.283 N 
ATOM     36  H   UNL     1      14.545  -0.248   2.391  0.00  0.00    +0.155 HD
ATOM     37  N   UNL     1      12.770  -1.993   2.917  0.00  0.00    -0.214 NA
BRANCH   4   3
ATOM      1  C   UNL     1       8.091  -3.426   2.299  0.00  0.00    +0.020 A 
ATOM      2  C   UNL     1       9.466  -3.750   2.603  0.00  0.00    +0.013 A 
ATOM      3  C   UNL     1      10.428  -2.700   2.909  0.00  0.00    +0.019 A 
ATOM     38  C   UNL     1       9.964  -1.321   2.901  0.00  0.00    +0.120 A 
ATOM     39  N   UNL     1       8.634  -1.039   2.603  0.00  0.00    -0.263 NA
ATOM     40  C   UNL     1       7.699  -2.041   2.305  0.00  0.00    +0.111 A 
ENDBRANCH   4   3
ENDBRANCH  10   9
BRANCH  12  13
ATOM     13  N   UNL     1      19.509  -2.236   1.255  0.00  0.00    -0.281 N 
ATOM     14  C   UNL     1      19.413  -3.392   0.498  0.00  0.00    +0.248 C 
ATOM     30  O   UNL     1      18.629  -4.302   0.723  0.00  0.00    -0.270 OA
ATOM     31  H   UNL     1      20.328  -1.653   1.081  0.00  0.00    +0.155 HD
BRANCH  14  15
ATOM     15  C   UNL     1      20.331  -3.571  -0.668  0.00  0.00    +0.037 A 
ATOM     16  C   UNL     1      20.069  -4.584  -1.693  0.00  0.00    +0.013 A 
ATOM     17  C   UNL     1      20.980  -4.746  -2.799  0.00  0.00    +0.005 A 
ATOM     18  C   UNL     1      22.162  -3.892  -2.884  0.00  0.00    -0.033 A 
ATOM     28  C   UNL     1      22.395  -2.892  -1.856  0.00  0.00    +0.005 A 
ATOM     29  C   UNL     1      21.505  -2.730  -0.771  0.00  0.00    +0.013 A 
BRANCH  18  19
ATOM     19  C   UNL     1      23.198  -4.010  -4.017  0.00  0.00    +0.119 C 
BRANCH  19  20
ATOM     20  N   UNL     1      24.399  -3.125  -3.940  0.00  0.00    -0.302 NA
ATOM     21  C   UNL     1      24.433  -2.102  -5.079  0.00  0.00    +0.066 C 
ATOM     22  C   UNL     1      25.684  -1.171  -4.970  0.00  0.00    -0.064 C 
ATOM     23  N   UNL     1      26.954  -2.024  -4.970  0.00  0.00    +0.379 N 
ATOM     24  C   UNL     1      28.134  -1.148  -4.926  0.00  0.00    -0.096 C 
ATOM     25  H   UNL     1      26.984  -2.584  -5.933  0.00  0.00    -0.082 HD
ATOM     26  C   UNL     1      26.927  -3.046  -3.842  0.00  0.00    -0.064 C 
ATOM     27  C   UNL     1      25.665  -3.947  -3.943  0.00  0.00    +0.066 C 
ENDBRANCH  19  20
ENDBRANCH  18  19
ENDBRANCH  14  15
ENDBRANCH  12  13
TORSDOF 6
ENDMDL
MODEL 3
REMARK VINA RESULT:      -8.1      2.161     14.458
REMARK  Name = C:\Users\Docking\Desktop\test protocol\1iep_ligandH.pdb
REMARK  8 active torsions:
REMARK  status: ('A' for Active; 'I' for Inactive)
REMARK    1  A    between atoms: _5  and  _11
REMARK    2  A    between atoms: _19  and  _21
REMARK    3  A    between atoms: _22  and  _66
REMARK    4  A    between atoms: _27  and  _30
REMARK    5  A    between atoms: _32  and  _33
REMARK    6  A    between atoms: _38  and  _43
REMARK    7  A    between atoms: _43  and  _46
REMARK    8  A    between atoms: _53  and  _55
REMARK                            x       y       z     vdW  Elec       q    Type
REMARK                         _______ _______ _______ _____ _____    ______ ____
ROOT
ATOM     10  C   UNL     1      25.329  -3.117  -1.713  0.00  0.00    +0.038 A 
ATOM     11  C   UNL     1      24.274  -2.787  -0.824  0.00  0.00    +0.047 A 
ATOM     12  C   UNL     1      22.912  -2.614  -1.303  0.00  0.00    +0.035 A 
ATOM     32  C   UNL     1      22.659  -2.786  -2.696  0.00  0.00    +0.024 A 
ATOM     33  C   UNL     1      23.720  -3.120  -3.614  0.00  0.00    +0.007 A 
ATOM     34  C   UNL     1      25.066  -3.289  -3.146  0.00  0.00    -0.029 A 
ATOM     35  C   UNL     1      26.164  -3.641  -4.177  0.00  0.00    +0.045 C 
ENDROOT
BRANCH  10   9
ATOM      4  C   UNL     1      29.770  -1.505  -0.865  0.00  0.00    +0.077 A 
ATOM      5  C   UNL     1      29.508  -0.260  -1.528  0.00  0.00    +0.048 A 
ATOM      6  C   UNL     1      28.220  -0.077  -2.080  0.00  0.00    +0.116 A 
ATOM      7  N   UNL     1      27.273  -1.071  -1.971  0.00  0.00    -0.223 NA
ATOM      8  C   UNL     1      27.558  -2.261  -1.326  0.00  0.00    +0.220 A 
ATOM      9  N   UNL     1      26.618  -3.271  -1.198  0.00  0.00    -0.283 N 
ATOM     36  H   UNL     1      26.870  -4.137  -0.721  0.00  0.00    +0.155 HD
ATOM     37  N   UNL     1      28.781  -2.460  -0.792  0.00  0.00    -0.214 NA
BRANCH   4   3
ATOM      1  C   UNL     1      33.587  -2.132  -0.285  0.00  0.00    +0.020 A 
ATOM      2  C   UNL     1      32.348  -1.793  -0.947  0.00  0.00    +0.013 A 
ATOM      3  C   UNL     1      31.081  -1.846  -0.229  0.00  0.00    +0.019 A 
ATOM     38  C   UNL     1      31.103  -2.249   1.169  0.00  0.00    +0.120 A 
ATOM     39  N   UNL     1      32.311  -2.572   1.780  0.00  0.00    -0.263 NA
ATOM     40  C   UNL     1      33.536  -2.526   1.098  0.00  0.00    +0.111 A 
ENDBRANCH   4   3
ENDBRANCH  10   9
BRANCH  12  13
ATOM     13  N   UNL     1      21.802  -2.272  -0.449  0.00  0.00    -0.281 N 
ATOM     14  C   UNL     1      21.031  -1.121  -0.474  0.00  0.00    +0.248 C 
ATOM     30  O   UNL     1      21.318  -0.111  -1.100  0.00  0.00    -0.270 OA
ATOM     31  H   UNL     1      21.554  -2.962   0.260  0.00  0.00    +0.155 HD
BRANCH  14  15
ATOM     15  C   UNL     1      19.768  -1.081   0.323  0.00  0.00    +0.037 A 
ATOM     16  C   UNL     1      18.870  -2.237   0.383  0.00  0.00    +0.013 A 
ATOM     17  C   UNL     1      17.649  -2.165   1.145  0.00  0.00    +0.005 A 
ATOM     18  C   UNL     1      17.319  -0.932   1.856  0.00  0.00    -0.033 A 
ATOM     28  C   UNL     1      18.231   0.198   1.784  0.00  0.00    +0.005 A 
ATOM     29  C   UNL     1      19.428   0.132   1.037  0.00  0.00    +0.013 A 
BRANCH  18  19
ATOM     19  C   UNL     1      16.027  -0.760   2.677  0.00  0.00    +0.119 C 
BRANCH  19  20
ATOM     20  N   UNL     1      15.114  -1.937   2.770  0.00  0.00    -0.302 NA
ATOM     21  C   UNL     1      13.700  -1.608   2.282  0.00  0.00    +0.066 C 
ATOM     22  C   UNL     1      12.764  -2.857   2.365  0.00  0.00    -0.064 C 
ATOM     23  N   UNL     1      12.733  -3.373   3.804  0.00  0.00    +0.379 N 
ATOM     24  C   UNL     1      11.808  -4.512   3.897  0.00  0.00    -0.096 C 
ATOM     25  H   UNL     1      12.330  -2.556   4.447  0.00  0.00    -0.082 HD
ATOM     26  C   UNL     1      14.135  -3.701   4.299  0.00  0.00    -0.064 C 
ATOM     27  C   UNL     1      15.065  -2.461   4.184  0.00  0.00    +0.066 C 
ENDBRANCH  19  20
ENDBRANCH  18  19
ENDBRANCH  14  15
ENDBRANCH  12  13
TORSDOF 6
ENDMDL
MODEL 4
REMARK VINA RESULT:      -8.0      4.487     14.211
REMARK  Name = C:\Users\Docking\Desktop\test protocol\1iep_ligandH.pdb
REMARK  8 active torsions:
REMARK  status: ('A' for Active; 'I' for Inactive)
REMARK    1  A    between atoms: _5  and  _11
REMARK    2  A    between atoms: _19  and  _21
REMARK    3  A    between atoms: _22  and  _66
REMARK    4  A    between atoms: _27  and  _30
REMARK    5  A    between atoms: _32  and  _33
REMARK    6  A    between atoms: _38  and  _43
REMARK    7  A    between atoms: _43  and  _46
REMARK    8  A    between atoms: _53  and  _55
REMARK                            x       y       z     vdW  Elec       q    Type
REMARK                         _______ _______ _______ _____ _____    ______ ____
ROOT
ATOM     10  C   UNL     1      25.563  -2.746  -2.025  0.00  0.00    +0.038 A 
ATOM     11  C   UNL     1      24.476  -2.295  -1.234  0.00  0.00    +0.047 A 
ATOM     12  C   UNL     1      23.220  -1.885  -1.843  0.00  0.00    +0.035 A 
ATOM     32  C   UNL     1      23.105  -1.950  -3.262  0.00  0.00    +0.024 A 
ATOM     33  C   UNL     1      24.201  -2.405  -4.082  0.00  0.00    +0.007 A 
ATOM     34  C   UNL     1      25.442  -2.809  -3.487  0.00  0.00    -0.029 A 
ATOM     35  C   UNL     1      26.585  -3.282  -4.415  0.00  0.00    +0.045 C 
ENDROOT
BRANCH  10   9
ATOM      4  C   UNL     1      30.050  -1.880  -0.558  0.00  0.00    +0.077 A 
ATOM      5  C   UNL     1      30.048  -0.566  -1.134  0.00  0.00    +0.048 A 
ATOM      6  C   UNL     1      28.875  -0.154  -1.805  0.00  0.00    +0.116 A 
ATOM      7  N   UNL     1      27.791  -1.001  -1.888  0.00  0.00    -0.223 NA
ATOM      8  C   UNL     1      27.827  -2.262  -1.323  0.00  0.00    +0.220 A 
ATOM      9  N   UNL     1      26.746  -3.128  -1.387  0.00  0.00    -0.283 N 
ATOM     36  H   UNL     1      26.814  -4.053  -0.964  0.00  0.00    +0.155 HD
ATOM     37  N   UNL     1      28.936  -2.680  -0.678  0.00  0.00    -0.214 NA
BRANCH   4   3
ATOM      1  C   UNL     1      32.591  -4.398   1.026  0.00  0.00    +0.020 A 
ATOM      2  C   UNL     1      31.451  -3.891   0.296  0.00  0.00    +0.013 A 
ATOM      3  C   UNL     1      31.214  -2.458   0.186  0.00  0.00    +0.019 A 
ATOM     38  C   UNL     1      32.156  -1.556   0.831  0.00  0.00    +0.120 A 
ATOM     39  N   UNL     1      33.244  -2.072   1.528  0.00  0.00    -0.263 NA
ATOM     40  C   UNL     1      33.482  -3.450   1.642  0.00  0.00    +0.111 A 
ENDBRANCH   4   3
ENDBRANCH  10   9
BRANCH  12  13
ATOM     13  N   UNL     1      22.085  -1.411  -1.091  0.00  0.00    -0.281 N 
ATOM     14  C   UNL     1      20.973  -2.129  -0.684  0.00  0.00    +0.248 C 
ATOM     30  O   UNL     1      20.683  -3.244  -1.091  0.00  0.00    -0.270 OA
ATOM     31  H   UNL     1      22.104  -0.426  -0.827  0.00  0.00    +0.155 HD
BRANCH  14  15
ATOM     15  C   UNL     1      20.039  -1.514   0.308  0.00  0.00    +0.037 A 
ATOM     16  C   UNL     1      20.106  -0.086   0.630  0.00  0.00    +0.013 A 
ATOM     17  C   UNL     1      19.205   0.479   1.603  0.00  0.00    +0.005 A 
ATOM     18  C   UNL     1      18.227  -0.385   2.260  0.00  0.00    -0.033 A 
ATOM     28  C   UNL     1      18.179  -1.797   1.917  0.00  0.00    +0.005 A 
ATOM     29  C   UNL     1      19.061  -2.354   0.965  0.00  0.00    +0.013 A 
BRANCH  18  19
ATOM     19  C   UNL     1      17.241   0.127   3.326  0.00  0.00    +0.119 C 
BRANCH  19  20
ATOM     20  N   UNL     1      17.800   0.466   4.669  0.00  0.00    -0.302 NA
ATOM     21  C   UNL     1      16.870   0.031   5.805  0.00  0.00    +0.066 C 
ATOM     22  C   UNL     1      17.480   0.373   7.203  0.00  0.00    -0.064 C 
ATOM     23  N   UNL     1      17.764   1.874   7.279  0.00  0.00    +0.379 N 
ATOM     24  C   UNL     1      18.284   2.208   8.613  0.00  0.00    -0.096 C 
ATOM     25  H   UNL     1      16.793   2.408   7.151  0.00  0.00    -0.082 HD
ATOM     26  C   UNL     1      18.686   2.315   6.151  0.00  0.00    -0.064 C 
ATOM     27  C   UNL     1      18.083   1.945   4.768  0.00  0.00    +0.066 C 
ENDBRANCH  19  20
ENDBRANCH  18  19
ENDBRANCH  14  15
ENDBRANCH  12  13
TORSDOF 6
ENDMDL
MODEL 5
REMARK VINA RESULT:      -8.0      2.280      3.006
REMARK  Name = C:\Users\Docking\Desktop\test protocol\1iep_ligandH.pdb
REMARK  8 active torsions:
REMARK  status: ('A' for Active; 'I' for Inactive)
REMARK    1  A    between atoms: _5  and  _11
REMARK    2  A    between atoms: _19  and  _21
REMARK    3  A    between atoms: _22  and  _66
REMARK    4  A    between atoms: _27  and  _30
REMARK    5  A    between atoms: _32  and  _33
REMARK    6  A    between atoms: _38  and  _43
REMARK    7  A    between atoms: _43  and  _46
REMARK    8  A    between atoms: _53  and  _55
REMARK                            x       y       z     vdW  Elec       q    Type
REMARK                         _______ _______ _______ _____ _____    ______ ____
ROOT
ATOM     10  C   UNL     1      16.419  -1.341   2.779  0.00  0.00    +0.038 A 
ATOM     11  C   UNL     1      17.226  -1.895   1.752  0.00  0.00    +0.047 A 
ATOM     12  C   UNL     1      18.667  -2.020   1.912  0.00  0.00    +0.035 A 
ATOM     32  C   UNL     1      19.252  -1.573   3.133  0.00  0.00    +0.024 A 
ATOM     33  C   UNL     1      18.447  -1.006   4.186  0.00  0.00    +0.007 A 
ATOM     34  C   UNL     1      17.026  -0.878   4.033  0.00  0.00    -0.029 A 
ATOM     35  C   UNL     1      16.213  -0.257   5.193  0.00  0.00    +0.045 C 
ENDROOT
BRANCH  10   9
ATOM      4  C   UNL     1      11.952  -3.054   3.160  0.00  0.00    +0.077 A 
ATOM      5  C   UNL     1      12.404  -4.255   3.802  0.00  0.00    +0.048 A 
ATOM      6  C   UNL     1      13.795  -4.396   4.009  0.00  0.00    +0.116 A 
ATOM      7  N   UNL     1      14.659  -3.404   3.601  0.00  0.00    -0.223 NA
ATOM      8  C   UNL     1      14.191  -2.259   2.983  0.00  0.00    +0.220 A 
ATOM      9  N   UNL     1      15.042  -1.244   2.572  0.00  0.00    -0.283 N 
ATOM     36  H   UNL     1      14.657  -0.419   2.113  0.00  0.00    +0.155 HD
ATOM     37  N   UNL     1      12.867  -2.101   2.773  0.00  0.00    -0.214 NA
BRANCH   4   3
ATOM      1  C   UNL     1       8.162  -3.452   2.278  0.00  0.00    +0.020 A 
ATOM      2  C   UNL     1       9.541  -3.792   2.545  0.00  0.00    +0.013 A 
ATOM      3  C   UNL     1      10.513  -2.757   2.874  0.00  0.00    +0.019 A 
ATOM     38  C   UNL     1      10.054  -1.378   2.927  0.00  0.00    +0.120 A 
ATOM     39  N   UNL     1       8.720  -1.080   2.664  0.00  0.00    -0.263 NA
ATOM     40  C   UNL     1       7.776  -2.067   2.344  0.00  0.00    +0.111 A 
ENDBRANCH   4   3
ENDBRANCH  10   9
BRANCH  12  13
ATOM     13  N   UNL     1      19.538  -2.567   0.902  0.00  0.00    -0.281 N 
ATOM     14  C   UNL     1      19.927  -1.984  -0.293  0.00  0.00    +0.248 C 
ATOM     30  O   UNL     1      19.413  -0.986  -0.775  0.00  0.00    -0.270 OA
ATOM     31  H   UNL     1      19.913  -3.496   1.090  0.00  0.00    +0.155 HD
BRANCH  14  15
ATOM     15  C   UNL     1      21.040  -2.607  -1.072  0.00  0.00    +0.037 A 
ATOM     16  C   UNL     1      20.788  -3.700  -2.015  0.00  0.00    +0.013 A 
ATOM     17  C   UNL     1      21.882  -4.296  -2.741  0.00  0.00    +0.005 A 
ATOM     18  C   UNL     1      23.238  -3.798  -2.527  0.00  0.00    -0.033 A 
ATOM     28  C   UNL     1      23.459  -2.709  -1.589  0.00  0.00    +0.005 A 
ATOM     29  C   UNL     1      22.390  -2.124  -0.875  0.00  0.00    +0.013 A 
BRANCH  18  19
ATOM     19  C   UNL     1      24.468  -4.388  -3.243  0.00  0.00    +0.119 C 
BRANCH  19  20
ATOM     20  N   UNL     1      24.459  -4.381  -4.736  0.00  0.00    -0.302 NA
ATOM     21  C   UNL     1      25.734  -4.994  -5.321  0.00  0.00    +0.066 C 
ATOM     22  C   UNL     1      25.698  -4.999  -6.884  0.00  0.00    -0.064 C 
ATOM     23  N   UNL     1      25.501  -3.570  -7.392  0.00  0.00    +0.379 N 
ATOM     24  C   UNL     1      25.525  -3.564  -8.862  0.00  0.00    -0.096 C 
ATOM     25  H   UNL     1      26.367  -2.963  -7.037  0.00  0.00    -0.082 HD
ATOM     26  C   UNL     1      24.236  -2.952  -6.813  0.00  0.00    -0.064 C 
ATOM     27  C   UNL     1      24.270  -2.978  -5.259  0.00  0.00    +0.066 C 
ENDBRANCH  19  20
ENDBRANCH  18  19
ENDBRANCH  14  15
ENDBRANCH  12  13
TORSDOF 6
ENDMDL
