MODEL 1
REMARK VINA RESULT:      -8.1      0.000      0.000
REMARK  Name = C:\Users\Docking\Desktop\test protocol\1iep_ligandH.pdb
REMARK  8 active torsions:
REMARK  status: ('A' for Active; 'I' for Inactive)
REMARK    1  A    between atoms: _5  and  _11
REMARK    2  A    between atoms: _19  and  _21
REMARK    3  A    between atoms: _22  and  _66
REMARK    4  A    between atoms: _27  and  _30
REMARK    5  A    between atoms: _32  and  _33
REMARK    6  A    between atoms: _38  and  _43
REMARK    7  A    between atoms: _43  and  _46
REMARK    8  A    between atoms: _53  and  _55
REMARK                            x       y       z     vdW  Elec       q    Type
REMARK                         _______ _______ _______ _____ _____    ______ ____
ROOT
ATOM     10  C   UNL     1       9.421  -8.466 -42.611  0.00  0.00    +0.038 A 
ATOM     11  C   UNL     1       8.078  -8.330 -43.046  0.00  0.00    +0.047 A 
ATOM     12  C   UNL     1       7.646  -8.860 -44.330  0.00  0.00    +0.035 A 
ATOM     32  C   UNL     1       8.608  -9.525 -45.144  0.00  0.00    +0.024 A 
ATOM     33  C   UNL     1       9.978  -9.672 -44.718  0.00  0.00    +0.007 A 
ATOM     34  C   UNL     1      10.410  -9.149 -43.454  0.00  0.00    -0.029 A 
ATOM     35  C   UNL     1      11.892  -9.328 -43.050  0.00  0.00    +0.045 C 
ENDROOT
BRANCH  10   9
ATOM      4  C   UNL     1       9.588  -8.658 -37.818  0.00  0.00    +0.077 A 
ATOM      5  C   UNL     1       8.874  -9.901 -37.783  0.00  0.00    +0.048 A 
ATOM      6  C   UNL     1       8.476 -10.455 -39.021  0.00  0.00    +0.116 A 
ATOM      7  N   UNL     1       8.774  -9.804 -40.198  0.00  0.00    -0.223 NA
ATOM      8  C   UNL     1       9.463  -8.605 -40.196  0.00  0.00    +0.220 A 
ATOM      9  N   UNL     1       9.781  -7.938 -41.369  0.00  0.00    -0.283 N 
ATOM     36  H   UNL     1      10.284  -7.052 -41.324  0.00  0.00    +0.155 HD
ATOM     37  N   UNL     1       9.854  -8.055 -39.027  0.00  0.00    -0.214 NA
BRANCH   4   3
ATOM      1  C   UNL     1      11.876  -6.803 -35.243  0.00  0.00    +0.020 A 
ATOM      2  C   UNL     1      11.452  -7.483 -36.445  0.00  0.00    +0.013 A 
ATOM      3  C   UNL     1      10.080  -7.949 -36.594  0.00  0.00    +0.019 A 
ATOM     38  C   UNL     1       9.152  -7.709 -35.498  0.00  0.00    +0.120 A 
ATOM     39  N   UNL     1       9.589  -7.053 -34.351  0.00  0.00    -0.263 NA
ATOM     40  C   UNL     1      10.908  -6.601 -34.197  0.00  0.00    +0.111 A 
ENDBRANCH   4   3
ENDBRANCH  10   9
BRANCH  12  13
ATOM     13  N   UNL     1       6.298  -8.745 -44.828  0.00  0.00    -0.281 N 
ATOM     14  C   UNL     1       5.416  -7.690 -44.662  0.00  0.00    +0.248 C 
ATOM     30  O   UNL     1       5.579  -6.770 -43.875  0.00  0.00    -0.270 OA
ATOM     31  H   UNL     1       5.952  -9.538 -45.369  0.00  0.00    +0.155 HD
BRANCH  14  15
ATOM     15  C   UNL     1       4.164  -7.660 -45.479  0.00  0.00    +0.037 A 
ATOM     16  C   UNL     1       2.939  -7.040 -44.969  0.00  0.00    +0.013 A 
ATOM     17  C   UNL     1       1.740  -7.040 -45.771  0.00  0.00    +0.005 A 
ATOM     18  C   UNL     1       1.763  -7.661 -47.093  0.00  0.00    -0.033 A 
ATOM     28  C   UNL     1       2.995  -8.264 -47.576  0.00  0.00    +0.005 A 
ATOM     29  C   UNL     1       4.170  -8.267 -46.793  0.00  0.00    +0.013 A 
BRANCH  18  19
ATOM     19  C   UNL     1       0.526  -7.726 -48.008  0.00  0.00    +0.119 C 
BRANCH  19  20
ATOM     20  N   UNL     1      -0.106  -6.429 -48.396  0.00  0.00    -0.302 NA
ATOM     21  C   UNL     1      -1.407  -6.173 -47.631  0.00  0.00    +0.066 C 
ATOM     22  C   UNL     1      -2.043  -4.802 -48.033  0.00  0.00    -0.064 C 
ATOM     23  N   UNL     1      -2.289  -4.780 -49.542  0.00  0.00    +0.379 N 
ATOM     24  C   UNL     1      -2.940  -3.516 -49.915  0.00  0.00    -0.096 C 
ATOM     25  H   UNL     1      -2.996  -5.608 -49.782  0.00  0.00    -0.082 HD
ATOM     26  C   UNL     1      -1.000  -5.037 -50.311  0.00  0.00    -0.064 C 
ATOM     27  C   UNL     1      -0.361  -6.388 -49.883  0.00  0.00    +0.066 C 
ENDBRANCH  19  20
ENDBRANCH  18  19
ENDBRANCH  14  15
ENDBRANCH  12  13
TORSDOF 6
ENDMDL
MODEL 2
REMARK VINA RESULT:      -8.1      2.018     12.801
REMARK  Name = C:\Users\Docking\Desktop\test protocol\1iep_ligandH.pdb
REMARK  8 active torsions:
REMARK  status: ('A' for Active; 'I' for Inactive)
REMARK    1  A    between atoms: _5  and  _11
REMARK    2  A    between atoms: _19  and  _21
REMARK    3  A    between atoms: _22  and  _66
REMARK    4  A    between atoms: _27  and  _30
REMARK    5  A    between atoms: _32  and  _33
REMARK    6  A    between atoms: _38  and  _43
REMARK    7  A    between atoms: _43  and  _46
REMARK    8  A    between atoms: _53  and  _55
REMARK                            x       y       z     vdW  Elec       q    Type
REMARK                         _______ _______ _______ _____ _____    ______ ____
ROOT
ATOM     10  C   UNL     1       7.217  -8.330 -44.698  0.00  0.00    +0.038 A 
ATOM     11  C   UNL     1       7.513  -8.232 -43.315  0.00  0.00    +0.047 A 
ATOM     12  C   UNL     1       8.630  -8.958 -42.731  0.00  0.00    +0.035 A 
ATOM     32  C   UNL     1       9.427  -9.774 -43.587  0.00  0.00    +0.024 A 
ATOM     33  C   UNL     1       9.139  -9.885 -44.995  0.00  0.00    +0.007 A 
ATOM     34  C   UNL     1       8.037  -9.173 -45.576  0.00  0.00    -0.029 A 
ATOM     35  C   UNL     1       7.772  -9.335 -47.091  0.00  0.00    +0.045 C 
ENDROOT
BRANCH  10   9
ATOM      4  C   UNL     1       2.616  -7.980 -46.022  0.00  0.00    +0.077 A 
ATOM      5  C   UNL     1       2.358  -9.354 -45.700  0.00  0.00    +0.048 A 
ATOM      6  C   UNL     1       3.438 -10.119 -45.204  0.00  0.00    +0.116 A 
ATOM      7  N   UNL     1       4.679  -9.541 -45.044  0.00  0.00    -0.223 NA
ATOM      8  C   UNL     1       4.894  -8.214 -45.366  0.00  0.00    +0.220 A 
ATOM      9  N   UNL     1       6.132  -7.611 -45.206  0.00  0.00    -0.283 N 
ATOM     36  H   UNL     1       6.253  -6.631 -45.461  0.00  0.00    +0.155 HD
ATOM     37  N   UNL     1       3.880  -7.463 -45.843  0.00  0.00    -0.214 NA
BRANCH   4   3
ATOM      1  C   UNL     1      -0.152  -5.228 -46.269  0.00  0.00    +0.020 A 
ATOM      2  C   UNL     1       0.842  -6.113 -45.706  0.00  0.00    +0.013 A 
ATOM      3  C   UNL     1       1.577  -7.043 -46.553  0.00  0.00    +0.019 A 
ATOM     38  C   UNL     1       1.281  -7.053 -47.978  0.00  0.00    +0.120 A 
ATOM     39  N   UNL     1       0.318  -6.190 -48.492  0.00  0.00    -0.263 NA
ATOM     40  C   UNL     1      -0.397  -5.292 -47.686  0.00  0.00    +0.111 A 
ENDBRANCH   4   3
ENDBRANCH  10   9
BRANCH  12  13
ATOM     13  N   UNL     1       8.974  -8.904 -41.332  0.00  0.00    -0.281 N 
ATOM     14  C   UNL     1      10.149  -8.444 -40.761  0.00  0.00    +0.248 C 
ATOM     30  O   UNL     1      11.173  -8.206 -41.384  0.00  0.00    -0.270 OA
ATOM     31  H   UNL     1       8.265  -9.247 -40.684  0.00  0.00    +0.155 HD
BRANCH  14  15
ATOM     15  C   UNL     1      10.199  -8.232 -39.282  0.00  0.00    +0.037 A 
ATOM     16  C   UNL     1      11.445  -7.857 -38.610  0.00  0.00    +0.013 A 
ATOM     17  C   UNL     1      11.469  -7.675 -37.180  0.00  0.00    +0.005 A 
ATOM     18  C   UNL     1      10.241  -7.867 -36.413  0.00  0.00    -0.033 A 
ATOM     28  C   UNL     1       9.017  -8.234 -37.106  0.00  0.00    +0.005 A 
ATOM     29  C   UNL     1       8.990  -8.414 -38.507  0.00  0.00    +0.013 A 
BRANCH  18  19
ATOM     19  C   UNL     1      10.179  -7.714 -34.882  0.00  0.00    +0.119 C 
BRANCH  19  20
ATOM     20  N   UNL     1      10.509  -6.373 -34.314  0.00  0.00    -0.302 NA
ATOM     21  C   UNL     1      11.778  -6.409 -33.457  0.00  0.00    +0.066 C 
ATOM     22  C   UNL     1      12.122  -4.993 -32.890  0.00  0.00    -0.064 C 
ATOM     23  N   UNL     1      10.935  -4.470 -32.079  0.00  0.00    +0.379 N 
ATOM     24  C   UNL     1      11.277  -3.165 -31.496  0.00  0.00    -0.096 C 
ATOM     25  H   UNL     1      10.761  -5.181 -31.238  0.00  0.00    -0.082 HD
ATOM     26  C   UNL     1       9.669  -4.434 -32.922  0.00  0.00    -0.064 C 
ATOM     27  C   UNL     1       9.353  -5.839 -33.505  0.00  0.00    +0.066 C 
ENDBRANCH  19  20
ENDBRANCH  18  19
ENDBRANCH  14  15
ENDBRANCH  12  13
TORSDOF 6
ENDMDL
MODEL 3
REMARK VINA RESULT:      -7.9      1.528      2.008
REMARK  Name = C:\Users\Docking\Desktop\test protocol\1iep_ligandH.pdb
REMARK  8 active torsions:
REMARK  status: ('A' for Active; 'I' for Inactive)
REMARK    1  A    between atoms: _5  and  _11
REMARK    2  A    between atoms: _19  and  _21
REMARK    3  A    between atoms: _22  and  _66
REMARK    4  A    between atoms: _27  and  _30
REMARK    5  A    between atoms: _32  and  _33
REMARK    6  A    between atoms: _38  and  _43
REMARK    7  A    between atoms: _43  and  _46
REMARK    8  A    between atoms: _53  and  _55
REMARK                            x       y       z     vdW  Elec       q    Type
REMARK                         _______ _______ _______ _____ _____    ______ ____
ROOT
ATOM     10  C   UNL     1       8.490  -8.522 -43.825  0.00  0.00    +0.038 A 
ATOM     11  C   UNL     1       7.185  -8.132 -44.222  0.00  0.00    +0.047 A 
ATOM     12  C   UNL     1       6.627  -8.556 -45.496  0.00  0.00    +0.035 A 
ATOM     32  C   UNL     1       7.426  -9.381 -46.342  0.00  0.00    +0.024 A 
ATOM     33  C   UNL     1       8.754  -9.785 -45.955  0.00  0.00    +0.007 A 
ATOM     34  C   UNL     1       9.311  -9.368 -44.700  0.00  0.00    -0.029 A 
ATOM     35  C   UNL     1      10.743  -9.827 -44.341  0.00  0.00    +0.045 C 
ENDROOT
BRANCH  10   9
ATOM      4  C   UNL     1       9.203  -9.098 -39.114  0.00  0.00    +0.077 A 
ATOM      5  C   UNL     1       8.528 -10.364 -39.107  0.00  0.00    +0.048 A 
ATOM      6  C   UNL     1       8.005 -10.827 -40.335  0.00  0.00    +0.116 A 
ATOM      7  N   UNL     1       8.153 -10.074 -41.479  0.00  0.00    -0.223 NA
ATOM      8  C   UNL     1       8.808  -8.856 -41.451  0.00  0.00    +0.220 A 
ATOM      9  N   UNL     1       8.976  -8.085 -42.591  0.00  0.00    -0.283 N 
ATOM     36  H   UNL     1       9.459  -7.189 -42.527  0.00  0.00    +0.155 HD
ATOM     37  N   UNL     1       9.315  -8.391 -40.290  0.00  0.00    -0.214 NA
BRANCH   4   3
ATOM      1  C   UNL     1       9.698  -7.628 -35.523  0.00  0.00    +0.020 A 
ATOM      2  C   UNL     1       9.062  -8.231 -36.672  0.00  0.00    +0.013 A 
ATOM      3  C   UNL     1       9.813  -8.476 -37.897  0.00  0.00    +0.019 A 
ATOM     38  C   UNL     1      11.217  -8.095 -37.927  0.00  0.00    +0.120 A 
ATOM     39  N   UNL     1      11.802  -7.514 -36.806  0.00  0.00    -0.263 NA
ATOM     40  C   UNL     1      11.089  -7.273 -35.623  0.00  0.00    +0.111 A 
ENDBRANCH   4   3
ENDBRANCH  10   9
BRANCH  12  13
ATOM     13  N   UNL     1       5.312  -8.185 -45.956  0.00  0.00    -0.281 N 
ATOM     14  C   UNL     1       4.108  -8.818 -45.693  0.00  0.00    +0.248 C 
ATOM     30  O   UNL     1       4.006  -9.930 -45.196  0.00  0.00    -0.270 OA
ATOM     31  H   UNL     1       5.262  -7.354 -46.546  0.00  0.00    +0.155 HD
BRANCH  14  15
ATOM     15  C   UNL     1       2.834  -8.123 -46.048  0.00  0.00    +0.037 A 
ATOM     16  C   UNL     1       2.470  -6.843 -45.434  0.00  0.00    +0.013 A 
ATOM     17  C   UNL     1       1.227  -6.202 -45.782  0.00  0.00    +0.005 A 
ATOM     18  C   UNL     1       0.338  -6.839 -46.750  0.00  0.00    -0.033 A 
ATOM     28  C   UNL     1       0.726  -8.106 -47.348  0.00  0.00    +0.005 A 
ATOM     29  C   UNL     1       1.944  -8.738 -47.009  0.00  0.00    +0.013 A 
BRANCH  18  19
ATOM     19  C   UNL     1      -1.017  -6.237 -47.165  0.00  0.00    +0.119 C 
BRANCH  19  20
ATOM     20  N   UNL     1      -1.261  -6.040 -48.625  0.00  0.00    -0.302 NA
ATOM     21  C   UNL     1      -1.795  -4.639 -48.934  0.00  0.00    +0.066 C 
ATOM     22  C   UNL     1      -2.023  -4.443 -50.469  0.00  0.00    -0.064 C 
ATOM     23  N   UNL     1      -2.987  -5.516 -50.980  0.00  0.00    +0.379 N 
ATOM     24  C   UNL     1      -3.248  -5.299 -52.410  0.00  0.00    -0.096 C 
ATOM     25  H   UNL     1      -3.952  -5.389 -50.436  0.00  0.00    -0.082 HD
ATOM     26  C   UNL     1      -2.464  -6.912 -50.673  0.00  0.00    -0.064 C 
ATOM     27  C   UNL     1      -2.213  -7.086 -49.149  0.00  0.00    +0.066 C 
ENDBRANCH  19  20
ENDBRANCH  18  19
ENDBRANCH  14  15
ENDBRANCH  12  13
TORSDOF 6
ENDMDL
MODEL 4
REMARK VINA RESULT:      -7.8     18.182     24.111
REMARK  Name = C:\Users\Docking\Desktop\test protocol\1iep_ligandH.pdb
REMARK  8 active torsions:
REMARK  status: ('A' for Active; 'I' for Inactive)
REMARK    1  A    between atoms: _5  and  _11
REMARK    2  A    between atoms: _19  and  _21
REMARK    3  A    between atoms: _22  and  _66
REMARK    4  A    between atoms: _27  and  _30
REMARK    5  A    between atoms: _32  and  _33
REMARK    6  A    between atoms: _38  and  _43
REMARK    7  A    between atoms: _43  and  _46
REMARK    8  A    between atoms: _53  and  _55
REMARK                            x       y       z     vdW  Elec       q    Type
REMARK                         _______ _______ _______ _____ _____    ______ ____
ROOT
ATOM     10  C   UNL     1      13.929   2.068 -29.478  0.00  0.00    +0.038 A 
ATOM     11  C   UNL     1      15.109   2.809 -29.213  0.00  0.00    +0.047 A 
ATOM     12  C   UNL     1      16.415   2.314 -29.618  0.00  0.00    +0.035 A 
ATOM     32  C   UNL     1      16.483   1.061 -30.293  0.00  0.00    +0.024 A 
ATOM     33  C   UNL     1      15.294   0.294 -30.569  0.00  0.00    +0.007 A 
ATOM     34  C   UNL     1      14.003   0.776 -30.171  0.00  0.00    -0.029 A 
ATOM     35  C   UNL     1      12.763  -0.091 -30.488  0.00  0.00    +0.045 C 
ENDROOT
BRANCH  10   9
ATOM      4  C   UNL     1      10.373   2.514 -26.286  0.00  0.00    +0.077 A 
ATOM      5  C   UNL     1      11.002   1.607 -25.370  0.00  0.00    +0.048 A 
ATOM      6  C   UNL     1      12.236   1.042 -25.761  0.00  0.00    +0.116 A 
ATOM      7  N   UNL     1      12.791   1.367 -26.980  0.00  0.00    -0.223 NA
ATOM      8  C   UNL     1      12.157   2.244 -27.841  0.00  0.00    +0.220 A 
ATOM      9  N   UNL     1      12.701   2.591 -29.068  0.00  0.00    -0.283 N 
ATOM     36  H   UNL     1      12.198   3.236 -29.678  0.00  0.00    +0.155 HD
ATOM     37  N   UNL     1      10.977   2.796 -27.491  0.00  0.00    -0.214 NA
BRANCH   4   3
ATOM      1  C   UNL     1       6.548   3.313 -26.092  0.00  0.00    +0.020 A 
ATOM      2  C   UNL     1       7.780   2.614 -26.377  0.00  0.00    +0.013 A 
ATOM      3  C   UNL     1       9.067   3.195 -26.015  0.00  0.00    +0.019 A 
ATOM     38  C   UNL     1       9.072   4.494 -25.359  0.00  0.00    +0.120 A 
ATOM     39  N   UNL     1       7.870   5.144 -25.099  0.00  0.00    -0.263 NA
ATOM     40  C   UNL     1       6.626   4.596 -25.444  0.00  0.00    +0.111 A 
ENDBRANCH   4   3
ENDBRANCH  10   9
BRANCH  12  13
ATOM     13  N   UNL     1      17.649   3.019 -29.368  0.00  0.00    -0.281 N 
ATOM     14  C   UNL     1      18.596   3.431 -30.292  0.00  0.00    +0.248 C 
ATOM     30  O   UNL     1      18.629   3.065 -31.458  0.00  0.00    -0.270 OA
ATOM     31  H   UNL     1      17.848   3.241 -28.393  0.00  0.00    +0.155 HD
BRANCH  14  15
ATOM     15  C   UNL     1      19.669   4.373 -29.853  0.00  0.00    +0.037 A 
ATOM     16  C   UNL     1      19.425   5.369 -28.807  0.00  0.00    +0.013 A 
ATOM     17  C   UNL     1      20.474   6.278 -28.415  0.00  0.00    +0.005 A 
ATOM     18  C   UNL     1      21.777   6.193 -29.069  0.00  0.00    -0.033 A 
ATOM     28  C   UNL     1      21.993   5.191 -30.100  0.00  0.00    +0.005 A 
ATOM     29  C   UNL     1      20.968   4.300 -30.488  0.00  0.00    +0.013 A 
BRANCH  18  19
ATOM     19  C   UNL     1      22.947   7.135 -28.729  0.00  0.00    +0.119 C 
BRANCH  19  20
ATOM     20  N   UNL     1      23.930   7.425 -29.815  0.00  0.00    -0.302 NA
ATOM     21  C   UNL     1      25.317   7.761 -29.260  0.00  0.00    +0.066 C 
ATOM     22  C   UNL     1      26.338   8.039 -30.411  0.00  0.00    -0.064 C 
ATOM     23  N   UNL     1      25.816   9.178 -31.289  0.00  0.00    +0.379 N 
ATOM     24  C   UNL     1      26.801   9.480 -32.337  0.00  0.00    -0.096 C 
ATOM     25  H   UNL     1      25.717  10.082 -30.645  0.00  0.00    -0.082 HD
ATOM     26  C   UNL     1      24.435   8.853 -31.842  0.00  0.00    -0.064 C 
ATOM     27  C   UNL     1      23.436   8.550 -30.692  0.00  0.00    +0.066 C 
ENDBRANCH  19  20
ENDBRANCH  18  19
ENDBRANCH  14  15
ENDBRANCH  12  13
TORSDOF 6
ENDMDL
MODEL 5
REMARK VINA RESULT:      -7.7     14.289     22.016
REMARK  Name = C:\Users\Docking\Desktop\test protocol\1iep_ligandH.pdb
REMARK  8 active torsions:
REMARK  status: ('A' for Active; 'I' for Inactive)
REMARK    1  A    between atoms: _5  and  _11
REMARK    2  A    between atoms: _19  and  _21
REMARK    3  A    between atoms: _22  and  _66
REMARK    4  A    between atoms: _27  and  _30
REMARK    5  A    between atoms: _32  and  _33
REMARK    6  A    between atoms: _38  and  _43
REMARK    7  A    between atoms: _43  and  _46
REMARK    8  A    between atoms: _53  and  _55
REMARK                            x       y       z     vdW  Elec       q    Type
REMARK                         _______ _______ _______ _____ _____    ______ ____
ROOT
ATOM     10  C   UNL     1      14.093   1.599 -29.780  0.00  0.00    +0.038 A 
ATOM     11  C   UNL     1      13.464   2.809 -29.388  0.00  0.00    +0.047 A 
ATOM     12  C   UNL     1      14.171   3.803 -28.597  0.00  0.00    +0.035 A 
ATOM     32  C   UNL     1      15.520   3.534 -28.224  0.00  0.00    +0.024 A 
ATOM     33  C   UNL     1      16.175   2.310 -28.612  0.00  0.00    +0.007 A 
ATOM     34  C   UNL     1      15.481   1.324 -29.391  0.00  0.00    -0.029 A 
ATOM     35  C   UNL     1      16.231   0.027 -29.774  0.00  0.00    +0.045 C 
ENDROOT
BRANCH  10   9
ATOM      4  C   UNL     1      10.992  -2.041 -30.189  0.00  0.00    +0.077 A 
ATOM      5  C   UNL     1      10.826  -2.137 -28.767  0.00  0.00    +0.048 A 
ATOM      6  C   UNL     1      11.562  -1.236 -27.966  0.00  0.00    +0.116 A 
ATOM      7  N   UNL     1      12.398  -0.311 -28.553  0.00  0.00    -0.223 NA
ATOM      8  C   UNL     1      12.537  -0.247 -29.927  0.00  0.00    +0.220 A 
ATOM      9  N   UNL     1      13.367   0.680 -30.540  0.00  0.00    -0.283 N 
ATOM     36  H   UNL     1      13.447   0.690 -31.556  0.00  0.00    +0.155 HD
ATOM     37  N   UNL     1      11.846  -1.098 -30.715  0.00  0.00    -0.214 NA
BRANCH   4   3
ATOM      1  C   UNL     1       8.704  -3.299 -33.102  0.00  0.00    +0.020 A 
ATOM      2  C   UNL     1       9.366  -2.406 -32.179  0.00  0.00    +0.013 A 
ATOM      3  C   UNL     1      10.281  -2.922 -31.169  0.00  0.00    +0.019 A 
ATOM     38  C   UNL     1      10.507  -4.359 -31.119  0.00  0.00    +0.120 A 
ATOM     39  N   UNL     1       9.855  -5.195 -32.020  0.00  0.00    -0.263 NA
ATOM     40  C   UNL     1       8.971  -4.709 -32.995  0.00  0.00    +0.111 A 
ENDBRANCH   4   3
ENDBRANCH  10   9
BRANCH  12  13
ATOM     13  N   UNL     1      13.581   5.045 -28.163  0.00  0.00    -0.281 N 
ATOM     14  C   UNL     1      12.830   5.279 -27.022  0.00  0.00    +0.248 C 
ATOM     30  O   UNL     1      12.369   4.402 -26.307  0.00  0.00    -0.270 OA
ATOM     31  H   UNL     1      13.737   5.850 -28.770  0.00  0.00    +0.155 HD
BRANCH  14  15
ATOM     15  C   UNL     1      12.537   6.690 -26.628  0.00  0.00    +0.037 A 
ATOM     16  C   UNL     1      11.375   7.021 -25.799  0.00  0.00    +0.013 A 
ATOM     17  C   UNL     1      11.105   8.393 -25.447  0.00  0.00    +0.005 A 
ATOM     18  C   UNL     1      12.001   9.444 -25.922  0.00  0.00    -0.033 A 
ATOM     28  C   UNL     1      13.150   9.087 -26.738  0.00  0.00    +0.005 A 
ATOM     29  C   UNL     1      13.417   7.744 -27.087  0.00  0.00    +0.013 A 
BRANCH  18  19
ATOM     19  C   UNL     1      11.779  10.936 -25.613  0.00  0.00    +0.119 C 
BRANCH  19  20
ATOM     20  N   UNL     1      10.381  11.372 -25.317  0.00  0.00    -0.302 NA
ATOM     21  C   UNL     1       9.582  11.644 -26.595  0.00  0.00    +0.066 C 
ATOM     22  C   UNL     1       8.116  12.078 -26.268  0.00  0.00    -0.064 C 
ATOM     23  N   UNL     1       8.142  13.317 -25.371  0.00  0.00    +0.379 N 
ATOM     24  C   UNL     1       6.765  13.761 -25.109  0.00  0.00    -0.096 C 
ATOM     25  H   UNL     1       8.659  14.129 -25.932  0.00  0.00    -0.082 HD
ATOM     26  C   UNL     1       8.937  13.056 -24.100  0.00  0.00    -0.064 C 
ATOM     27  C   UNL     1      10.383  12.597 -24.436  0.00  0.00    +0.066 C 
ENDBRANCH  19  20
ENDBRANCH  18  19
ENDBRANCH  14  15
ENDBRANCH  12  13
TORSDOF 6
ENDMDL
