MODEL 1
REMARK VINA RESULT:      -8.4      0.000      0.000
REMARK  Name = C:\Users\Docking\Desktop\test protocol\1iep_ligandH.pdb
REMARK  8 active torsions:
REMARK  status: ('A' for Active; 'I' for Inactive)
REMARK    1  A    between atoms: _5  and  _11
REMARK    2  A    between atoms: _19  and  _21
REMARK    3  A    between atoms: _22  and  _66
REMARK    4  A    between atoms: _27  and  _30
REMARK    5  A    between atoms: _32  and  _33
REMARK    6  A    between atoms: _38  and  _43
REMARK    7  A    between atoms: _43  and  _46
REMARK    8  A    between atoms: _53  and  _55
REMARK                            x       y       z     vdW  Elec       q    Type
REMARK                         _______ _______ _______ _____ _____    ______ ____
ROOT
ATOM     10  C   UNL     1      19.556 -17.647 -19.039  0.00  0.00    +0.038 A 
ATOM     11  C   UNL     1      18.252 -17.823 -18.511  0.00  0.00    +0.047 A 
ATOM     12  C   UNL     1      17.646 -19.142 -18.425  0.00  0.00    +0.035 A 
ATOM     32  C   UNL     1      18.398 -20.262 -18.884  0.00  0.00    +0.024 A 
ATOM     33  C   UNL     1      19.725 -20.102 -19.425  0.00  0.00    +0.007 A 
ATOM     34  C   UNL     1      20.327 -18.802 -19.515  0.00  0.00    -0.029 A 
ATOM     35  C   UNL     1      21.750 -18.689 -20.110  0.00  0.00    +0.045 C 
ENDROOT
BRANCH  10   9
ATOM      4  C   UNL     1      20.598 -13.602 -21.403  0.00  0.00    +0.077 A 
ATOM      5  C   UNL     1      20.059 -14.110 -22.631  0.00  0.00    +0.048 A 
ATOM      6  C   UNL     1      19.530 -15.420 -22.614  0.00  0.00    +0.116 A 
ATOM      7  N   UNL     1      19.543 -16.157 -21.449  0.00  0.00    -0.223 NA
ATOM      8  C   UNL     1      20.072 -15.637 -20.283  0.00  0.00    +0.220 A 
ATOM      9  N   UNL     1      20.089 -16.357 -19.098  0.00  0.00    -0.283 N 
ATOM     36  H   UNL     1      20.495 -15.941 -18.260  0.00  0.00    +0.155 HD
ATOM     37  N   UNL     1      20.585 -14.389 -20.273  0.00  0.00    -0.214 NA
BRANCH   4   3
ATOM      1  C   UNL     1      22.613 -10.317 -22.076  0.00  0.00    +0.020 A 
ATOM      2  C   UNL     1      22.068 -11.642 -22.262  0.00  0.00    +0.013 A 
ATOM      3  C   UNL     1      21.190 -12.234 -21.260  0.00  0.00    +0.019 A 
ATOM     38  C   UNL     1      20.881 -11.452 -20.073  0.00  0.00    +0.120 A 
ATOM     39  N   UNL     1      21.421 -10.179 -19.920  0.00  0.00    -0.263 NA
ATOM     40  C   UNL     1      22.269  -9.600 -20.877  0.00  0.00    +0.111 A 
ENDBRANCH   4   3
ENDBRANCH  10   9
BRANCH  12  13
ATOM     13  N   UNL     1      16.322 -19.381 -17.906  0.00  0.00    -0.281 N 
ATOM     14  C   UNL     1      15.966 -20.112 -16.784  0.00  0.00    +0.248 C 
ATOM     30  O   UNL     1      16.722 -20.855 -16.175  0.00  0.00    -0.270 OA
ATOM     31  H   UNL     1      15.554 -18.959 -18.428  0.00  0.00    +0.155 HD
BRANCH  14  15
ATOM     15  C   UNL     1      14.564 -20.017 -16.274  0.00  0.00    +0.037 A 
ATOM     16  C   UNL     1      14.286 -19.790 -14.854  0.00  0.00    +0.013 A 
ATOM     17  C   UNL     1      12.925 -19.719 -14.386  0.00  0.00    +0.005 A 
ATOM     18  C   UNL     1      11.830 -19.873 -15.341  0.00  0.00    -0.033 A 
ATOM     28  C   UNL     1      12.135 -20.092 -16.746  0.00  0.00    +0.005 A 
ATOM     29  C   UNL     1      13.468 -20.163 -17.208  0.00  0.00    +0.013 A 
BRANCH  18  19
ATOM     19  C   UNL     1      10.347 -19.832 -14.927  0.00  0.00    +0.119 C 
BRANCH  19  20
ATOM     20  N   UNL     1       9.896 -20.821 -13.903  0.00  0.00    -0.302 NA
ATOM     21  C   UNL     1      10.189 -22.263 -14.327  0.00  0.00    +0.066 C 
ATOM     22  C   UNL     1       9.731 -23.282 -13.234  0.00  0.00    -0.064 C 
ATOM     23  N   UNL     1       8.238 -23.092 -12.958  0.00  0.00    +0.379 N 
ATOM     24  C   UNL     1       7.792 -24.088 -11.972  0.00  0.00    -0.096 C 
ATOM     25  H   UNL     1       7.691 -23.288 -13.909  0.00  0.00    -0.082 HD
ATOM     26  C   UNL     1       7.937 -21.661 -12.538  0.00  0.00    -0.064 C 
ATOM     27  C   UNL     1       8.423 -20.654 -13.617  0.00  0.00    +0.066 C 
ENDBRANCH  19  20
ENDBRANCH  18  19
ENDBRANCH  14  15
ENDBRANCH  12  13
TORSDOF 6
ENDMDL
MODEL 2
REMARK VINA RESULT:      -8.4      9.145     13.682
REMARK  Name = C:\Users\Docking\Desktop\test protocol\1iep_ligandH.pdb
REMARK  8 active torsions:
REMARK  status: ('A' for Active; 'I' for Inactive)
REMARK    1  A    between atoms: _5  and  _11
REMARK    2  A    between atoms: _19  and  _21
REMARK    3  A    between atoms: _22  and  _66
REMARK    4  A    between atoms: _27  and  _30
REMARK    5  A    between atoms: _32  and  _33
REMARK    6  A    between atoms: _38  and  _43
REMARK    7  A    between atoms: _43  and  _46
REMARK    8  A    between atoms: _53  and  _55
REMARK                            x       y       z     vdW  Elec       q    Type
REMARK                         _______ _______ _______ _____ _____    ______ ____
ROOT
ATOM     10  C   UNL     1       9.434 -18.093 -14.847  0.00  0.00    +0.038 A 
ATOM     11  C   UNL     1       8.049 -17.907 -15.088  0.00  0.00    +0.047 A 
ATOM     12  C   UNL     1       7.452 -16.580 -15.063  0.00  0.00    +0.035 A 
ATOM     32  C   UNL     1       8.297 -15.465 -14.792  0.00  0.00    +0.024 A 
ATOM     33  C   UNL     1       9.707 -15.636 -14.544  0.00  0.00    +0.007 A 
ATOM     34  C   UNL     1      10.301 -16.943 -14.565  0.00  0.00    -0.029 A 
ATOM     35  C   UNL     1      11.816 -17.067 -14.286  0.00  0.00    +0.045 C 
ENDROOT
BRANCH  10   9
ATOM      4  C   UNL     1      10.584 -22.253 -12.746  0.00  0.00    +0.077 A 
ATOM      5  C   UNL     1      10.135 -21.796 -11.462  0.00  0.00    +0.048 A 
ATOM      6  C   UNL     1       9.622 -20.482 -11.384  0.00  0.00    +0.116 A 
ATOM      7  N   UNL     1       9.566 -19.692 -12.512  0.00  0.00    -0.223 NA
ATOM      8  C   UNL     1      10.008 -20.163 -13.734  0.00  0.00    +0.220 A 
ATOM      9  N   UNL     1       9.954 -19.389 -14.883  0.00  0.00    -0.283 N 
ATOM     36  H   UNL     1      10.297 -19.770 -15.765  0.00  0.00    +0.155 HD
ATOM     37  N   UNL     1      10.504 -21.414 -13.835  0.00  0.00    -0.214 NA
BRANCH   4   3
ATOM      1  C   UNL     1      11.343 -26.081 -12.481  0.00  0.00    +0.020 A 
ATOM      2  C   UNL     1      10.769 -24.784 -12.203  0.00  0.00    +0.013 A 
ATOM      3  C   UNL     1      11.148 -23.618 -12.991  0.00  0.00    +0.019 A 
ATOM     38  C   UNL     1      12.117 -23.799 -14.061  0.00  0.00    +0.120 A 
ATOM     39  N   UNL     1      12.654 -25.059 -14.304  0.00  0.00    -0.263 NA
ATOM     40  C   UNL     1      12.299 -26.188 -13.552  0.00  0.00    +0.111 A 
ENDBRANCH   4   3
ENDBRANCH  10   9
BRANCH  12  13
ATOM     13  N   UNL     1       6.051 -16.331 -15.291  0.00  0.00    -0.281 N 
ATOM     14  C   UNL     1       5.420 -16.056 -16.494  0.00  0.00    +0.248 C 
ATOM     30  O   UNL     1       6.001 -15.771 -17.530  0.00  0.00    -0.270 OA
ATOM     31  H   UNL     1       5.451 -16.360 -14.467  0.00  0.00    +0.155 HD
BRANCH  14  15
ATOM     15  C   UNL     1       3.927 -16.088 -16.550  0.00  0.00    +0.037 A 
ATOM     16  C   UNL     1       3.165 -14.998 -17.166  0.00  0.00    +0.013 A 
ATOM     17  C   UNL     1       1.725 -15.047 -17.191  0.00  0.00    +0.005 A 
ATOM     18  C   UNL     1       1.036 -16.191 -16.599  0.00  0.00    -0.033 A 
ATOM     28  C   UNL     1       1.816 -17.261 -15.999  0.00  0.00    +0.005 A 
ATOM     29  C   UNL     1       3.228 -17.216 -15.971  0.00  0.00    +0.013 A 
BRANCH  18  19
ATOM     19  C   UNL     1      -0.499 -16.316 -16.562  0.00  0.00    +0.119 C 
BRANCH  19  20
ATOM     20  N   UNL     1      -1.177 -16.026 -15.263  0.00  0.00    -0.302 NA
ATOM     21  C   UNL     1      -0.409 -14.994 -14.432  0.00  0.00    +0.066 C 
ATOM     22  C   UNL     1      -1.145 -14.686 -13.087  0.00  0.00    -0.064 C 
ATOM     23  N   UNL     1      -1.331 -15.985 -12.301  0.00  0.00    +0.379 N 
ATOM     24  C   UNL     1      -1.971 -15.690 -11.011  0.00  0.00    -0.096 C 
ATOM     25  H   UNL     1      -0.319 -16.401 -12.090  0.00  0.00    -0.082 HD
ATOM     26  C   UNL     1      -2.092 -17.017 -13.122  0.00  0.00    -0.064 C 
ATOM     27  C   UNL     1      -1.368 -17.294 -14.469  0.00  0.00    +0.066 C 
ENDBRANCH  19  20
ENDBRANCH  18  19
ENDBRANCH  14  15
ENDBRANCH  12  13
TORSDOF 6
ENDMDL
MODEL 3
REMARK VINA RESULT:      -8.3      3.662     12.684
REMARK  Name = C:\Users\Docking\Desktop\test protocol\1iep_ligandH.pdb
REMARK  8 active torsions:
REMARK  status: ('A' for Active; 'I' for Inactive)
REMARK    1  A    between atoms: _5  and  _11
REMARK    2  A    between atoms: _19  and  _21
REMARK    3  A    between atoms: _22  and  _66
REMARK    4  A    between atoms: _27  and  _30
REMARK    5  A    between atoms: _32  and  _33
REMARK    6  A    between atoms: _38  and  _43
REMARK    7  A    between atoms: _43  and  _46
REMARK    8  A    between atoms: _53  and  _55
REMARK                            x       y       z     vdW  Elec       q    Type
REMARK                         _______ _______ _______ _____ _____    ______ ____
ROOT
ATOM     10  C   UNL     1      10.657 -19.286 -14.461  0.00  0.00    +0.038 A 
ATOM     11  C   UNL     1      11.725 -19.186 -15.389  0.00  0.00    +0.047 A 
ATOM     12  C   UNL     1      13.093 -19.491 -14.998  0.00  0.00    +0.035 A 
ATOM     32  C   UNL     1      13.336 -19.899 -13.654  0.00  0.00    +0.024 A 
ATOM     33  C   UNL     1      12.262 -20.006 -12.698  0.00  0.00    +0.007 A 
ATOM     34  C   UNL     1      10.911 -19.703 -13.077  0.00  0.00    -0.029 A 
ATOM     35  C   UNL     1       9.800 -19.828 -12.009  0.00  0.00    +0.045 C 
ENDROOT
BRANCH  10   9
ATOM      4  C   UNL     1       7.151 -16.159 -15.444  0.00  0.00    +0.077 A 
ATOM      5  C   UNL     1       7.955 -15.041 -15.043  0.00  0.00    +0.048 A 
ATOM      6  C   UNL     1       9.263 -15.314 -14.583  0.00  0.00    +0.116 A 
ATOM      7  N   UNL     1       9.722 -16.613 -14.532  0.00  0.00    -0.223 NA
ATOM      8  C   UNL     1       8.920 -17.668 -14.926  0.00  0.00    +0.220 A 
ATOM      9  N   UNL     1       9.364 -18.981 -14.891  0.00  0.00    -0.283 N 
ATOM     36  H   UNL     1       8.739 -19.732 -15.182  0.00  0.00    +0.155 HD
ATOM     37  N   UNL     1       7.667 -17.434 -15.367  0.00  0.00    -0.214 NA
BRANCH   4   3
ATOM      1  C   UNL     1       3.476 -16.976 -16.505  0.00  0.00    +0.020 A 
ATOM      2  C   UNL     1       4.819 -17.152 -16.002  0.00  0.00    +0.013 A 
ATOM      3  C   UNL     1       5.750 -16.032 -15.956  0.00  0.00    +0.019 A 
ATOM     38  C   UNL     1       5.287 -14.736 -16.430  0.00  0.00    +0.120 A 
ATOM     39  N   UNL     1       3.989 -14.597 -16.911  0.00  0.00    -0.263 NA
ATOM     40  C   UNL     1       3.085 -15.668 -16.962  0.00  0.00    +0.111 A 
ENDBRANCH   4   3
ENDBRANCH  10   9
BRANCH  12  13
ATOM     13  N   UNL     1      14.219 -19.399 -15.893  0.00  0.00    -0.281 N 
ATOM     14  C   UNL     1      14.727 -20.383 -16.727  0.00  0.00    +0.248 C 
ATOM     30  O   UNL     1      14.418 -21.564 -16.670  0.00  0.00    -0.270 OA
ATOM     31  H   UNL     1      14.700 -18.500 -15.916  0.00  0.00    +0.155 HD
BRANCH  14  15
ATOM     15  C   UNL     1      15.733 -20.001 -17.763  0.00  0.00    +0.037 A 
ATOM     16  C   UNL     1      15.320 -19.536 -19.090  0.00  0.00    +0.013 A 
ATOM     17  C   UNL     1      16.312 -19.191 -20.077  0.00  0.00    +0.005 A 
ATOM     18  C   UNL     1      17.728 -19.308 -19.740  0.00  0.00    -0.033 A 
ATOM     28  C   UNL     1      18.111 -19.767 -18.415  0.00  0.00    +0.005 A 
ATOM     29  C   UNL     1      17.141 -20.108 -17.446  0.00  0.00    +0.013 A 
BRANCH  18  19
ATOM     19  C   UNL     1      18.855 -18.982 -20.739  0.00  0.00    +0.119 C 
BRANCH  19  20
ATOM     20  N   UNL     1      18.958 -17.570 -21.215  0.00  0.00    -0.302 NA
ATOM     21  C   UNL     1      20.266 -17.313 -21.970  0.00  0.00    +0.066 C 
ATOM     22  C   UNL     1      20.347 -15.838 -22.481  0.00  0.00    -0.064 C 
ATOM     23  N   UNL     1      20.210 -14.882 -21.295  0.00  0.00    +0.379 N 
ATOM     24  C   UNL     1      20.344 -13.495 -21.764  0.00  0.00    -0.096 C 
ATOM     25  H   UNL     1      21.055 -15.086 -20.596  0.00  0.00    -0.082 HD
ATOM     26  C   UNL     1      18.914 -15.132 -20.537  0.00  0.00    -0.064 C 
ATOM     27  C   UNL     1      18.830 -16.609 -20.059  0.00  0.00    +0.066 C 
ENDBRANCH  19  20
ENDBRANCH  18  19
ENDBRANCH  14  15
ENDBRANCH  12  13
TORSDOF 6
ENDMDL
MODEL 4
REMARK VINA RESULT:      -8.2      1.693      2.789
REMARK  Name = C:\Users\Docking\Desktop\test protocol\1iep_ligandH.pdb
REMARK  8 active torsions:
REMARK  status: ('A' for Active; 'I' for Inactive)
REMARK    1  A    between atoms: _5  and  _11
REMARK    2  A    between atoms: _19  and  _21
REMARK    3  A    between atoms: _22  and  _66
REMARK    4  A    between atoms: _27  and  _30
REMARK    5  A    between atoms: _32  and  _33
REMARK    6  A    between atoms: _38  and  _43
REMARK    7  A    between atoms: _43  and  _46
REMARK    8  A    between atoms: _53  and  _55
REMARK                            x       y       z     vdW  Elec       q    Type
REMARK                         _______ _______ _______ _____ _____    ______ ____
ROOT
ATOM     10  C   UNL     1      19.589 -17.556 -19.226  0.00  0.00    +0.038 A 
ATOM     11  C   UNL     1      18.338 -17.705 -18.575  0.00  0.00    +0.047 A 
ATOM     12  C   UNL     1      17.670 -18.996 -18.513  0.00  0.00    +0.035 A 
ATOM     32  C   UNL     1      18.308 -20.116 -19.123  0.00  0.00    +0.024 A 
ATOM     33  C   UNL     1      19.579 -19.982 -19.790  0.00  0.00    +0.007 A 
ATOM     34  C   UNL     1      20.241 -18.711 -19.857  0.00  0.00    -0.029 A 
ATOM     35  C   UNL     1      21.599 -18.625 -20.590  0.00  0.00    +0.045 C 
ENDROOT
BRANCH  10   9
ATOM      4  C   UNL     1      20.723 -13.462 -21.460  0.00  0.00    +0.077 A 
ATOM      5  C   UNL     1      20.098 -13.886 -22.681  0.00  0.00    +0.048 A 
ATOM      6  C   UNL     1      19.503 -15.167 -22.694  0.00  0.00    +0.116 A 
ATOM      7  N   UNL     1      19.535 -15.957 -21.565  0.00  0.00    -0.223 NA
ATOM      8  C   UNL     1      20.147 -15.519 -20.405  0.00  0.00    +0.220 A 
ATOM      9  N   UNL     1      20.185 -16.293 -19.256  0.00  0.00    -0.283 N 
ATOM     36  H   UNL     1      20.652 -15.937 -18.423  0.00  0.00    +0.155 HD
ATOM     37  N   UNL     1      20.724 -14.300 -20.367  0.00  0.00    -0.214 NA
BRANCH   4   3
ATOM      1  C   UNL     1      22.810 -10.220 -22.120  0.00  0.00    +0.020 A 
ATOM      2  C   UNL     1      22.185 -11.505 -22.337  0.00  0.00    +0.013 A 
ATOM      3  C   UNL     1      21.392 -12.134 -21.289  0.00  0.00    +0.019 A 
ATOM     38  C   UNL     1      21.248 -11.431 -20.023  0.00  0.00    +0.120 A 
ATOM     39  N   UNL     1      21.863 -10.196 -19.842  0.00  0.00    -0.263 NA
ATOM     40  C   UNL     1      22.630  -9.582 -20.843  0.00  0.00    +0.111 A 
ENDBRANCH   4   3
ENDBRANCH  10   9
BRANCH  12  13
ATOM     13  N   UNL     1      16.396 -19.206 -17.873  0.00  0.00    -0.281 N 
ATOM     14  C   UNL     1      15.877 -20.391 -17.377  0.00  0.00    +0.248 C 
ATOM     30  O   UNL     1      16.344 -21.498 -17.602  0.00  0.00    -0.270 OA
ATOM     31  H   UNL     1      15.804 -18.381 -17.774  0.00  0.00    +0.155 HD
BRANCH  14  15
ATOM     15  C   UNL     1      14.654 -20.340 -16.519  0.00  0.00    +0.037 A 
ATOM     16  C   UNL     1      13.321 -20.573 -17.082  0.00  0.00    +0.013 A 
ATOM     17  C   UNL     1      12.156 -20.501 -16.235  0.00  0.00    +0.005 A 
ATOM     18  C   UNL     1      12.320 -20.197 -14.816  0.00  0.00    -0.033 A 
ATOM     28  C   UNL     1      13.655 -19.976 -14.283  0.00  0.00    +0.005 A 
ATOM     29  C   UNL     1      14.798 -20.045 -15.110  0.00  0.00    +0.013 A 
BRANCH  18  19
ATOM     19  C   UNL     1      11.132 -20.080 -13.843  0.00  0.00    +0.119 C 
BRANCH  19  20
ATOM     20  N   UNL     1      10.378 -18.791 -13.836  0.00  0.00    -0.302 NA
ATOM     21  C   UNL     1       9.174 -18.825 -14.782  0.00  0.00    +0.066 C 
ATOM     22  C   UNL     1       8.384 -17.477 -14.746  0.00  0.00    -0.064 C 
ATOM     23  N   UNL     1       9.325 -16.327 -15.109  0.00  0.00    +0.379 N 
ATOM     24  C   UNL     1       8.572 -15.065 -15.132  0.00  0.00    -0.096 C 
ATOM     25  H   UNL     1       9.705 -16.514 -16.140  0.00  0.00    -0.082 HD
ATOM     26  C   UNL     1      10.527 -16.288 -14.174  0.00  0.00    -0.064 C 
ATOM     27  C   UNL     1      11.288 -17.643 -14.196  0.00  0.00    +0.066 C 
ENDBRANCH  19  20
ENDBRANCH  18  19
ENDBRANCH  14  15
ENDBRANCH  12  13
TORSDOF 6
ENDMDL
MODEL 5
REMARK VINA RESULT:      -8.0      9.202     13.728
REMARK  Name = C:\Users\Docking\Desktop\test protocol\1iep_ligandH.pdb
REMARK  8 active torsions:
REMARK  status: ('A' for Active; 'I' for Inactive)
REMARK    1  A    between atoms: _5  and  _11
REMARK    2  A    between atoms: _19  and  _21
REMARK    3  A    between atoms: _22  and  _66
REMARK    4  A    between atoms: _27  and  _30
REMARK    5  A    between atoms: _32  and  _33
REMARK    6  A    between atoms: _38  and  _43
REMARK    7  A    between atoms: _43  and  _46
REMARK    8  A    between atoms: _53  and  _55
REMARK                            x       y       z     vdW  Elec       q    Type
REMARK                         _______ _______ _______ _____ _____    ______ ____
ROOT
ATOM     10  C   UNL     1       9.289 -17.807 -14.769  0.00  0.00    +0.038 A 
ATOM     11  C   UNL     1       7.927 -17.478 -14.988  0.00  0.00    +0.047 A 
ATOM     12  C   UNL     1       7.477 -16.094 -14.979  0.00  0.00    +0.035 A 
ATOM     32  C   UNL     1       8.442 -15.071 -14.747  0.00  0.00    +0.024 A 
ATOM     33  C   UNL     1       9.830 -15.389 -14.521  0.00  0.00    +0.007 A 
ATOM     34  C   UNL     1      10.279 -16.752 -14.526  0.00  0.00    -0.029 A 
ATOM     35  C   UNL     1      11.778 -17.034 -14.272  0.00  0.00    +0.045 C 
ENDROOT
BRANCH  10   9
ATOM      4  C   UNL     1      10.433 -21.914 -12.564  0.00  0.00    +0.077 A 
ATOM      5  C   UNL     1      10.294 -21.324 -11.264  0.00  0.00    +0.048 A 
ATOM      6  C   UNL     1       9.934 -19.959 -11.206  0.00  0.00    +0.116 A 
ATOM      7  N   UNL     1       9.730 -19.247 -12.369  0.00  0.00    -0.223 NA
ATOM      8  C   UNL     1       9.874 -19.847 -13.606  0.00  0.00    +0.220 A 
ATOM      9  N   UNL     1       9.666 -19.152 -14.788  0.00  0.00    -0.283 N 
ATOM     36  H   UNL     1       9.789 -19.628 -15.681  0.00  0.00    +0.155 HD
ATOM     37  N   UNL     1      10.218 -21.149 -13.688  0.00  0.00    -0.214 NA
BRANCH   4   3
ATOM      1  C   UNL     1      12.241 -25.149 -13.816  0.00  0.00    +0.020 A 
ATOM      2  C   UNL     1      11.923 -23.752 -13.632  0.00  0.00    +0.013 A 
ATOM      3  C   UNL     1      10.805 -23.347 -12.789  0.00  0.00    +0.019 A 
ATOM     38  C   UNL     1      10.023 -24.389 -12.141  0.00  0.00    +0.120 A 
ATOM     39  N   UNL     1      10.352 -25.726 -12.338  0.00  0.00    -0.263 NA
ATOM     40  C   UNL     1      11.424 -26.128 -13.148  0.00  0.00    +0.111 A 
ENDBRANCH   4   3
ENDBRANCH  10   9
BRANCH  12  13
ATOM     13  N   UNL     1       6.106 -15.699 -15.188  0.00  0.00    -0.281 N 
ATOM     14  C   UNL     1       5.450 -15.502 -16.392  0.00  0.00    +0.248 C 
ATOM     30  O   UNL     1       6.006 -15.427 -17.477  0.00  0.00    -0.270 OA
ATOM     31  H   UNL     1       5.551 -15.547 -14.345  0.00  0.00    +0.155 HD
BRANCH  14  15
ATOM     15  C   UNL     1       3.963 -15.351 -16.388  0.00  0.00    +0.037 A 
ATOM     16  C   UNL     1       3.188 -15.427 -17.629  0.00  0.00    +0.013 A 
ATOM     17  C   UNL     1       1.757 -15.261 -17.599  0.00  0.00    +0.005 A 
ATOM     18  C   UNL     1       1.090 -15.018 -16.322  0.00  0.00    -0.033 A 
ATOM     28  C   UNL     1       1.883 -14.951 -15.105  0.00  0.00    +0.005 A 
ATOM     29  C   UNL     1       3.286 -15.113 -15.131  0.00  0.00    +0.013 A 
BRANCH  18  19
ATOM     19  C   UNL     1      -0.430 -14.807 -16.199  0.00  0.00    +0.119 C 
BRANCH  19  20
ATOM     20  N   UNL     1      -1.239 -15.952 -15.682  0.00  0.00    -0.302 NA
ATOM     21  C   UNL     1      -1.313 -15.958 -14.153  0.00  0.00    +0.066 C 
ATOM     22  C   UNL     1      -2.182 -17.149 -13.630  0.00  0.00    -0.064 C 
ATOM     23  N   UNL     1      -1.603 -18.466 -14.150  0.00  0.00    +0.379 N 
ATOM     24  C   UNL     1      -2.383 -19.590 -13.613  0.00  0.00    -0.096 C 
ATOM     25  H   UNL     1      -0.563 -18.556 -13.757  0.00  0.00    -0.082 HD
ATOM     26  C   UNL     1      -1.523 -18.466 -15.670  0.00  0.00    -0.064 C 
ATOM     27  C   UNL     1      -0.683 -17.263 -16.180  0.00  0.00    +0.066 C 
ENDBRANCH  19  20
ENDBRANCH  18  19
ENDBRANCH  14  15
ENDBRANCH  12  13
TORSDOF 6
ENDMDL
