MODEL 1
REMARK VINA RESULT:      -8.8      0.000      0.000
REMARK  Name = C:\Users\Docking\Desktop\test protocol\1iep_ligandH.pdb
REMARK  8 active torsions:
REMARK  status: ('A' for Active; 'I' for Inactive)
REMARK    1  A    between atoms: _5  and  _11
REMARK    2  A    between atoms: _19  and  _21
REMARK    3  A    between atoms: _22  and  _66
REMARK    4  A    between atoms: _27  and  _30
REMARK    5  A    between atoms: _32  and  _33
REMARK    6  A    between atoms: _38  and  _43
REMARK    7  A    between atoms: _43  and  _46
REMARK    8  A    between atoms: _53  and  _55
REMARK                            x       y       z     vdW  Elec       q    Type
REMARK                         _______ _______ _______ _____ _____    ______ ____
ROOT
ATOM     10  C   UNL     1      20.256  30.012  22.056  0.00  0.00    +0.038 A 
ATOM     11  C   UNL     1      20.680  30.016  20.703  0.00  0.00    +0.047 A 
ATOM     12  C   UNL     1      20.087  30.920  19.731  0.00  0.00    +0.035 A 
ATOM     32  C   UNL     1      19.065  31.811  20.172  0.00  0.00    +0.024 A 
ATOM     33  C   UNL     1      18.621  31.820  21.543  0.00  0.00    +0.007 A 
ATOM     34  C   UNL     1      19.201  30.928  22.507  0.00  0.00    -0.029 A 
ATOM     35  C   UNL     1      18.681  30.977  23.962  0.00  0.00    +0.045 C 
ENDROOT
BRANCH  10   9
ATOM      4  C   UNL     1      20.248  25.997  24.686  0.00  0.00    +0.077 A 
ATOM      5  C   UNL     1      18.918  25.656  24.269  0.00  0.00    +0.048 A 
ATOM      6  C   UNL     1      18.268  26.545  23.384  0.00  0.00    +0.116 A 
ATOM      7  N   UNL     1      18.910  27.685  22.953  0.00  0.00    -0.223 NA
ATOM      8  C   UNL     1      20.192  27.985  23.375  0.00  0.00    +0.220 A 
ATOM      9  N   UNL     1      20.860  29.122  22.948  0.00  0.00    -0.283 N 
ATOM     36  H   UNL     1      21.802  29.311  23.288  0.00  0.00    +0.155 HD
ATOM     37  N   UNL     1      20.834  27.153  24.221  0.00  0.00    -0.214 NA
BRANCH   4   3
ATOM      1  C   UNL     1      21.352  23.738  27.682  0.00  0.00    +0.020 A 
ATOM      2  C   UNL     1      20.518  24.540  26.817  0.00  0.00    +0.013 A 
ATOM      3  C   UNL     1      21.067  25.157  25.616  0.00  0.00    +0.019 A 
ATOM     38  C   UNL     1      22.474  24.939  25.316  0.00  0.00    +0.120 A 
ATOM     39  N   UNL     1      23.253  24.163  26.168  0.00  0.00    -0.263 NA
ATOM     40  C   UNL     1      22.736  23.566  27.328  0.00  0.00    +0.111 A 
ENDBRANCH   4   3
ENDBRANCH  10   9
BRANCH  12  13
ATOM     13  N   UNL     1      20.472  30.963  18.342  0.00  0.00    -0.281 N 
ATOM     14  C   UNL     1      21.091  31.999  17.661  0.00  0.00    +0.248 C 
ATOM     30  O   UNL     1      21.216  33.134  18.096  0.00  0.00    -0.270 OA
ATOM     31  H   UNL     1      20.262  30.129  17.794  0.00  0.00    +0.155 HD
BRANCH  14  15
ATOM     15  C   UNL     1      21.637  31.740  16.294  0.00  0.00    +0.037 A 
ATOM     16  C   UNL     1      21.021  30.753  15.404  0.00  0.00    +0.013 A 
ATOM     17  C   UNL     1      21.578  30.510  14.097  0.00  0.00    +0.005 A 
ATOM     18  C   UNL     1      22.759  31.258  13.672  0.00  0.00    -0.033 A 
ATOM     28  C   UNL     1      23.347  32.235  14.573  0.00  0.00    +0.005 A 
ATOM     29  C   UNL     1      22.804  32.475  15.855  0.00  0.00    +0.013 A 
BRANCH  18  19
ATOM     19  C   UNL     1      23.434  31.048  12.303  0.00  0.00    +0.119 C 
BRANCH  19  20
ATOM     20  N   UNL     1      23.252  32.121  11.280  0.00  0.00    -0.302 NA
ATOM     21  C   UNL     1      21.807  32.625  11.227  0.00  0.00    +0.066 C 
ATOM     22  C   UNL     1      21.639  33.763  10.168  0.00  0.00    -0.064 C 
ATOM     23  N   UNL     1      22.084  33.249   8.797  0.00  0.00    +0.379 N 
ATOM     24  C   UNL     1      21.874  34.297   7.788  0.00  0.00    -0.096 C 
ATOM     25  H   UNL     1      21.430  32.387   8.531  0.00  0.00    -0.082 HD
ATOM     26  C   UNL     1      23.519  32.743   8.842  0.00  0.00    -0.064 C 
ATOM     27  C   UNL     1      23.681  31.634   9.918  0.00  0.00    +0.066 C 
ENDBRANCH  19  20
ENDBRANCH  18  19
ENDBRANCH  14  15
ENDBRANCH  12  13
TORSDOF 6
ENDMDL
MODEL 2
REMARK VINA RESULT:      -8.5     13.483     17.649
REMARK  Name = C:\Users\Docking\Desktop\test protocol\1iep_ligandH.pdb
REMARK  8 active torsions:
REMARK  status: ('A' for Active; 'I' for Inactive)
REMARK    1  A    between atoms: _5  and  _11
REMARK    2  A    between atoms: _19  and  _21
REMARK    3  A    between atoms: _22  and  _66
REMARK    4  A    between atoms: _27  and  _30
REMARK    5  A    between atoms: _32  and  _33
REMARK    6  A    between atoms: _38  and  _43
REMARK    7  A    between atoms: _43  and  _46
REMARK    8  A    between atoms: _53  and  _55
REMARK                            x       y       z     vdW  Elec       q    Type
REMARK                         _______ _______ _______ _____ _____    ______ ____
ROOT
ATOM     10  C   UNL     1      27.709  19.914  29.348  0.00  0.00    +0.038 A 
ATOM     11  C   UNL     1      26.321  20.171  29.483  0.00  0.00    +0.047 A 
ATOM     12  C   UNL     1      25.812  21.531  29.568  0.00  0.00    +0.035 A 
ATOM     32  C   UNL     1      26.746  22.606  29.510  0.00  0.00    +0.024 A 
ATOM     33  C   UNL     1      28.160  22.363  29.374  0.00  0.00    +0.007 A 
ATOM     34  C   UNL     1      28.668  21.024  29.292  0.00  0.00    -0.029 A 
ATOM     35  C   UNL     1      30.195  20.822  29.153  0.00  0.00    +0.045 C 
ENDROOT
BRANCH  10   9
ATOM      4  C   UNL     1      29.263  15.844  31.363  0.00  0.00    +0.077 A 
ATOM      5  C   UNL     1      29.233  16.415  32.678  0.00  0.00    +0.048 A 
ATOM      6  C   UNL     1      28.820  17.761  32.793  0.00  0.00    +0.116 A 
ATOM      7  N   UNL     1      28.463  18.473  31.668  0.00  0.00    -0.223 NA
ATOM      8  C   UNL     1      28.504  17.893  30.414  0.00  0.00    +0.220 A 
ATOM      9  N   UNL     1      28.143  18.588  29.270  0.00  0.00    -0.283 N 
ATOM     36  H   UNL     1      28.194  18.127  28.362  0.00  0.00    +0.155 HD
ATOM     37  N   UNL     1      28.897  16.610  30.278  0.00  0.00    -0.214 NA
BRANCH   4   3
ATOM      1  C   UNL     1      30.383  12.122  31.803  0.00  0.00    +0.020 A 
ATOM      2  C   UNL     1      29.992  13.474  32.131  0.00  0.00    +0.013 A 
ATOM      3  C   UNL     1      29.674  14.433  31.080  0.00  0.00    +0.019 A 
ATOM     38  C   UNL     1      29.763  13.988  29.697  0.00  0.00    +0.120 A 
ATOM     39  N   UNL     1      30.144  12.681  29.412  0.00  0.00    -0.263 NA
ATOM     40  C   UNL     1      30.454  11.750  30.415  0.00  0.00    +0.111 A 
ENDBRANCH   4   3
ENDBRANCH  10   9
BRANCH  12  13
ATOM     13  N   UNL     1      24.414  21.852  29.714  0.00  0.00    -0.281 N 
ATOM     14  C   UNL     1      23.701  22.856  29.079  0.00  0.00    +0.248 C 
ATOM     30  O   UNL     1      24.207  23.770  28.446  0.00  0.00    -0.270 OA
ATOM     31  H   UNL     1      23.887  21.270  30.364  0.00  0.00    +0.155 HD
BRANCH  14  15
ATOM     15  C   UNL     1      22.209  22.851  29.173  0.00  0.00    +0.037 A 
ATOM     16  C   UNL     1      21.507  21.933  30.074  0.00  0.00    +0.013 A 
ATOM     17  C   UNL     1      20.067  21.938  30.133  0.00  0.00    +0.005 A 
ATOM     18  C   UNL     1      19.318  22.866  29.288  0.00  0.00    -0.033 A 
ATOM     28  C   UNL     1      20.040  23.770  28.408  0.00  0.00    +0.005 A 
ATOM     29  C   UNL     1      21.452  23.767  28.347  0.00  0.00    +0.013 A 
BRANCH  18  19
ATOM     19  C   UNL     1      17.780  22.925  29.271  0.00  0.00    +0.119 C 
BRANCH  19  20
ATOM     20  N   UNL     1      17.094  23.286  30.547  0.00  0.00    -0.302 NA
ATOM     21  C   UNL     1      15.576  23.389  30.376  0.00  0.00    +0.066 C 
ATOM     22  C   UNL     1      14.873  23.745  31.726  0.00  0.00    -0.064 C 
ATOM     23  N   UNL     1      15.447  25.056  32.266  0.00  0.00    +0.379 N 
ATOM     24  C   UNL     1      14.748  25.424  33.506  0.00  0.00    -0.096 C 
ATOM     25  H   UNL     1      15.240  25.851  31.512  0.00  0.00    -0.082 HD
ATOM     26  C   UNL     1      16.957  24.964  32.437  0.00  0.00    -0.064 C 
ATOM     27  C   UNL     1      17.643  24.580  31.096  0.00  0.00    +0.066 C 
ENDBRANCH  19  20
ENDBRANCH  18  19
ENDBRANCH  14  15
ENDBRANCH  12  13
TORSDOF 6
ENDMDL
MODEL 3
REMARK VINA RESULT:      -8.4      3.128     14.016
REMARK  Name = C:\Users\Docking\Desktop\test protocol\1iep_ligandH.pdb
REMARK  8 active torsions:
REMARK  status: ('A' for Active; 'I' for Inactive)
REMARK    1  A    between atoms: _5  and  _11
REMARK    2  A    between atoms: _19  and  _21
REMARK    3  A    between atoms: _22  and  _66
REMARK    4  A    between atoms: _27  and  _30
REMARK    5  A    between atoms: _32  and  _33
REMARK    6  A    between atoms: _38  and  _43
REMARK    7  A    between atoms: _43  and  _46
REMARK    8  A    between atoms: _53  and  _55
REMARK                            x       y       z     vdW  Elec       q    Type
REMARK                         _______ _______ _______ _____ _____    ______ ____
ROOT
ATOM     10  C   UNL     1      18.904  28.856  21.338  0.00  0.00    +0.038 A 
ATOM     11  C   UNL     1      19.660  28.165  22.320  0.00  0.00    +0.047 A 
ATOM     12  C   UNL     1      19.076  27.804  23.602  0.00  0.00    +0.035 A 
ATOM     32  C   UNL     1      17.718  28.158  23.850  0.00  0.00    +0.024 A 
ATOM     33  C   UNL     1      16.935  28.861  22.864  0.00  0.00    +0.007 A 
ATOM     34  C   UNL     1      17.507  29.223  21.598  0.00  0.00    -0.029 A 
ATOM     35  C   UNL     1      16.623  29.981  20.581  0.00  0.00    +0.045 C 
ENDROOT
BRANCH  10   9
ATOM      4  C   UNL     1      20.790  32.016  18.257  0.00  0.00    +0.077 A 
ATOM      5  C   UNL     1      20.509  33.122  19.127  0.00  0.00    +0.048 A 
ATOM      6  C   UNL     1      19.872  32.835  20.355  0.00  0.00    +0.116 A 
ATOM      7  N   UNL     1      19.545  31.536  20.679  0.00  0.00    -0.223 NA
ATOM      8  C   UNL     1      19.828  30.493  19.816  0.00  0.00    +0.220 A 
ATOM      9  N   UNL     1      19.516  29.178  20.125  0.00  0.00    -0.283 N 
ATOM     36  H   UNL     1      19.734  28.438  19.458  0.00  0.00    +0.155 HD
ATOM     37  N   UNL     1      20.435  30.741  18.637  0.00  0.00    -0.214 NA
BRANCH   4   3
ATOM      1  C   UNL     1      23.384  32.869  15.457  0.00  0.00    +0.020 A 
ATOM      2  C   UNL     1      22.780  32.757  16.764  0.00  0.00    +0.013 A 
ATOM      3  C   UNL     1      21.461  32.158  16.926  0.00  0.00    +0.019 A 
ATOM     38  C   UNL     1      20.776  31.677  15.736  0.00  0.00    +0.120 A 
ATOM     39  N   UNL     1      21.382  31.799  14.490  0.00  0.00    -0.263 NA
ATOM     40  C   UNL     1      22.650  32.376  14.321  0.00  0.00    +0.111 A 
ENDBRANCH   4   3
ENDBRANCH  10   9
BRANCH  12  13
ATOM     13  N   UNL     1      19.796  27.110  24.641  0.00  0.00    -0.281 N 
ATOM     14  C   UNL     1      19.912  25.742  24.829  0.00  0.00    +0.248 C 
ATOM     30  O   UNL     1      19.233  24.905  24.253  0.00  0.00    -0.270 OA
ATOM     31  H   UNL     1      20.280  27.698  25.319  0.00  0.00    +0.155 HD
BRANCH  14  15
ATOM     15  C   UNL     1      20.918  25.231  25.810  0.00  0.00    +0.037 A 
ATOM     16  C   UNL     1      20.502  24.577  27.053  0.00  0.00    +0.013 A 
ATOM     17  C   UNL     1      21.492  24.108  27.990  0.00  0.00    +0.005 A 
ATOM     18  C   UNL     1      22.909  24.291  27.685  0.00  0.00    -0.033 A 
ATOM     28  C   UNL     1      23.294  24.939  26.442  0.00  0.00    +0.005 A 
ATOM     29  C   UNL     1      22.326  25.400  25.522  0.00  0.00    +0.013 A 
BRANCH  18  19
ATOM     19  C   UNL     1      24.034  23.841  28.636  0.00  0.00    +0.119 C 
BRANCH  19  20
ATOM     20  N   UNL     1      24.018  22.419  29.090  0.00  0.00    -0.302 NA
ATOM     21  C   UNL     1      22.989  22.182  30.199  0.00  0.00    +0.066 C 
ATOM     22  C   UNL     1      22.969  20.684  30.647  0.00  0.00    -0.064 C 
ATOM     23  N   UNL     1      24.368  20.274  31.110  0.00  0.00    +0.379 N 
ATOM     24  C   UNL     1      24.340  18.883  31.585  0.00  0.00    -0.096 C 
ATOM     25  H   UNL     1      24.641  20.922  31.975  0.00  0.00    -0.082 HD
ATOM     26  C   UNL     1      25.398  20.509  30.014  0.00  0.00    -0.064 C 
ATOM     27  C   UNL     1      25.389  21.994  29.556  0.00  0.00    +0.066 C 
ENDBRANCH  19  20
ENDBRANCH  18  19
ENDBRANCH  14  15
ENDBRANCH  12  13
TORSDOF 6
ENDMDL
MODEL 4
REMARK VINA RESULT:      -8.2      2.160      2.979
REMARK  Name = C:\Users\Docking\Desktop\test protocol\1iep_ligandH.pdb
REMARK  8 active torsions:
REMARK  status: ('A' for Active; 'I' for Inactive)
REMARK    1  A    between atoms: _5  and  _11
REMARK    2  A    between atoms: _19  and  _21
REMARK    3  A    between atoms: _22  and  _66
REMARK    4  A    between atoms: _27  and  _30
REMARK    5  A    between atoms: _32  and  _33
REMARK    6  A    between atoms: _38  and  _43
REMARK    7  A    between atoms: _43  and  _46
REMARK    8  A    between atoms: _53  and  _55
REMARK                            x       y       z     vdW  Elec       q    Type
REMARK                         _______ _______ _______ _____ _____    ______ ____
ROOT
ATOM     10  C   UNL     1      19.548  29.834  22.549  0.00  0.00    +0.038 A 
ATOM     11  C   UNL     1      19.819  29.773  21.158  0.00  0.00    +0.047 A 
ATOM     12  C   UNL     1      19.081  30.595  20.211  0.00  0.00    +0.035 A 
ATOM     32  C   UNL     1      18.076  31.471  20.716  0.00  0.00    +0.024 A 
ATOM     33  C   UNL     1      17.788  31.544  22.127  0.00  0.00    +0.007 A 
ATOM     34  C   UNL     1      18.510  30.734  23.065  0.00  0.00    -0.029 A 
ATOM     35  C   UNL     1      18.154  30.850  24.566  0.00  0.00    +0.045 C 
ENDROOT
BRANCH  10   9
ATOM      4  C   UNL     1      20.202  25.765  25.009  0.00  0.00    +0.077 A 
ATOM      5  C   UNL     1      18.955  25.221  24.556  0.00  0.00    +0.048 A 
ATOM      6  C   UNL     1      18.171  26.023  23.697  0.00  0.00    +0.116 A 
ATOM      7  N   UNL     1      18.612  27.274  23.324  0.00  0.00    -0.223 NA
ATOM      8  C   UNL     1      19.820  27.770  23.781  0.00  0.00    +0.220 A 
ATOM      9  N   UNL     1      20.287  29.022  23.413  0.00  0.00    -0.283 N 
ATOM     36  H   UNL     1      21.179  29.354  23.777  0.00  0.00    +0.155 HD
ATOM     37  N   UNL     1      20.586  27.024  24.604  0.00  0.00    -0.214 NA
BRANCH   4   3
ATOM      1  C   UNL     1      21.667  23.726  28.009  0.00  0.00    +0.020 A 
ATOM      2  C   UNL     1      20.718  24.417  27.167  0.00  0.00    +0.013 A 
ATOM      3  C   UNL     1      21.144  25.037  25.918  0.00  0.00    +0.019 A 
ATOM     38  C   UNL     1      22.547  24.938  25.547  0.00  0.00    +0.120 A 
ATOM     39  N   UNL     1      23.439  24.267  26.379  0.00  0.00    -0.263 NA
ATOM     40  C   UNL     1      23.041  23.668  27.583  0.00  0.00    +0.111 A 
ENDBRANCH   4   3
ENDBRANCH  10   9
BRANCH  12  13
ATOM     13  N   UNL     1      19.306  30.570  18.787  0.00  0.00    -0.281 N 
ATOM     14  C   UNL     1      20.229  31.301  18.058  0.00  0.00    +0.248 C 
ATOM     30  O   UNL     1      20.861  32.251  18.497  0.00  0.00    -0.270 OA
ATOM     31  H   UNL     1      18.713  29.936  18.252  0.00  0.00    +0.155 HD
BRANCH  14  15
ATOM     15  C   UNL     1      20.477  30.933  16.630  0.00  0.00    +0.037 A 
ATOM     16  C   UNL     1      19.705  29.875  15.974  0.00  0.00    +0.013 A 
ATOM     17  C   UNL     1      19.975  29.529  14.601  0.00  0.00    +0.005 A 
ATOM     18  C   UNL     1      21.022  30.243  13.875  0.00  0.00    -0.033 A 
ATOM     28  C   UNL     1      21.769  31.292  14.549  0.00  0.00    +0.005 A 
ATOM     29  C   UNL     1      21.508  31.634  15.895  0.00  0.00    +0.013 A 
BRANCH  18  19
ATOM     19  C   UNL     1      21.393  29.925  12.414  0.00  0.00    +0.119 C 
BRANCH  19  20
ATOM     20  N   UNL     1      22.218  28.705  12.168  0.00  0.00    -0.302 NA
ATOM     21  C   UNL     1      23.322  28.956  11.138  0.00  0.00    +0.066 C 
ATOM     22  C   UNL     1      24.189  27.676  10.909  0.00  0.00    -0.064 C 
ATOM     23  N   UNL     1      23.286  26.524  10.464  0.00  0.00    +0.379 N 
ATOM     24  C   UNL     1      24.106  25.334  10.192  0.00  0.00    -0.096 C 
ATOM     25  H   UNL     1      22.800  26.826   9.507  0.00  0.00    -0.082 HD
ATOM     26  C   UNL     1      22.183  26.269  11.482  0.00  0.00    -0.064 C 
ATOM     27  C   UNL     1      21.346  27.556  11.724  0.00  0.00    +0.066 C 
ENDBRANCH  19  20
ENDBRANCH  18  19
ENDBRANCH  14  15
ENDBRANCH  12  13
TORSDOF 6
ENDMDL
MODEL 5
REMARK VINA RESULT:      -7.9      4.136     12.579
REMARK  Name = C:\Users\Docking\Desktop\test protocol\1iep_ligandH.pdb
REMARK  8 active torsions:
REMARK  status: ('A' for Active; 'I' for Inactive)
REMARK    1  A    between atoms: _5  and  _11
REMARK    2  A    between atoms: _19  and  _21
REMARK    3  A    between atoms: _22  and  _66
REMARK    4  A    between atoms: _27  and  _30
REMARK    5  A    between atoms: _32  and  _33
REMARK    6  A    between atoms: _38  and  _43
REMARK    7  A    between atoms: _43  and  _46
REMARK    8  A    between atoms: _53  and  _55
REMARK                            x       y       z     vdW  Elec       q    Type
REMARK                         _______ _______ _______ _____ _____    ______ ____
ROOT
ATOM     10  C   UNL     1      22.727  30.014  12.268  0.00  0.00    +0.038 A 
ATOM     11  C   UNL     1      22.077  30.014  13.528  0.00  0.00    +0.047 A 
ATOM     12  C   UNL     1      22.371  31.030  14.527  0.00  0.00    +0.035 A 
ATOM     32  C   UNL     1      23.331  32.033  14.206  0.00  0.00    +0.024 A 
ATOM     33  C   UNL     1      24.002  32.048  12.930  0.00  0.00    +0.007 A 
ATOM     34  C   UNL     1      23.718  31.047  11.943  0.00  0.00    -0.029 A 
ATOM     35  C   UNL     1      24.473  31.107  10.594  0.00  0.00    +0.045 C 
ENDROOT
BRANCH  10   9
ATOM      4  C   UNL     1      23.497  25.743  10.216  0.00  0.00    +0.077 A 
ATOM      5  C   UNL     1      24.652  25.494  11.030  0.00  0.00    +0.048 A 
ATOM      6  C   UNL     1      25.018  26.494  11.959  0.00  0.00    +0.116 A 
ATOM      7  N   UNL     1      24.278  27.651  12.059  0.00  0.00    -0.223 NA
ATOM      8  C   UNL     1      23.170  27.861  11.258  0.00  0.00    +0.220 A 
ATOM      9  N   UNL     1      22.406  29.014  11.346  0.00  0.00    -0.283 N 
ATOM     36  H   UNL     1      21.601  29.134  10.732  0.00  0.00    +0.155 HD
ATOM     37  N   UNL     1      22.801  26.923  10.361  0.00  0.00    -0.214 NA
BRANCH   4   3
ATOM      1  C   UNL     1      23.309  23.089   7.349  0.00  0.00    +0.020 A 
ATOM      2  C   UNL     1      23.858  24.004   8.323  0.00  0.00    +0.013 A 
ATOM      3  C   UNL     1      22.982  24.782   9.190  0.00  0.00    +0.019 A 
ATOM     38  C   UNL     1      21.544  24.608   9.046  0.00  0.00    +0.120 A 
ATOM     39  N   UNL     1      21.045  23.721   8.098  0.00  0.00    -0.263 NA
ATOM     40  C   UNL     1      21.878  22.968   7.257  0.00  0.00    +0.111 A 
ENDBRANCH   4   3
ENDBRANCH  10   9
BRANCH  12  13
ATOM     13  N   UNL     1      21.749  31.076  15.826  0.00  0.00    -0.281 N 
ATOM     14  C   UNL     1      20.421  31.333  16.126  0.00  0.00    +0.248 C 
ATOM     30  O   UNL     1      19.606  31.776  15.330  0.00  0.00    -0.270 OA
ATOM     31  H   UNL     1      22.361  30.897  16.622  0.00  0.00    +0.155 HD
BRANCH  14  15
ATOM     15  C   UNL     1      19.931  31.075  17.514  0.00  0.00    +0.037 A 
ATOM     16  C   UNL     1      18.826  30.147  17.770  0.00  0.00    +0.013 A 
ATOM     17  C   UNL     1      18.362  29.929  19.117  0.00  0.00    +0.005 A 
ATOM     18  C   UNL     1      19.004  30.640  20.220  0.00  0.00    -0.033 A 
ATOM     28  C   UNL     1      20.101  31.552  19.938  0.00  0.00    +0.005 A 
ATOM     29  C   UNL     1      20.558  31.768  18.619  0.00  0.00    +0.013 A 
BRANCH  18  19
ATOM     19  C   UNL     1      18.560  30.485  21.686  0.00  0.00    +0.119 C 
BRANCH  19  20
ATOM     20  N   UNL     1      18.803  29.164  22.338  0.00  0.00    -0.302 NA
ATOM     21  C   UNL     1      18.998  29.297  23.851  0.00  0.00    +0.066 C 
ATOM     22  C   UNL     1      19.229  27.902  24.520  0.00  0.00    -0.064 C 
ATOM     23  N   UNL     1      20.439  27.225  23.875  0.00  0.00    +0.379 N 
ATOM     24  C   UNL     1      20.694  25.939  24.541  0.00  0.00    -0.096 C 
ATOM     25  H   UNL     1      21.325  27.878  24.051  0.00  0.00    -0.082 HD
ATOM     26  C   UNL     1      20.255  27.091  22.370  0.00  0.00    -0.064 C 
ATOM     27  C   UNL     1      19.997  28.479  21.720  0.00  0.00    +0.066 C 
ENDBRANCH  19  20
ENDBRANCH  18  19
ENDBRANCH  14  15
ENDBRANCH  12  13
TORSDOF 6
ENDMDL
