MODEL 1
REMARK VINA RESULT:      -8.5      0.000      0.000
REMARK  Name = C:\Users\Docking\Desktop\test protocol\1iep_ligandH.pdb
REMARK  8 active torsions:
REMARK  status: ('A' for Active; 'I' for Inactive)
REMARK    1  A    between atoms: _5  and  _11
REMARK    2  A    between atoms: _19  and  _21
REMARK    3  A    between atoms: _22  and  _66
REMARK    4  A    between atoms: _27  and  _30
REMARK    5  A    between atoms: _32  and  _33
REMARK    6  A    between atoms: _38  and  _43
REMARK    7  A    between atoms: _43  and  _46
REMARK    8  A    between atoms: _53  and  _55
REMARK                            x       y       z     vdW  Elec       q    Type
REMARK                         _______ _______ _______ _____ _____    ______ ____
ROOT
ATOM     10  C   UNL     1      12.529 -19.579 -14.021  0.00  0.00    +0.038 A 
ATOM     11  C   UNL     1      13.707 -19.366 -14.781  0.00  0.00    +0.047 A 
ATOM     12  C   UNL     1      14.689 -20.425 -14.959  0.00  0.00    +0.035 A 
ATOM     32  C   UNL     1      14.437 -21.689 -14.351  0.00  0.00    +0.024 A 
ATOM     33  C   UNL     1      13.245 -21.922 -13.574  0.00  0.00    +0.007 A 
ATOM     34  C   UNL     1      12.274 -20.881 -13.393  0.00  0.00    -0.029 A 
ATOM     35  C   UNL     1      11.018 -21.185 -12.545  0.00  0.00    +0.045 C 
ENDROOT
BRANCH  10   9
ATOM      4  C   UNL     1       8.879 -16.901 -15.617  0.00  0.00    +0.077 A 
ATOM      5  C   UNL     1       8.793 -17.643 -16.842  0.00  0.00    +0.048 A 
ATOM      6  C   UNL     1       9.711 -18.701 -17.025  0.00  0.00    +0.116 A 
ATOM      7  N   UNL     1      10.641 -18.988 -16.050  0.00  0.00    -0.223 NA
ATOM      8  C   UNL     1      10.698 -18.252 -14.881  0.00  0.00    +0.220 A 
ATOM      9  N   UNL     1      11.620 -18.527 -13.883  0.00  0.00    -0.283 N 
ATOM     36  H   UNL     1      11.635 -17.956 -13.038  0.00  0.00    +0.155 HD
ATOM     37  N   UNL     1       9.834 -17.235 -14.682  0.00  0.00    -0.214 NA
BRANCH   4   3
ATOM      1  C   UNL     1       7.196 -13.902 -13.753  0.00  0.00    +0.020 A 
ATOM      2  C   UNL     1       8.092 -15.000 -14.035  0.00  0.00    +0.013 A 
ATOM      3  C   UNL     1       7.977 -15.756 -15.275  0.00  0.00    +0.019 A 
ATOM     38  C   UNL     1       6.936 -15.374 -16.217  0.00  0.00    +0.120 A 
ATOM     39  N   UNL     1       6.086 -14.314 -15.918  0.00  0.00    -0.263 NA
ATOM     40  C   UNL     1       6.186 -13.579 -14.727  0.00  0.00    +0.111 A 
ENDBRANCH   4   3
ENDBRANCH  10   9
BRANCH  12  13
ATOM     13  N   UNL     1      15.908 -20.265 -15.713  0.00  0.00    -0.281 N 
ATOM     14  C   UNL     1      16.044 -20.019 -17.069  0.00  0.00    +0.248 C 
ATOM     30  O   UNL     1      15.137 -20.112 -17.883  0.00  0.00    -0.270 OA
ATOM     31  H   UNL     1      16.776 -20.343 -15.182  0.00  0.00    +0.155 HD
BRANCH  14  15
ATOM     15  C   UNL     1      17.385 -19.628 -17.601  0.00  0.00    +0.037 A 
ATOM     16  C   UNL     1      17.594 -18.335 -18.258  0.00  0.00    +0.013 A 
ATOM     17  C   UNL     1      18.894 -17.989 -18.778  0.00  0.00    +0.005 A 
ATOM     18  C   UNL     1      19.995 -18.939 -18.640  0.00  0.00    -0.033 A 
ATOM     28  C   UNL     1      19.761 -20.212 -17.979  0.00  0.00    +0.005 A 
ATOM     29  C   UNL     1      18.489 -20.555 -17.470  0.00  0.00    +0.013 A 
BRANCH  18  19
ATOM     19  C   UNL     1      21.410 -18.663 -19.183  0.00  0.00    +0.119 C 
BRANCH  19  20
ATOM     20  N   UNL     1      21.649 -18.924 -20.634  0.00  0.00    -0.302 NA
ATOM     21  C   UNL     1      22.784 -19.926 -20.858  0.00  0.00    +0.066 C 
ATOM     22  C   UNL     1      23.005 -20.204 -22.381  0.00  0.00    -0.064 C 
ATOM     23  N   UNL     1      23.296 -18.886 -23.100  0.00  0.00    +0.379 N 
ATOM     24  C   UNL     1      23.562 -19.151 -24.522  0.00  0.00    -0.096 C 
ATOM     25  H   UNL     1      24.225 -18.457 -22.657  0.00  0.00    -0.082 HD
ATOM     26  C   UNL     1      22.173 -17.883 -22.880  0.00  0.00    -0.064 C 
ATOM     27  C   UNL     1      21.942 -17.636 -21.363  0.00  0.00    +0.066 C 
ENDBRANCH  19  20
ENDBRANCH  18  19
ENDBRANCH  14  15
ENDBRANCH  12  13
TORSDOF 6
ENDMDL
MODEL 2
REMARK VINA RESULT:      -8.4      2.474      3.568
REMARK  Name = C:\Users\Docking\Desktop\test protocol\1iep_ligandH.pdb
REMARK  8 active torsions:
REMARK  status: ('A' for Active; 'I' for Inactive)
REMARK    1  A    between atoms: _5  and  _11
REMARK    2  A    between atoms: _19  and  _21
REMARK    3  A    between atoms: _22  and  _66
REMARK    4  A    between atoms: _27  and  _30
REMARK    5  A    between atoms: _32  and  _33
REMARK    6  A    between atoms: _38  and  _43
REMARK    7  A    between atoms: _43  and  _46
REMARK    8  A    between atoms: _53  and  _55
REMARK                            x       y       z     vdW  Elec       q    Type
REMARK                         _______ _______ _______ _____ _____    ______ ____
ROOT
ATOM     10  C   UNL     1       9.209 -19.915 -14.161  0.00  0.00    +0.038 A 
ATOM     11  C   UNL     1      10.417 -19.791 -14.893  0.00  0.00    +0.047 A 
ATOM     12  C   UNL     1      11.570 -20.624 -14.589  0.00  0.00    +0.035 A 
ATOM     32  C   UNL     1      11.457 -21.574 -13.533  0.00  0.00    +0.024 A 
ATOM     33  C   UNL     1      10.237 -21.713 -12.777  0.00  0.00    +0.007 A 
ATOM     34  C   UNL     1       9.097 -20.893 -13.071  0.00  0.00    -0.029 A 
ATOM     35  C   UNL     1       7.817 -21.080 -12.224  0.00  0.00    +0.045 C 
ENDROOT
BRANCH  10   9
ATOM      4  C   UNL     1       7.238 -15.590 -14.829  0.00  0.00    +0.077 A 
ATOM      5  C   UNL     1       8.448 -14.916 -14.454  0.00  0.00    +0.048 A 
ATOM      6  C   UNL     1       9.552 -15.718 -14.089  0.00  0.00    +0.116 A 
ATOM      7  N   UNL     1       9.443 -17.092 -14.102  0.00  0.00    -0.223 NA
ATOM      8  C   UNL     1       8.261 -17.710 -14.467  0.00  0.00    +0.220 A 
ATOM      9  N   UNL     1       8.132 -19.090 -14.495  0.00  0.00    -0.283 N 
ATOM     36  H   UNL     1       7.241 -19.508 -14.764  0.00  0.00    +0.155 HD
ATOM     37  N   UNL     1       7.192 -16.966 -14.819  0.00  0.00    -0.214 NA
BRANCH   4   3
ATOM      1  C   UNL     1       4.424 -12.900 -15.210  0.00  0.00    +0.020 A 
ATOM      2  C   UNL     1       5.645 -13.541 -14.780  0.00  0.00    +0.013 A 
ATOM      3  C   UNL     1       5.987 -14.880 -15.243  0.00  0.00    +0.019 A 
ATOM     38  C   UNL     1       5.065 -15.547 -16.150  0.00  0.00    +0.120 A 
ATOM     39  N   UNL     1       3.896 -14.906 -16.546  0.00  0.00    -0.263 NA
ATOM     40  C   UNL     1       3.555 -13.618 -16.105  0.00  0.00    +0.111 A 
ENDBRANCH   4   3
ENDBRANCH  10   9
BRANCH  12  13
ATOM     13  N   UNL     1      12.825 -20.537 -15.294  0.00  0.00    -0.281 N 
ATOM     14  C   UNL     1      13.036 -20.545 -16.663  0.00  0.00    +0.248 C 
ATOM     30  O   UNL     1      12.188 -20.845 -17.490  0.00  0.00    -0.270 OA
ATOM     31  H   UNL     1      13.660 -20.460 -14.712  0.00  0.00    +0.155 HD
BRANCH  14  15
ATOM     15  C   UNL     1      14.387 -20.182 -17.188  0.00  0.00    +0.037 A 
ATOM     16  C   UNL     1      14.588 -19.839 -18.598  0.00  0.00    +0.013 A 
ATOM     17  C   UNL     1      15.905 -19.510 -19.082  0.00  0.00    +0.005 A 
ATOM     18  C   UNL     1      17.032 -19.520 -18.153  0.00  0.00    -0.033 A 
ATOM     28  C   UNL     1      16.804 -19.858 -16.758  0.00  0.00    +0.005 A 
ATOM     29  C   UNL     1      15.515 -20.183 -16.280  0.00  0.00    +0.013 A 
BRANCH  18  19
ATOM     19  C   UNL     1      18.476 -19.202 -18.586  0.00  0.00    +0.119 C 
BRANCH  19  20
ATOM     20  N   UNL     1      18.681 -18.002 -19.452  0.00  0.00    -0.302 NA
ATOM     21  C   UNL     1      20.159 -17.783 -19.788  0.00  0.00    +0.066 C 
ATOM     22  C   UNL     1      20.353 -16.538 -20.714  0.00  0.00    -0.064 C 
ATOM     23  N   UNL     1      19.764 -15.302 -20.031  0.00  0.00    +0.379 N 
ATOM     24  C   UNL     1      19.997 -14.119 -20.872  0.00  0.00    -0.096 C 
ATOM     25  H   UNL     1      20.314 -15.150 -19.074  0.00  0.00    -0.082 HD
ATOM     26  C   UNL     1      18.295 -15.513 -19.691  0.00  0.00    -0.064 C 
ATOM     27  C   UNL     1      18.110 -16.770 -18.795  0.00  0.00    +0.066 C 
ENDBRANCH  19  20
ENDBRANCH  18  19
ENDBRANCH  14  15
ENDBRANCH  12  13
TORSDOF 6
ENDMDL
MODEL 3
REMARK VINA RESULT:      -8.3      2.217      2.979
REMARK  Name = C:\Users\Docking\Desktop\test protocol\1iep_ligandH.pdb
REMARK  8 active torsions:
REMARK  status: ('A' for Active; 'I' for Inactive)
REMARK    1  A    between atoms: _5  and  _11
REMARK    2  A    between atoms: _19  and  _21
REMARK    3  A    between atoms: _22  and  _66
REMARK    4  A    between atoms: _27  and  _30
REMARK    5  A    between atoms: _32  and  _33
REMARK    6  A    between atoms: _38  and  _43
REMARK    7  A    between atoms: _43  and  _46
REMARK    8  A    between atoms: _53  and  _55
REMARK                            x       y       z     vdW  Elec       q    Type
REMARK                         _______ _______ _______ _____ _____    ______ ____
ROOT
ATOM     10  C   UNL     1      11.279 -18.416 -13.489  0.00  0.00    +0.038 A 
ATOM     11  C   UNL     1      12.297 -18.385 -14.475  0.00  0.00    +0.047 A 
ATOM     12  C   UNL     1      13.331 -19.408 -14.522  0.00  0.00    +0.035 A 
ATOM     32  C   UNL     1      13.295 -20.449 -13.550  0.00  0.00    +0.024 A 
ATOM     33  C   UNL     1      12.267 -20.496 -12.540  0.00  0.00    +0.007 A 
ATOM     34  C   UNL     1      11.247 -19.488 -12.487  0.00  0.00    -0.029 A 
ATOM     35  C   UNL     1      10.174 -19.584 -11.378  0.00  0.00    +0.045 C 
ENDROOT
BRANCH  10   9
ATOM      4  C   UNL     1       7.551 -16.132 -15.469  0.00  0.00    +0.077 A 
ATOM      5  C   UNL     1       7.547 -17.002 -16.609  0.00  0.00    +0.048 A 
ATOM      6  C   UNL     1       8.525 -18.020 -16.651  0.00  0.00    +0.116 A 
ATOM      7  N   UNL     1       9.435 -18.150 -15.624  0.00  0.00    -0.223 NA
ATOM      8  C   UNL     1       9.411 -17.292 -14.539  0.00  0.00    +0.220 A 
ATOM      9  N   UNL     1      10.311 -17.409 -13.491  0.00  0.00    -0.283 N 
ATOM     36  H   UNL     1      10.266 -16.752 -12.712  0.00  0.00    +0.155 HD
ATOM     37  N   UNL     1       8.488 -16.311 -14.476  0.00  0.00    -0.214 NA
BRANCH   4   3
ATOM      1  C   UNL     1       5.792 -12.901 -14.138  0.00  0.00    +0.020 A 
ATOM      2  C   UNL     1       6.761 -13.962 -14.282  0.00  0.00    +0.013 A 
ATOM      3  C   UNL     1       6.577 -15.010 -15.278  0.00  0.00    +0.019 A 
ATOM     38  C   UNL     1       5.392 -14.954 -16.120  0.00  0.00    +0.120 A 
ATOM     39  N   UNL     1       4.475 -13.921 -15.959  0.00  0.00    -0.263 NA
ATOM     40  C   UNL     1       4.640 -12.908 -15.002  0.00  0.00    +0.111 A 
ENDBRANCH   4   3
ENDBRANCH  10   9
BRANCH  12  13
ATOM     13  N   UNL     1      14.395 -19.424 -15.495  0.00  0.00    -0.281 N 
ATOM     14  C   UNL     1      14.477 -20.178 -16.654  0.00  0.00    +0.248 C 
ATOM     30  O   UNL     1      13.742 -21.116 -16.922  0.00  0.00    -0.270 OA
ATOM     31  H   UNL     1      15.183 -18.804 -15.307  0.00  0.00    +0.155 HD
BRANCH  14  15
ATOM     15  C   UNL     1      15.540 -19.851 -17.654  0.00  0.00    +0.037 A 
ATOM     16  C   UNL     1      16.958 -19.872 -17.289  0.00  0.00    +0.013 A 
ATOM     17  C   UNL     1      17.962 -19.537 -18.268  0.00  0.00    +0.005 A 
ATOM     18  C   UNL     1      17.549 -19.178 -19.623  0.00  0.00    -0.033 A 
ATOM     28  C   UNL     1      16.135 -19.171 -19.959  0.00  0.00    +0.005 A 
ATOM     29  C   UNL     1      15.149 -19.498 -19.002  0.00  0.00    +0.013 A 
BRANCH  18  19
ATOM     19  C   UNL     1      18.550 -18.786 -20.726  0.00  0.00    +0.119 C 
BRANCH  19  20
ATOM     20  N   UNL     1      18.640 -17.339 -21.084  0.00  0.00    -0.302 NA
ATOM     21  C   UNL     1      19.960 -17.001 -21.782  0.00  0.00    +0.066 C 
ATOM     22  C   UNL     1      20.028 -15.488 -22.170  0.00  0.00    -0.064 C 
ATOM     23  N   UNL     1      19.844 -14.633 -20.914  0.00  0.00    +0.379 N 
ATOM     24  C   UNL     1      19.965 -13.211 -21.266  0.00  0.00    -0.096 C 
ATOM     25  H   UNL     1      20.675 -14.880 -20.213  0.00  0.00    -0.082 HD
ATOM     26  C   UNL     1      18.534 -14.965 -20.213  0.00  0.00    -0.064 C 
ATOM     27  C   UNL     1      18.465 -16.477 -19.858  0.00  0.00    +0.066 C 
ENDBRANCH  19  20
ENDBRANCH  18  19
ENDBRANCH  14  15
ENDBRANCH  12  13
TORSDOF 6
ENDMDL
MODEL 4
REMARK VINA RESULT:      -8.3      2.665     12.801
REMARK  Name = C:\Users\Docking\Desktop\test protocol\1iep_ligandH.pdb
REMARK  8 active torsions:
REMARK  status: ('A' for Active; 'I' for Inactive)
REMARK    1  A    between atoms: _5  and  _11
REMARK    2  A    between atoms: _19  and  _21
REMARK    3  A    between atoms: _22  and  _66
REMARK    4  A    between atoms: _27  and  _30
REMARK    5  A    between atoms: _32  and  _33
REMARK    6  A    between atoms: _38  and  _43
REMARK    7  A    between atoms: _43  and  _46
REMARK    8  A    between atoms: _53  and  _55
REMARK                            x       y       z     vdW  Elec       q    Type
REMARK                         _______ _______ _______ _____ _____    ______ ____
ROOT
ATOM     10  C   UNL     1      13.470 -20.279 -14.360  0.00  0.00    +0.038 A 
ATOM     11  C   UNL     1      12.421 -19.330 -14.464  0.00  0.00    +0.047 A 
ATOM     12  C   UNL     1      11.074 -19.646 -14.015  0.00  0.00    +0.035 A 
ATOM     32  C   UNL     1      10.832 -20.937 -13.461  0.00  0.00    +0.024 A 
ATOM     33  C   UNL     1      11.887 -21.913 -13.349  0.00  0.00    +0.007 A 
ATOM     34  C   UNL     1      13.217 -21.609 -13.793  0.00  0.00    -0.029 A 
ATOM     35  C   UNL     1      14.307 -22.697 -13.655  0.00  0.00    +0.045 C 
ENDROOT
BRANCH  10   9
ATOM      4  C   UNL     1      16.759 -19.794 -17.823  0.00  0.00    +0.077 A 
ATOM      5  C   UNL     1      15.872 -20.320 -18.820  0.00  0.00    +0.048 A 
ATOM      6  C   UNL     1      14.581 -20.711 -18.400  0.00  0.00    +0.116 A 
ATOM      7  N   UNL     1      14.215 -20.580 -17.078  0.00  0.00    -0.223 NA
ATOM      8  C   UNL     1      15.095 -20.070 -16.141  0.00  0.00    +0.220 A 
ATOM      9  N   UNL     1      14.745 -19.922 -14.807  0.00  0.00    -0.283 N 
ATOM     36  H   UNL     1      15.425 -19.549 -14.146  0.00  0.00    +0.155 HD
ATOM     37  N   UNL     1      16.334 -19.691 -16.517  0.00  0.00    -0.214 NA
BRANCH   4   3
ATOM      1  C   UNL     1      19.834 -17.587 -18.811  0.00  0.00    +0.020 A 
ATOM      2  C   UNL     1      18.469 -17.979 -18.545  0.00  0.00    +0.013 A 
ATOM      3  C   UNL     1      18.154 -19.335 -18.112  0.00  0.00    +0.019 A 
ATOM     38  C   UNL     1      19.253 -20.277 -17.955  0.00  0.00    +0.120 A 
ATOM     39  N   UNL     1      20.557 -19.871 -18.220  0.00  0.00    -0.263 NA
ATOM     40  C   UNL     1      20.872 -18.569 -18.639  0.00  0.00    +0.111 A 
ENDBRANCH   4   3
ENDBRANCH  10   9
BRANCH  12  13
ATOM     13  N   UNL     1       9.967 -18.726 -14.102  0.00  0.00    -0.281 N 
ATOM     14  C   UNL     1      10.002 -17.343 -14.042  0.00  0.00    +0.248 C 
ATOM     30  O   UNL     1      10.973 -16.691 -13.687  0.00  0.00    -0.270 OA
ATOM     31  H   UNL     1       9.045 -19.146 -14.224  0.00  0.00    +0.155 HD
BRANCH  14  15
ATOM     15  C   UNL     1       8.777 -16.572 -14.416  0.00  0.00    +0.037 A 
ATOM     16  C   UNL     1       8.722 -15.115 -14.269  0.00  0.00    +0.013 A 
ATOM     17  C   UNL     1       7.522 -14.398 -14.621  0.00  0.00    +0.005 A 
ATOM     18  C   UNL     1       6.367 -15.138 -15.125  0.00  0.00    -0.033 A 
ATOM     28  C   UNL     1       6.452 -16.582 -15.265  0.00  0.00    +0.005 A 
ATOM     29  C   UNL     1       7.626 -17.289 -14.920  0.00  0.00    +0.013 A 
BRANCH  18  19
ATOM     19  C   UNL     1       5.039 -14.458 -15.505  0.00  0.00    +0.119 C 
BRANCH  19  20
ATOM     20  N   UNL     1       3.917 -15.342 -15.940  0.00  0.00    -0.302 NA
ATOM     21  C   UNL     1       3.566 -15.140 -17.417  0.00  0.00    +0.066 C 
ATOM     22  C   UNL     1       2.407 -16.090 -17.862  0.00  0.00    -0.064 C 
ATOM     23  N   UNL     1       1.184 -15.846 -16.976  0.00  0.00    +0.379 N 
ATOM     24  C   UNL     1       0.073 -16.696 -17.429  0.00  0.00    -0.096 C 
ATOM     25  H   UNL     1       0.874 -14.783 -17.112  0.00  0.00    -0.082 HD
ATOM     26  C   UNL     1       1.525 -16.042 -15.506  0.00  0.00    -0.064 C 
ATOM     27  C   UNL     1       2.698 -15.115 -15.082  0.00  0.00    +0.066 C 
ENDBRANCH  19  20
ENDBRANCH  18  19
ENDBRANCH  14  15
ENDBRANCH  12  13
TORSDOF 6
ENDMDL
MODEL 5
REMARK VINA RESULT:      -8.2      7.151     13.239
REMARK  Name = C:\Users\Docking\Desktop\test protocol\1iep_ligandH.pdb
REMARK  8 active torsions:
REMARK  status: ('A' for Active; 'I' for Inactive)
REMARK    1  A    between atoms: _5  and  _11
REMARK    2  A    between atoms: _19  and  _21
REMARK    3  A    between atoms: _22  and  _66
REMARK    4  A    between atoms: _27  and  _30
REMARK    5  A    between atoms: _32  and  _33
REMARK    6  A    between atoms: _38  and  _43
REMARK    7  A    between atoms: _43  and  _46
REMARK    8  A    between atoms: _53  and  _55
REMARK                            x       y       z     vdW  Elec       q    Type
REMARK                         _______ _______ _______ _____ _____    ______ ____
ROOT
ATOM     10  C   UNL     1      11.132 -19.520 -12.814  0.00  0.00    +0.038 A 
ATOM     11  C   UNL     1      10.119 -18.540 -12.980  0.00  0.00    +0.047 A 
ATOM     12  C   UNL     1      10.292 -17.427 -13.900  0.00  0.00    +0.035 A 
ATOM     32  C   UNL     1      11.509 -17.344 -14.639  0.00  0.00    +0.024 A 
ATOM     33  C   UNL     1      12.549 -18.330 -14.482  0.00  0.00    +0.007 A 
ATOM     34  C   UNL     1      12.385 -19.429 -13.574  0.00  0.00    -0.029 A 
ATOM     35  C   UNL     1      13.536 -20.453 -13.441  0.00  0.00    +0.045 C 
ENDROOT
BRANCH  10   9
ATOM      4  C   UNL     1       9.250 -23.782 -11.662  0.00  0.00    +0.077 A 
ATOM      5  C   UNL     1       8.629 -23.922 -12.948  0.00  0.00    +0.048 A 
ATOM      6  C   UNL     1       8.812 -22.871 -13.875  0.00  0.00    +0.116 A 
ATOM      7  N   UNL     1       9.563 -21.768 -13.531  0.00  0.00    -0.223 NA
ATOM      8  C   UNL     1      10.147 -21.664 -12.282  0.00  0.00    +0.220 A 
ATOM      9  N   UNL     1      10.912 -20.567 -11.917  0.00  0.00    -0.283 N 
ATOM     36  H   UNL     1      11.320 -20.525 -10.983  0.00  0.00    +0.155 HD
ATOM     37  N   UNL     1       9.985 -22.653 -11.378  0.00  0.00    -0.214 NA
BRANCH   4   3
ATOM      1  C   UNL     1       9.810 -25.767  -8.339  0.00  0.00    +0.020 A 
ATOM      2  C   UNL     1       9.944 -24.750  -9.356  0.00  0.00    +0.013 A 
ATOM      3  C   UNL     1       9.151 -24.809 -10.577  0.00  0.00    +0.019 A 
ATOM     38  C   UNL     1       8.224 -25.919 -10.739  0.00  0.00    +0.120 A 
ATOM     39  N   UNL     1       8.118 -26.885  -9.743  0.00  0.00    -0.263 NA
ATOM     40  C   UNL     1       8.877 -26.839  -8.564  0.00  0.00    +0.111 A 
ENDBRANCH   4   3
ENDBRANCH  10   9
BRANCH  12  13
ATOM     13  N   UNL     1       9.303 -16.398 -14.104  0.00  0.00    -0.281 N 
ATOM     14  C   UNL     1       8.612 -16.100 -15.267  0.00  0.00    +0.248 C 
ATOM     30  O   UNL     1       8.897 -16.537 -16.372  0.00  0.00    -0.270 OA
ATOM     31  H   UNL     1       9.086 -15.820 -13.293  0.00  0.00    +0.155 HD
BRANCH  14  15
ATOM     15  C   UNL     1       7.444 -15.170 -15.194  0.00  0.00    +0.037 A 
ATOM     16  C   UNL     1       7.336 -14.168 -14.131  0.00  0.00    +0.013 A 
ATOM     17  C   UNL     1       6.190 -13.294 -14.074  0.00  0.00    +0.005 A 
ATOM     18  C   UNL     1       5.144 -13.419 -15.087  0.00  0.00    -0.033 A 
ATOM     28  C   UNL     1       5.280 -14.418 -16.133  0.00  0.00    +0.005 A 
ATOM     29  C   UNL     1       6.400 -15.276 -16.192  0.00  0.00    +0.013 A 
BRANCH  18  19
ATOM     19  C   UNL     1       3.877 -12.543 -15.092  0.00  0.00    +0.119 C 
BRANCH  19  20
ATOM     20  N   UNL     1       3.600 -11.748 -16.325  0.00  0.00    -0.302 NA
ATOM     21  C   UNL     1       3.736 -10.243 -16.081  0.00  0.00    +0.066 C 
ATOM     22  C   UNL     1       3.464  -9.428 -17.388  0.00  0.00    -0.064 C 
ATOM     23  N   UNL     1       2.070  -9.767 -17.917  0.00  0.00    +0.379 N 
ATOM     24  C   UNL     1       1.789  -8.959 -19.113  0.00  0.00    -0.096 C 
ATOM     25  H   UNL     1       1.332  -9.479 -17.133  0.00  0.00    -0.082 HD
ATOM     26  C   UNL     1       1.925 -11.263 -18.160  0.00  0.00    -0.064 C 
ATOM     27  C   UNL     1       2.226 -12.065 -16.863  0.00  0.00    +0.066 C 
ENDBRANCH  19  20
ENDBRANCH  18  19
ENDBRANCH  14  15
ENDBRANCH  12  13
TORSDOF 6
ENDMDL
