MODEL 1
REMARK VINA RESULT:      -8.1      0.000      0.000
REMARK  Name = C:\Users\Docking\Desktop\test protocol\1iep_ligandH.pdb
REMARK  8 active torsions:
REMARK  status: ('A' for Active; 'I' for Inactive)
REMARK    1  A    between atoms: _5  and  _11
REMARK    2  A    between atoms: _19  and  _21
REMARK    3  A    between atoms: _22  and  _66
REMARK    4  A    between atoms: _27  and  _30
REMARK    5  A    between atoms: _32  and  _33
REMARK    6  A    between atoms: _38  and  _43
REMARK    7  A    between atoms: _43  and  _46
REMARK    8  A    between atoms: _53  and  _55
REMARK                            x       y       z     vdW  Elec       q    Type
REMARK                         _______ _______ _______ _____ _____    ______ ____
ROOT
ATOM     10  C   UNL     1     -11.062  12.095  24.522  0.00  0.00    +0.038 A 
ATOM     11  C   UNL     1     -11.445  12.923  25.608  0.00  0.00    +0.047 A 
ATOM     12  C   UNL     1     -11.454  14.372  25.483  0.00  0.00    +0.035 A 
ATOM     32  C   UNL     1     -11.069  14.945  24.235  0.00  0.00    +0.024 A 
ATOM     33  C   UNL     1     -10.676  14.118  23.121  0.00  0.00    +0.007 A 
ATOM     34  C   UNL     1     -10.663  12.688  23.240  0.00  0.00    -0.029 A 
ATOM     35  C   UNL     1     -10.227  11.852  22.014  0.00  0.00    +0.045 C 
ENDROOT
BRANCH  10   9
ATOM      4  C   UNL     1      -8.930   7.966  25.724  0.00  0.00    +0.077 A 
ATOM      5  C   UNL     1      -7.684   8.621  26.000  0.00  0.00    +0.048 A 
ATOM      6  C   UNL     1      -7.632  10.021  25.813  0.00  0.00    +0.116 A 
ATOM      7  N   UNL     1      -8.748  10.704  25.383  0.00  0.00    -0.223 NA
ATOM      8  C   UNL     1      -9.934  10.041  25.124  0.00  0.00    +0.220 A 
ATOM      9  N   UNL     1     -11.071  10.710  24.698  0.00  0.00    -0.283 N 
ATOM     36  H   UNL     1     -11.925  10.184  24.510  0.00  0.00    +0.155 HD
ATOM     37  N   UNL     1     -10.009   8.705  25.293  0.00  0.00    -0.214 NA
BRANCH   4   3
ATOM      1  C   UNL     1     -10.611   4.472  26.238  0.00  0.00    +0.020 A 
ATOM      2  C   UNL     1     -10.458   5.901  26.097  0.00  0.00    +0.013 A 
ATOM      3  C   UNL     1      -9.144   6.492  25.877  0.00  0.00    +0.019 A 
ATOM     38  C   UNL     1      -7.996   5.602  25.804  0.00  0.00    +0.120 A 
ATOM     39  N   UNL     1      -8.173   4.229  25.945  0.00  0.00    -0.263 NA
ATOM     40  C   UNL     1      -9.433   3.649  26.158  0.00  0.00    +0.111 A 
ENDBRANCH   4   3
ENDBRANCH  10   9
BRANCH  12  13
ATOM     13  N   UNL     1     -11.825  15.264  26.553  0.00  0.00    -0.281 N 
ATOM     14  C   UNL     1     -11.002  15.837  27.509  0.00  0.00    +0.248 C 
ATOM     30  O   UNL     1      -9.846  15.498  27.718  0.00  0.00    -0.270 OA
ATOM     31  H   UNL     1     -12.815  15.502  26.614  0.00  0.00    +0.155 HD
BRANCH  14  15
ATOM     15  C   UNL     1     -11.545  16.935  28.365  0.00  0.00    +0.037 A 
ATOM     16  C   UNL     1     -10.757  18.137  28.649  0.00  0.00    +0.013 A 
ATOM     17  C   UNL     1     -11.298  19.174  29.492  0.00  0.00    +0.005 A 
ATOM     18  C   UNL     1     -12.636  19.013  30.056  0.00  0.00    -0.033 A 
ATOM     28  C   UNL     1     -13.398  17.812  29.754  0.00  0.00    +0.005 A 
ATOM     29  C   UNL     1     -12.870  16.794  28.929  0.00  0.00    +0.013 A 
BRANCH  18  19
ATOM     19  C   UNL     1     -13.284  20.058  30.983  0.00  0.00    +0.119 C 
BRANCH  19  20
ATOM     20  N   UNL     1     -13.527  21.418  30.416  0.00  0.00    -0.302 NA
ATOM     21  C   UNL     1     -14.091  22.384  31.461  0.00  0.00    +0.066 C 
ATOM     22  C   UNL     1     -14.318  23.808  30.857  0.00  0.00    -0.064 C 
ATOM     23  N   UNL     1     -15.256  23.704  29.653  0.00  0.00    +0.379 N 
ATOM     24  C   UNL     1     -15.517  25.048  29.117  0.00  0.00    -0.096 C 
ATOM     25  H   UNL     1     -16.225  23.290  30.014  0.00  0.00    -0.082 HD
ATOM     26  C   UNL     1     -14.703  22.743  28.609  0.00  0.00    -0.064 C 
ATOM     27  C   UNL     1     -14.454  21.340  29.228  0.00  0.00    +0.066 C 
ENDBRANCH  19  20
ENDBRANCH  18  19
ENDBRANCH  14  15
ENDBRANCH  12  13
TORSDOF 6
ENDMDL
MODEL 2
REMARK VINA RESULT:      -7.8      1.118      1.793
REMARK  Name = C:\Users\Docking\Desktop\test protocol\1iep_ligandH.pdb
REMARK  8 active torsions:
REMARK  status: ('A' for Active; 'I' for Inactive)
REMARK    1  A    between atoms: _5  and  _11
REMARK    2  A    between atoms: _19  and  _21
REMARK    3  A    between atoms: _22  and  _66
REMARK    4  A    between atoms: _27  and  _30
REMARK    5  A    between atoms: _32  and  _33
REMARK    6  A    between atoms: _38  and  _43
REMARK    7  A    between atoms: _43  and  _46
REMARK    8  A    between atoms: _53  and  _55
REMARK                            x       y       z     vdW  Elec       q    Type
REMARK                         _______ _______ _______ _____ _____    ______ ____
ROOT
ATOM     10  C   UNL     1     -11.028  11.970  24.406  0.00  0.00    +0.038 A 
ATOM     11  C   UNL     1     -11.381  12.852  25.459  0.00  0.00    +0.047 A 
ATOM     12  C   UNL     1     -11.365  14.294  25.271  0.00  0.00    +0.035 A 
ATOM     32  C   UNL     1     -10.986  14.804  23.995  0.00  0.00    +0.024 A 
ATOM     33  C   UNL     1     -10.622  13.923  22.914  0.00  0.00    +0.007 A 
ATOM     34  C   UNL     1     -10.635  12.499  23.094  0.00  0.00    -0.029 A 
ATOM     35  C   UNL     1     -10.229  11.602  21.902  0.00  0.00    +0.045 C 
ENDROOT
BRANCH  10   9
ATOM      4  C   UNL     1      -8.957   7.855  25.752  0.00  0.00    +0.077 A 
ATOM      5  C   UNL     1      -7.693   8.496  25.979  0.00  0.00    +0.048 A 
ATOM      6  C   UNL     1      -7.617   9.885  25.730  0.00  0.00    +0.116 A 
ATOM      7  N   UNL     1      -8.727  10.571  25.288  0.00  0.00    -0.223 NA
ATOM      8  C   UNL     1      -9.930   9.922  25.078  0.00  0.00    +0.220 A 
ATOM      9  N   UNL     1     -11.062  10.594  24.642  0.00  0.00    -0.283 N 
ATOM     36  H   UNL     1     -11.928  10.078  24.492  0.00  0.00    +0.155 HD
ATOM     37  N   UNL     1     -10.029   8.596  25.307  0.00  0.00    -0.214 NA
BRANCH   4   3
ATOM      1  C   UNL     1     -10.695   4.421  26.451  0.00  0.00    +0.020 A 
ATOM      2  C   UNL     1     -10.517   5.840  26.245  0.00  0.00    +0.013 A 
ATOM      3  C   UNL     1      -9.197   6.394  25.973  0.00  0.00    +0.019 A 
ATOM     38  C   UNL     1      -8.068   5.477  25.914  0.00  0.00    +0.120 A 
ATOM     39  N   UNL     1      -8.270   4.115  26.117  0.00  0.00    -0.263 NA
ATOM     40  C   UNL     1      -9.535   3.571  26.382  0.00  0.00    +0.111 A 
ENDBRANCH   4   3
ENDBRANCH  10   9
BRANCH  12  13
ATOM     13  N   UNL     1     -11.706  15.238  26.306  0.00  0.00    -0.281 N 
ATOM     14  C   UNL     1     -10.930  15.640  27.381  0.00  0.00    +0.248 C 
ATOM     30  O   UNL     1      -9.902  15.085  27.737  0.00  0.00    -0.270 OA
ATOM     31  H   UNL     1     -12.631  15.662  26.237  0.00  0.00    +0.155 HD
BRANCH  14  15
ATOM     15  C   UNL     1     -11.369  16.821  28.186  0.00  0.00    +0.037 A 
ATOM     16  C   UNL     1     -12.723  16.903  28.739  0.00  0.00    +0.013 A 
ATOM     17  C   UNL     1     -13.126  18.060  29.498  0.00  0.00    +0.005 A 
ATOM     18  C   UNL     1     -12.171  19.146  29.709  0.00  0.00    -0.033 A 
ATOM     28  C   UNL     1     -10.832  19.036  29.154  0.00  0.00    +0.005 A 
ATOM     29  C   UNL     1     -10.434  17.903  28.409  0.00  0.00    +0.013 A 
BRANCH  18  19
ATOM     19  C   UNL     1     -12.521  20.428  30.488  0.00  0.00    +0.119 C 
BRANCH  19  20
ATOM     20  N   UNL     1     -13.922  20.565  30.985  0.00  0.00    -0.302 NA
ATOM     21  C   UNL     1     -14.458  21.988  30.808  0.00  0.00    +0.066 C 
ATOM     22  C   UNL     1     -15.933  22.109  31.313  0.00  0.00    -0.064 C 
ATOM     23  N   UNL     1     -16.003  21.681  32.780  0.00  0.00    +0.379 N 
ATOM     24  C   UNL     1     -17.378  21.848  33.274  0.00  0.00    -0.096 C 
ATOM     25  H   UNL     1     -15.348  22.369  33.364  0.00  0.00    -0.082 HD
ATOM     26  C   UNL     1     -15.470  20.268  32.965  0.00  0.00    -0.064 C 
ATOM     27  C   UNL     1     -14.014  20.152  32.433  0.00  0.00    +0.066 C 
ENDBRANCH  19  20
ENDBRANCH  18  19
ENDBRANCH  14  15
ENDBRANCH  12  13
TORSDOF 6
ENDMDL
MODEL 3
REMARK VINA RESULT:      -7.8      3.417     13.541
REMARK  Name = C:\Users\Docking\Desktop\test protocol\1iep_ligandH.pdb
REMARK  8 active torsions:
REMARK  status: ('A' for Active; 'I' for Inactive)
REMARK    1  A    between atoms: _5  and  _11
REMARK    2  A    between atoms: _19  and  _21
REMARK    3  A    between atoms: _22  and  _66
REMARK    4  A    between atoms: _27  and  _30
REMARK    5  A    between atoms: _32  and  _33
REMARK    6  A    between atoms: _38  and  _43
REMARK    7  A    between atoms: _43  and  _46
REMARK    8  A    between atoms: _53  and  _55
REMARK                            x       y       z     vdW  Elec       q    Type
REMARK                         _______ _______ _______ _____ _____    ______ ____
ROOT
ATOM     10  C   UNL     1     -10.122  12.952  24.513  0.00  0.00    +0.038 A 
ATOM     11  C   UNL     1      -9.513  11.712  24.832  0.00  0.00    +0.047 A 
ATOM     12  C   UNL     1      -9.020  10.825  23.790  0.00  0.00    +0.035 A 
ATOM     32  C   UNL     1      -9.162  11.235  22.432  0.00  0.00    +0.024 A 
ATOM     33  C   UNL     1      -9.779  12.493  22.090  0.00  0.00    +0.007 A 
ATOM     34  C   UNL     1     -10.269  13.370  23.114  0.00  0.00    -0.029 A 
ATOM     35  C   UNL     1     -10.927  14.703  22.689  0.00  0.00    +0.045 C 
ENDROOT
BRANCH  10   9
ATOM      4  C   UNL     1     -13.203  13.972  28.050  0.00  0.00    +0.077 A 
ATOM      5  C   UNL     1     -13.988  12.801  27.783  0.00  0.00    +0.048 A 
ATOM      6  C   UNL     1     -13.569  11.966  26.723  0.00  0.00    +0.116 A 
ATOM      7  N   UNL     1     -12.447  12.288  25.990  0.00  0.00    -0.223 NA
ATOM      8  C   UNL     1     -11.713  13.426  26.273  0.00  0.00    +0.220 A 
ATOM      9  N   UNL     1     -10.577  13.765  25.555  0.00  0.00    -0.283 N 
ATOM     36  H   UNL     1     -10.067  14.616  25.789  0.00  0.00    +0.155 HD
ATOM     37  N   UNL     1     -12.093  14.240  27.279  0.00  0.00    -0.214 NA
BRANCH   4   3
ATOM      1  C   UNL     1     -14.683  15.624  31.271  0.00  0.00    +0.020 A 
ATOM      2  C   UNL     1     -14.415  14.644  30.244  0.00  0.00    +0.013 A 
ATOM      3  C   UNL     1     -13.515  14.950  29.139  0.00  0.00    +0.019 A 
ATOM     38  C   UNL     1     -12.897  16.267  29.103  0.00  0.00    +0.120 A 
ATOM     39  N   UNL     1     -13.176  17.191  30.105  0.00  0.00    -0.263 NA
ATOM     40  C   UNL     1     -14.041  16.909  31.172  0.00  0.00    +0.111 A 
ENDBRANCH   4   3
ENDBRANCH  10   9
BRANCH  12  13
ATOM     13  N   UNL     1      -8.401   9.550  24.053  0.00  0.00    -0.281 N 
ATOM     14  C   UNL     1      -7.598   9.198  25.125  0.00  0.00    +0.248 C 
ATOM     30  O   UNL     1      -7.114   9.994  25.916  0.00  0.00    -0.270 OA
ATOM     31  H   UNL     1      -8.576   8.817  23.364  0.00  0.00    +0.155 HD
BRANCH  14  15
ATOM     15  C   UNL     1      -7.275   7.755  25.343  0.00  0.00    +0.037 A 
ATOM     16  C   UNL     1      -8.324   6.779  25.647  0.00  0.00    +0.013 A 
ATOM     17  C   UNL     1      -7.983   5.396  25.869  0.00  0.00    +0.005 A 
ATOM     18  C   UNL     1      -6.585   4.981  25.786  0.00  0.00    -0.033 A 
ATOM     28  C   UNL     1      -5.565   5.969  25.477  0.00  0.00    +0.005 A 
ATOM     29  C   UNL     1      -5.895   7.326  25.260  0.00  0.00    +0.013 A 
BRANCH  18  19
ATOM     19  C   UNL     1      -6.127   3.531  26.029  0.00  0.00    +0.119 C 
BRANCH  19  20
ATOM     20  N   UNL     1      -5.581   2.781  24.859  0.00  0.00    -0.302 NA
ATOM     21  C   UNL     1      -4.078   3.013  24.678  0.00  0.00    +0.066 C 
ATOM     22  C   UNL     1      -3.519   2.203  23.463  0.00  0.00    -0.064 C 
ATOM     23  N   UNL     1      -4.283   2.595  22.198  0.00  0.00    +0.379 N 
ATOM     24  C   UNL     1      -3.721   1.879  21.043  0.00  0.00    -0.096 C 
ATOM     25  H   UNL     1      -4.122   3.686  22.030  0.00  0.00    -0.082 HD
ATOM     26  C   UNL     1      -5.778   2.371  22.369  0.00  0.00    -0.064 C 
ATOM     27  C   UNL     1      -6.318   3.156  23.597  0.00  0.00    +0.066 C 
ENDBRANCH  19  20
ENDBRANCH  18  19
ENDBRANCH  14  15
ENDBRANCH  12  13
TORSDOF 6
ENDMDL
MODEL 4
REMARK VINA RESULT:      -7.7      3.758      6.736
REMARK  Name = C:\Users\Docking\Desktop\test protocol\1iep_ligandH.pdb
REMARK  8 active torsions:
REMARK  status: ('A' for Active; 'I' for Inactive)
REMARK    1  A    between atoms: _5  and  _11
REMARK    2  A    between atoms: _19  and  _21
REMARK    3  A    between atoms: _22  and  _66
REMARK    4  A    between atoms: _27  and  _30
REMARK    5  A    between atoms: _32  and  _33
REMARK    6  A    between atoms: _38  and  _43
REMARK    7  A    between atoms: _43  and  _46
REMARK    8  A    between atoms: _53  and  _55
REMARK                            x       y       z     vdW  Elec       q    Type
REMARK                         _______ _______ _______ _____ _____    ______ ____
ROOT
ATOM     10  C   UNL     1     -10.429  13.621  25.557  0.00  0.00    +0.038 A 
ATOM     11  C   UNL     1     -11.098  14.536  26.410  0.00  0.00    +0.047 A 
ATOM     12  C   UNL     1     -12.287  14.144  27.150  0.00  0.00    +0.035 A 
ATOM     32  C   UNL     1     -12.766  12.809  27.001  0.00  0.00    +0.024 A 
ATOM     33  C   UNL     1     -12.099  11.866  26.139  0.00  0.00    +0.007 A 
ATOM     34  C   UNL     1     -10.927  12.249  25.404  0.00  0.00    -0.029 A 
ATOM     35  C   UNL     1     -10.256  11.198  24.488  0.00  0.00    +0.045 C 
ENDROOT
BRANCH  10   9
ATOM      4  C   UNL     1      -8.285  15.638  21.767  0.00  0.00    +0.077 A 
ATOM      5  C   UNL     1      -9.534  15.827  21.086  0.00  0.00    +0.048 A 
ATOM      6  C   UNL     1     -10.704  15.384  21.743  0.00  0.00    +0.116 A 
ATOM      7  N   UNL     1     -10.620  14.799  22.987  0.00  0.00    -0.223 NA
ATOM      8  C   UNL     1      -9.399  14.630  23.615  0.00  0.00    +0.220 A 
ATOM      9  N   UNL     1      -9.292  14.051  24.870  0.00  0.00    -0.283 N 
ATOM     36  H   UNL     1      -8.372  13.938  25.296  0.00  0.00    +0.155 HD
ATOM     37  N   UNL     1      -8.267  15.043  23.008  0.00  0.00    -0.214 NA
BRANCH   4   3
ATOM      1  C   UNL     1      -4.987  15.744  19.666  0.00  0.00    +0.020 A 
ATOM      2  C   UNL     1      -6.263  15.296  20.176  0.00  0.00    +0.013 A 
ATOM      3  C   UNL     1      -6.962  16.056  21.204  0.00  0.00    +0.019 A 
ATOM     38  C   UNL     1      -6.339  17.275  21.698  0.00  0.00    +0.120 A 
ATOM     39  N   UNL     1      -5.109  17.680  21.190  0.00  0.00    -0.263 NA
ATOM     40  C   UNL     1      -4.426  16.956  20.201  0.00  0.00    +0.111 A 
ENDBRANCH   4   3
ENDBRANCH  10   9
BRANCH  12  13
ATOM     13  N   UNL     1     -13.013  15.032  28.024  0.00  0.00    -0.281 N 
ATOM     14  C   UNL     1     -12.504  15.862  29.009  0.00  0.00    +0.248 C 
ATOM     30  O   UNL     1     -11.359  15.807  29.435  0.00  0.00    -0.270 OA
ATOM     31  H   UNL     1     -14.026  15.051  27.901  0.00  0.00    +0.155 HD
BRANCH  14  15
ATOM     15  C   UNL     1     -13.398  16.892  29.619  0.00  0.00    +0.037 A 
ATOM     16  C   UNL     1     -14.233  16.580  30.782  0.00  0.00    +0.013 A 
ATOM     17  C   UNL     1     -15.100  17.587  31.341  0.00  0.00    +0.005 A 
ATOM     18  C   UNL     1     -15.135  18.917  30.737  0.00  0.00    -0.033 A 
ATOM     28  C   UNL     1     -14.292  19.201  29.587  0.00  0.00    +0.005 A 
ATOM     29  C   UNL     1     -13.442  18.216  29.036  0.00  0.00    +0.013 A 
BRANCH  18  19
ATOM     19  C   UNL     1     -16.046  20.047  31.254  0.00  0.00    +0.119 C 
BRANCH  19  20
ATOM     20  N   UNL     1     -15.544  20.857  32.404  0.00  0.00    -0.302 NA
ATOM     21  C   UNL     1     -16.049  20.321  33.747  0.00  0.00    +0.066 C 
ATOM     22  C   UNL     1     -15.496  21.167  34.941  0.00  0.00    -0.064 C 
ATOM     23  N   UNL     1     -15.900  22.630  34.755  0.00  0.00    +0.379 N 
ATOM     24  C   UNL     1     -15.432  23.418  35.905  0.00  0.00    -0.096 C 
ATOM     25  H   UNL     1     -17.014  22.675  34.745  0.00  0.00    -0.082 HD
ATOM     26  C   UNL     1     -15.405  23.170  33.421  0.00  0.00    -0.064 C 
ATOM     27  C   UNL     1     -15.936  22.305  32.244  0.00  0.00    +0.066 C 
ENDBRANCH  19  20
ENDBRANCH  18  19
ENDBRANCH  14  15
ENDBRANCH  12  13
TORSDOF 6
ENDMDL
MODEL 5
REMARK VINA RESULT:      -7.7     18.591     22.327
REMARK  Name = C:\Users\Docking\Desktop\test protocol\1iep_ligandH.pdb
REMARK  8 active torsions:
REMARK  status: ('A' for Active; 'I' for Inactive)
REMARK    1  A    between atoms: _5  and  _11
REMARK    2  A    between atoms: _19  and  _21
REMARK    3  A    between atoms: _22  and  _66
REMARK    4  A    between atoms: _27  and  _30
REMARK    5  A    between atoms: _32  and  _33
REMARK    6  A    between atoms: _38  and  _43
REMARK    7  A    between atoms: _43  and  _46
REMARK    8  A    between atoms: _53  and  _55
REMARK                            x       y       z     vdW  Elec       q    Type
REMARK                         _______ _______ _______ _____ _____    ______ ____
ROOT
ATOM     10  C   UNL     1     -22.363  29.957  22.292  0.00  0.00    +0.038 A 
ATOM     11  C   UNL     1     -21.557  30.271  23.416  0.00  0.00    +0.047 A 
ATOM     12  C   UNL     1     -21.570  29.437  24.608  0.00  0.00    +0.035 A 
ATOM     32  C   UNL     1     -22.415  28.290  24.620  0.00  0.00    +0.024 A 
ATOM     33  C   UNL     1     -23.242  27.956  23.487  0.00  0.00    +0.007 A 
ATOM     34  C   UNL     1     -23.235  28.776  22.309  0.00  0.00    -0.029 A 
ATOM     35  C   UNL     1     -24.147  28.374  21.127  0.00  0.00    +0.045 C 
ENDROOT
BRANCH  10   9
ATOM      4  C   UNL     1     -23.888  33.736  19.756  0.00  0.00    +0.077 A 
ATOM      5  C   UNL     1     -24.892  34.058  20.729  0.00  0.00    +0.048 A 
ATOM      6  C   UNL     1     -24.988  33.222  21.864  0.00  0.00    +0.116 A 
ATOM      7  N   UNL     1     -24.138  32.147  22.006  0.00  0.00    -0.223 NA
ATOM      8  C   UNL     1     -23.182  31.863  21.048  0.00  0.00    +0.220 A 
ATOM      9  N   UNL     1     -22.311  30.792  21.173  0.00  0.00    -0.283 N 
ATOM     36  H   UNL     1     -21.625  30.611  20.441  0.00  0.00    +0.155 HD
ATOM     37  N   UNL     1     -23.071  32.645  19.954  0.00  0.00    -0.214 NA
BRANCH   4   3
ATOM      1  C   UNL     1     -24.294  36.319  16.847  0.00  0.00    +0.020 A 
ATOM      2  C   UNL     1     -24.559  35.586  18.064  0.00  0.00    +0.013 A 
ATOM      3  C   UNL     1     -23.661  34.526  18.505  0.00  0.00    +0.019 A 
ATOM     38  C   UNL     1     -22.495  34.230  17.686  0.00  0.00    +0.120 A 
ATOM     39  N   UNL     1     -22.266  34.952  16.519  0.00  0.00    -0.263 NA
ATOM     40  C   UNL     1     -23.124  35.974  16.083  0.00  0.00    +0.111 A 
ENDBRANCH   4   3
ENDBRANCH  10   9
BRANCH  12  13
ATOM     13  N   UNL     1     -20.780  29.711  25.782  0.00  0.00    -0.281 N 
ATOM     14  C   UNL     1     -21.070  30.579  26.821  0.00  0.00    +0.248 C 
ATOM     30  O   UNL     1     -21.960  31.417  26.794  0.00  0.00    -0.270 OA
ATOM     31  H   UNL     1     -19.898  29.202  25.856  0.00  0.00    +0.155 HD
BRANCH  14  15
ATOM     15  C   UNL     1     -20.245  30.518  28.066  0.00  0.00    +0.037 A 
ATOM     16  C   UNL     1     -20.372  31.535  29.113  0.00  0.00    +0.013 A 
ATOM     17  C   UNL     1     -19.551  31.462  30.295  0.00  0.00    +0.005 A 
ATOM     18  C   UNL     1     -18.596  30.366  30.438  0.00  0.00    -0.033 A 
ATOM     28  C   UNL     1     -18.494  29.368  29.386  0.00  0.00    +0.005 A 
ATOM     29  C   UNL     1     -19.296  29.437  28.225  0.00  0.00    +0.013 A 
BRANCH  18  19
ATOM     19  C   UNL     1     -17.665  30.221  31.656  0.00  0.00    +0.119 C 
BRANCH  19  20
ATOM     20  N   UNL     1     -18.221  30.597  32.990  0.00  0.00    -0.302 NA
ATOM     21  C   UNL     1     -17.123  31.006  33.976  0.00  0.00    +0.066 C 
ATOM     22  C   UNL     1     -17.724  31.417  35.359  0.00  0.00    -0.064 C 
ATOM     23  N   UNL     1     -18.550  30.258  35.919  0.00  0.00    +0.379 N 
ATOM     24  C   UNL     1     -19.068  30.620  37.246  0.00  0.00    -0.096 C 
ATOM     25  H   UNL     1     -17.865  29.388  36.050  0.00  0.00    -0.082 HD
ATOM     26  C   UNL     1     -19.642  29.843  34.944  0.00  0.00    -0.064 C 
ATOM     27  C   UNL     1     -19.037  29.464  33.564  0.00  0.00    +0.066 C 
ENDBRANCH  19  20
ENDBRANCH  18  19
ENDBRANCH  14  15
ENDBRANCH  12  13
TORSDOF 6
ENDMDL
