MODEL 1
REMARK VINA RESULT:      -7.9      0.000      0.000
REMARK  Name = C:\Users\Docking\Desktop\test protocol\1iep_ligandH.pdb
REMARK  8 active torsions:
REMARK  status: ('A' for Active; 'I' for Inactive)
REMARK    1  A    between atoms: _5  and  _11
REMARK    2  A    between atoms: _19  and  _21
REMARK    3  A    between atoms: _22  and  _66
REMARK    4  A    between atoms: _27  and  _30
REMARK    5  A    between atoms: _32  and  _33
REMARK    6  A    between atoms: _38  and  _43
REMARK    7  A    between atoms: _43  and  _46
REMARK    8  A    between atoms: _53  and  _55
REMARK                            x       y       z     vdW  Elec       q    Type
REMARK                         _______ _______ _______ _____ _____    ______ ____
ROOT
ATOM     10  C   UNL     1      23.553  28.295   9.892  0.00  0.00    +0.038 A 
ATOM     11  C   UNL     1      23.980  27.557   8.759  0.00  0.00    +0.047 A 
ATOM     12  C   UNL     1      24.426  26.178   8.883  0.00  0.00    +0.035 A 
ATOM     32  C   UNL     1      24.421  25.581  10.177  0.00  0.00    +0.024 A 
ATOM     33  C   UNL     1      23.992  26.316  11.340  0.00  0.00    +0.007 A 
ATOM     34  C   UNL     1      23.553  27.678  11.224  0.00  0.00    -0.029 A 
ATOM     35  C   UNL     1      23.109  28.420  12.506  0.00  0.00    +0.045 C 
ENDROOT
BRANCH  10   9
ATOM      4  C   UNL     1      24.368  33.025   9.865  0.00  0.00    +0.077 A 
ATOM      5  C   UNL     1      25.736  32.851  10.262  0.00  0.00    +0.048 A 
ATOM      6  C   UNL     1      26.188  31.529  10.470  0.00  0.00    +0.116 A 
ATOM      7  N   UNL     1      25.328  30.467  10.291  0.00  0.00    -0.223 NA
ATOM      8  C   UNL     1      24.015  30.670   9.909  0.00  0.00    +0.220 A 
ATOM      9  N   UNL     1      23.135  29.616   9.715  0.00  0.00    -0.283 N 
ATOM     36  H   UNL     1      22.172  29.807   9.441  0.00  0.00    +0.155 HD
ATOM     37  N   UNL     1      23.558  31.923   9.705  0.00  0.00    -0.214 NA
BRANCH   4   3
ATOM      1  C   UNL     1      23.658  36.602   8.449  0.00  0.00    +0.020 A 
ATOM      2  C   UNL     1      24.301  35.326   8.665  0.00  0.00    +0.013 A 
ATOM      3  C   UNL     1      23.743  34.360   9.603  0.00  0.00    +0.019 A 
ATOM     38  C   UNL     1      22.524  34.719  10.312  0.00  0.00    +0.120 A 
ATOM     39  N   UNL     1      21.928  35.955  10.084  0.00  0.00    -0.263 NA
ATOM     40  C   UNL     1      22.456  36.893   9.185  0.00  0.00    +0.111 A 
ENDBRANCH   4   3
ENDBRANCH  10   9
BRANCH  12  13
ATOM     13  N   UNL     1      24.878  25.382   7.769  0.00  0.00    -0.281 N 
ATOM     14  C   UNL     1      24.115  24.812   6.763  0.00  0.00    +0.248 C 
ATOM     30  O   UNL     1      22.896  24.722   6.788  0.00  0.00    -0.270 OA
ATOM     31  H   UNL     1      25.884  25.219   7.715  0.00  0.00    +0.155 HD
BRANCH  14  15
ATOM     15  C   UNL     1      24.805  24.248   5.564  0.00  0.00    +0.037 A 
ATOM     16  C   UNL     1      25.783  23.164   5.689  0.00  0.00    +0.013 A 
ATOM     17  C   UNL     1      26.447  22.650   4.517  0.00  0.00    +0.005 A 
ATOM     18  C   UNL     1      26.134  23.220   3.209  0.00  0.00    -0.033 A 
ATOM     28  C   UNL     1      25.156  24.291   3.113  0.00  0.00    +0.005 A 
ATOM     29  C   UNL     1      24.504  24.798   4.259  0.00  0.00    +0.013 A 
BRANCH  18  19
ATOM     19  C   UNL     1      26.809  22.748   1.908  0.00  0.00    +0.119 C 
BRANCH  19  20
ATOM     20  N   UNL     1      27.587  23.761   1.135  0.00  0.00    -0.302 NA
ATOM     21  C   UNL     1      26.859  24.193  -0.141  0.00  0.00    +0.066 C 
ATOM     22  C   UNL     1      27.677  25.270  -0.926  0.00  0.00    -0.064 C 
ATOM     23  N   UNL     1      29.063  24.714  -1.256  0.00  0.00    +0.379 N 
ATOM     24  C   UNL     1      29.813  25.702  -2.044  0.00  0.00    -0.096 C 
ATOM     25  H   UNL     1      28.922  23.810  -1.892  0.00  0.00    -0.082 HD
ATOM     26  C   UNL     1      29.793  24.279   0.007  0.00  0.00    -0.064 C 
ATOM     27  C   UNL     1      28.958  23.231   0.795  0.00  0.00    +0.066 C 
ENDBRANCH  19  20
ENDBRANCH  18  19
ENDBRANCH  14  15
ENDBRANCH  12  13
TORSDOF 6
ENDMDL
MODEL 2
REMARK VINA RESULT:      -7.8      9.664     14.451
REMARK  Name = C:\Users\Docking\Desktop\test protocol\1iep_ligandH.pdb
REMARK  8 active torsions:
REMARK  status: ('A' for Active; 'I' for Inactive)
REMARK    1  A    between atoms: _5  and  _11
REMARK    2  A    between atoms: _19  and  _21
REMARK    3  A    between atoms: _22  and  _66
REMARK    4  A    between atoms: _27  and  _30
REMARK    5  A    between atoms: _32  and  _33
REMARK    6  A    between atoms: _38  and  _43
REMARK    7  A    between atoms: _43  and  _46
REMARK    8  A    between atoms: _53  and  _55
REMARK                            x       y       z     vdW  Elec       q    Type
REMARK                         _______ _______ _______ _____ _____    ______ ____
ROOT
ATOM     10  C   UNL     1      20.012  29.694  21.390  0.00  0.00    +0.038 A 
ATOM     11  C   UNL     1      20.302  29.507  20.015  0.00  0.00    +0.047 A 
ATOM     12  C   UNL     1      19.660  30.319  18.993  0.00  0.00    +0.035 A 
ATOM     32  C   UNL     1      18.728  31.314  19.408  0.00  0.00    +0.024 A 
ATOM     33  C   UNL     1      18.419  31.517  20.802  0.00  0.00    +0.007 A 
ATOM     34  C   UNL     1      19.048  30.717  21.814  0.00  0.00    -0.029 A 
ATOM     35  C   UNL     1      18.675  30.974  23.293  0.00  0.00    +0.045 C 
ENDROOT
BRANCH  10   9
ATOM      4  C   UNL     1      20.185  25.856  24.268  0.00  0.00    +0.077 A 
ATOM      5  C   UNL     1      18.865  25.439  23.889  0.00  0.00    +0.048 A 
ATOM      6  C   UNL     1      18.173  26.243  22.956  0.00  0.00    +0.116 A 
ATOM      7  N   UNL     1      18.766  27.378  22.447  0.00  0.00    -0.223 NA
ATOM      8  C   UNL     1      20.039  27.753  22.835  0.00  0.00    +0.220 A 
ATOM      9  N   UNL     1      20.658  28.886  22.329  0.00  0.00    -0.283 N 
ATOM     36  H   UNL     1      21.595  29.133  22.646  0.00  0.00    +0.155 HD
ATOM     37  N   UNL     1      20.720  27.003  23.725  0.00  0.00    -0.214 NA
BRANCH   4   3
ATOM      1  C   UNL     1      21.429  23.932  27.438  0.00  0.00    +0.020 A 
ATOM      2  C   UNL     1      20.559  24.650  26.535  0.00  0.00    +0.013 A 
ATOM      3  C   UNL     1      21.044  25.109  25.240  0.00  0.00    +0.019 A 
ATOM     38  C   UNL     1      22.425  24.823  24.885  0.00  0.00    +0.120 A 
ATOM     39  N   UNL     1      23.241  24.131  25.775  0.00  0.00    -0.263 NA
ATOM     40  C   UNL     1      22.786  23.686  27.025  0.00  0.00    +0.111 A 
ENDBRANCH   4   3
ENDBRANCH  10   9
BRANCH  12  13
ATOM     13  N   UNL     1      19.909  30.170  17.581  0.00  0.00    -0.281 N 
ATOM     14  C   UNL     1      20.528  31.067  16.726  0.00  0.00    +0.248 C 
ATOM     30  O   UNL     1      20.772  32.231  17.004  0.00  0.00    -0.270 OA
ATOM     31  H   UNL     1      19.591  29.296  17.160  0.00  0.00    +0.155 HD
BRANCH  14  15
ATOM     15  C   UNL     1      20.920  30.608  15.358  0.00  0.00    +0.037 A 
ATOM     16  C   UNL     1      22.039  31.225  14.642  0.00  0.00    +0.013 A 
ATOM     17  C   UNL     1      22.386  30.775  13.317  0.00  0.00    +0.005 A 
ATOM     18  C   UNL     1      21.612  29.700  12.700  0.00  0.00    -0.033 A 
ATOM     28  C   UNL     1      20.510  29.102  13.436  0.00  0.00    +0.005 A 
ATOM     29  C   UNL     1      20.167  29.542  14.734  0.00  0.00    +0.013 A 
BRANCH  18  19
ATOM     19  C   UNL     1      21.897  29.171  11.282  0.00  0.00    +0.119 C 
BRANCH  19  20
ATOM     20  N   UNL     1      22.742  30.022  10.392  0.00  0.00    -0.302 NA
ATOM     21  C   UNL     1      21.975  31.238   9.863  0.00  0.00    +0.066 C 
ATOM     22  C   UNL     1      22.881  32.129   8.952  0.00  0.00    -0.064 C 
ATOM     23  N   UNL     1      23.423  31.286   7.796  0.00  0.00    +0.379 N 
ATOM     24  C   UNL     1      24.228  32.135   6.906  0.00  0.00    -0.096 C 
ATOM     25  H   UNL     1      22.551  30.914   7.211  0.00  0.00    -0.082 HD
ATOM     26  C   UNL     1      24.185  30.074   8.313  0.00  0.00    -0.064 C 
ATOM     27  C   UNL     1      23.285  29.211   9.241  0.00  0.00    +0.066 C 
ENDBRANCH  19  20
ENDBRANCH  18  19
ENDBRANCH  14  15
ENDBRANCH  12  13
TORSDOF 6
ENDMDL
MODEL 3
REMARK VINA RESULT:      -7.7      5.379     10.808
REMARK  Name = C:\Users\Docking\Desktop\test protocol\1iep_ligandH.pdb
REMARK  8 active torsions:
REMARK  status: ('A' for Active; 'I' for Inactive)
REMARK    1  A    between atoms: _5  and  _11
REMARK    2  A    between atoms: _19  and  _21
REMARK    3  A    between atoms: _22  and  _66
REMARK    4  A    between atoms: _27  and  _30
REMARK    5  A    between atoms: _32  and  _33
REMARK    6  A    between atoms: _38  and  _43
REMARK    7  A    between atoms: _43  and  _46
REMARK    8  A    between atoms: _53  and  _55
REMARK                            x       y       z     vdW  Elec       q    Type
REMARK                         _______ _______ _______ _____ _____    ______ ____
ROOT
ATOM     10  C   UNL     1      24.050  29.885  10.523  0.00  0.00    +0.038 A 
ATOM     11  C   UNL     1      23.757  30.981   9.672  0.00  0.00    +0.047 A 
ATOM     12  C   UNL     1      24.666  32.110   9.559  0.00  0.00    +0.035 A 
ATOM     32  C   UNL     1      25.867  32.090  10.326  0.00  0.00    +0.024 A 
ATOM     33  C   UNL     1      26.181  30.985  11.197  0.00  0.00    +0.007 A 
ATOM     34  C   UNL     1      25.287  29.869  11.315  0.00  0.00    -0.029 A 
ATOM     35  C   UNL     1      25.671  28.715  12.269  0.00  0.00    +0.045 C 
ENDROOT
BRANCH  10   9
ATOM      4  C   UNL     1      22.360  25.652   9.020  0.00  0.00    +0.077 A 
ATOM      5  C   UNL     1      23.354  25.553   7.991  0.00  0.00    +0.048 A 
ATOM      6  C   UNL     1      24.278  26.617   7.877  0.00  0.00    +0.116 A 
ATOM      7  N   UNL     1      24.203  27.693   8.734  0.00  0.00    -0.223 NA
ATOM      8  C   UNL     1      23.231  27.757   9.715  0.00  0.00    +0.220 A 
ATOM      9  N   UNL     1      23.142  28.826  10.593  0.00  0.00    -0.283 N 
ATOM     36  H   UNL     1      22.405  28.840  11.298  0.00  0.00    +0.155 HD
ATOM     37  N   UNL     1      22.336  26.755   9.844  0.00  0.00    -0.214 NA
BRANCH   4   3
ATOM      1  C   UNL     1      19.724  22.809   8.496  0.00  0.00    +0.020 A 
ATOM      2  C   UNL     1      20.728  23.806   8.203  0.00  0.00    +0.013 A 
ATOM      3  C   UNL     1      21.316  24.607   9.269  0.00  0.00    +0.019 A 
ATOM     38  C   UNL     1      20.863  24.373  10.631  0.00  0.00    +0.120 A 
ATOM     39  N   UNL     1      19.893  23.408  10.884  0.00  0.00    -0.263 NA
ATOM     40  C   UNL     1      19.319  22.632   9.866  0.00  0.00    +0.111 A 
ENDBRANCH   4   3
ENDBRANCH  10   9
BRANCH  12  13
ATOM     13  N   UNL     1      24.417  33.254   8.717  0.00  0.00    -0.281 N 
ATOM     14  C   UNL     1      23.761  34.429   9.047  0.00  0.00    +0.248 C 
ATOM     30  O   UNL     1      23.097  34.587  10.061  0.00  0.00    -0.270 OA
ATOM     31  H   UNL     1      24.768  33.191   7.761  0.00  0.00    +0.155 HD
BRANCH  14  15
ATOM     15  C   UNL     1      23.841  35.590   8.110  0.00  0.00    +0.037 A 
ATOM     16  C   UNL     1      24.682  36.751   8.409  0.00  0.00    +0.013 A 
ATOM     17  C   UNL     1      24.729  37.865   7.496  0.00  0.00    +0.005 A 
ATOM     18  C   UNL     1      23.932  37.822   6.272  0.00  0.00    -0.033 A 
ATOM     28  C   UNL     1      23.110  36.655   5.997  0.00  0.00    +0.005 A 
ATOM     29  C   UNL     1      23.061  35.561   6.891  0.00  0.00    +0.013 A 
BRANCH  18  19
ATOM     19  C   UNL     1      23.904  38.974   5.251  0.00  0.00    +0.119 C 
BRANCH  19  20
ATOM     20  N   UNL     1      24.743  38.822   4.025  0.00  0.00    -0.302 NA
ATOM     21  C   UNL     1      24.001  38.079   2.909  0.00  0.00    +0.066 C 
ATOM     22  C   UNL     1      24.885  37.949   1.627  0.00  0.00    -0.064 C 
ATOM     23  N   UNL     1      26.189  37.232   1.980  0.00  0.00    +0.379 N 
ATOM     24  C   UNL     1      26.997  37.056   0.765  0.00  0.00    -0.096 C 
ATOM     25  H   UNL     1      25.925  36.218   2.361  0.00  0.00    -0.082 HD
ATOM     26  C   UNL     1      26.932  37.962   3.090  0.00  0.00    -0.064 C 
ATOM     27  C   UNL     1      26.034  38.112   4.350  0.00  0.00    +0.066 C 
ENDBRANCH  19  20
ENDBRANCH  18  19
ENDBRANCH  14  15
ENDBRANCH  12  13
TORSDOF 6
ENDMDL
MODEL 4
REMARK VINA RESULT:      -7.6      9.601     14.472
REMARK  Name = C:\Users\Docking\Desktop\test protocol\1iep_ligandH.pdb
REMARK  8 active torsions:
REMARK  status: ('A' for Active; 'I' for Inactive)
REMARK    1  A    between atoms: _5  and  _11
REMARK    2  A    between atoms: _19  and  _21
REMARK    3  A    between atoms: _22  and  _66
REMARK    4  A    between atoms: _27  and  _30
REMARK    5  A    between atoms: _32  and  _33
REMARK    6  A    between atoms: _38  and  _43
REMARK    7  A    between atoms: _43  and  _46
REMARK    8  A    between atoms: _53  and  _55
REMARK                            x       y       z     vdW  Elec       q    Type
REMARK                         _______ _______ _______ _____ _____    ______ ____
ROOT
ATOM     10  C   UNL     1      20.275  29.762  21.388  0.00  0.00    +0.038 A 
ATOM     11  C   UNL     1      20.727  29.638  20.050  0.00  0.00    +0.047 A 
ATOM     12  C   UNL     1      20.188  30.480  18.993  0.00  0.00    +0.035 A 
ATOM     32  C   UNL     1      19.192  31.440  19.335  0.00  0.00    +0.024 A 
ATOM     33  C   UNL     1      18.720  31.579  20.691  0.00  0.00    +0.007 A 
ATOM     34  C   UNL     1      19.246  30.749  21.737  0.00  0.00    -0.029 A 
ATOM     35  C   UNL     1      18.699  30.937  23.171  0.00  0.00    +0.045 C 
ENDROOT
BRANCH  10   9
ATOM      4  C   UNL     1      20.140  25.878  24.206  0.00  0.00    +0.077 A 
ATOM      5  C   UNL     1      18.849  25.493  23.713  0.00  0.00    +0.048 A 
ATOM      6  C   UNL     1      18.250  26.325  22.741  0.00  0.00    +0.116 A 
ATOM      7  N   UNL     1      18.904  27.456  22.300  0.00  0.00    -0.223 NA
ATOM      8  C   UNL     1      20.148  27.800  22.797  0.00  0.00    +0.220 A 
ATOM      9  N   UNL     1      20.827  28.928  22.363  0.00  0.00    -0.283 N 
ATOM     36  H   UNL     1      21.739  29.151  22.760  0.00  0.00    +0.155 HD
ATOM     37  N   UNL     1      20.740  27.022  23.728  0.00  0.00    -0.214 NA
BRANCH   4   3
ATOM      1  C   UNL     1      21.114  23.969  27.478  0.00  0.00    +0.020 A 
ATOM      2  C   UNL     1      20.336  24.721  26.521  0.00  0.00    +0.013 A 
ATOM      3  C   UNL     1      20.902  25.100  25.233  0.00  0.00    +0.019 A 
ATOM     38  C   UNL     1      22.270  24.698  24.941  0.00  0.00    +0.120 A 
ATOM     39  N   UNL     1      22.996  23.975  25.882  0.00  0.00    -0.263 NA
ATOM     40  C   UNL     1      22.462  23.607  27.126  0.00  0.00    +0.111 A 
ENDBRANCH   4   3
ENDBRANCH  10   9
BRANCH  12  13
ATOM     13  N   UNL     1      20.602  30.394  17.614  0.00  0.00    -0.281 N 
ATOM     14  C   UNL     1      19.822  30.103  16.507  0.00  0.00    +0.248 C 
ATOM     30  O   UNL     1      18.685  29.660  16.561  0.00  0.00    -0.270 OA
ATOM     31  H   UNL     1      21.591  30.570  17.433  0.00  0.00    +0.155 HD
BRANCH  14  15
ATOM     15  C   UNL     1      20.393  30.322  15.144  0.00  0.00    +0.037 A 
ATOM     16  C   UNL     1      21.304  31.437  14.871  0.00  0.00    +0.013 A 
ATOM     17  C   UNL     1      21.827  31.636  13.543  0.00  0.00    +0.005 A 
ATOM     18  C   UNL     1      21.441  30.715  12.476  0.00  0.00    -0.033 A 
ATOM     28  C   UNL     1      20.540  29.615  12.775  0.00  0.00    +0.005 A 
ATOM     29  C   UNL     1      20.025  29.417  14.076  0.00  0.00    +0.013 A 
BRANCH  18  19
ATOM     19  C   UNL     1      21.934  30.864  11.025  0.00  0.00    +0.119 C 
BRANCH  19  20
ATOM     20  N   UNL     1      23.099  30.027  10.609  0.00  0.00    -0.302 NA
ATOM     21  C   UNL     1      22.659  28.702   9.979  0.00  0.00    +0.066 C 
ATOM     22  C   UNL     1      23.890  27.849   9.530  0.00  0.00    -0.064 C 
ATOM     23  N   UNL     1      24.801  27.600  10.733  0.00  0.00    +0.379 N 
ATOM     24  C   UNL     1      25.929  26.750  10.327  0.00  0.00    -0.096 C 
ATOM     25  H   UNL     1      24.211  27.039  11.494  0.00  0.00    -0.082 HD
ATOM     26  C   UNL     1      25.241  28.912  11.368  0.00  0.00    -0.064 C 
ATOM     27  C   UNL     1      24.010  29.765  11.783  0.00  0.00    +0.066 C 
ENDBRANCH  19  20
ENDBRANCH  18  19
ENDBRANCH  14  15
ENDBRANCH  12  13
TORSDOF 6
ENDMDL
MODEL 5
REMARK VINA RESULT:      -7.5      7.318     15.254
REMARK  Name = C:\Users\Docking\Desktop\test protocol\1iep_ligandH.pdb
REMARK  8 active torsions:
REMARK  status: ('A' for Active; 'I' for Inactive)
REMARK    1  A    between atoms: _5  and  _11
REMARK    2  A    between atoms: _19  and  _21
REMARK    3  A    between atoms: _22  and  _66
REMARK    4  A    between atoms: _27  and  _30
REMARK    5  A    between atoms: _32  and  _33
REMARK    6  A    between atoms: _38  and  _43
REMARK    7  A    between atoms: _43  and  _46
REMARK    8  A    between atoms: _53  and  _55
REMARK                            x       y       z     vdW  Elec       q    Type
REMARK                         _______ _______ _______ _____ _____    ______ ____
ROOT
ATOM     10  C   UNL     1      22.530  31.567  12.468  0.00  0.00    +0.038 A 
ATOM     11  C   UNL     1      22.142  31.312  13.808  0.00  0.00    +0.047 A 
ATOM     12  C   UNL     1      22.292  32.325  14.841  0.00  0.00    +0.035 A 
ATOM     32  C   UNL     1      22.838  33.589  14.473  0.00  0.00    +0.024 A 
ATOM     33  C   UNL     1      23.238  33.866  13.116  0.00  0.00    +0.007 A 
ATOM     34  C   UNL     1      23.095  32.869  12.093  0.00  0.00    -0.029 A 
ATOM     35  C   UNL     1      23.547  33.219  10.656  0.00  0.00    +0.045 C 
ENDROOT
BRANCH  10   9
ATOM      4  C   UNL     1      23.994  27.587  10.221  0.00  0.00    +0.077 A 
ATOM      5  C   UNL     1      25.204  27.527  10.989  0.00  0.00    +0.048 A 
ATOM      6  C   UNL     1      25.415  28.544  11.947  0.00  0.00    +0.116 A 
ATOM      7  N   UNL     1      24.479  29.541  12.116  0.00  0.00    -0.223 NA
ATOM      8  C   UNL     1      23.323  29.570  11.358  0.00  0.00    +0.220 A 
ATOM      9  N   UNL     1      22.364  30.558  11.517  0.00  0.00    -0.283 N 
ATOM     36  H   UNL     1      21.528  30.549  10.933  0.00  0.00    +0.155 HD
ATOM     37  N   UNL     1      23.099  28.611  10.435  0.00  0.00    -0.214 NA
BRANCH   4   3
ATOM      1  C   UNL     1      23.922  25.497   6.915  0.00  0.00    +0.020 A 
ATOM      2  C   UNL     1      24.316  26.485   7.893  0.00  0.00    +0.013 A 
ATOM      3  C   UNL     1      23.626  26.583   9.173  0.00  0.00    +0.019 A 
ATOM     38  C   UNL     1      22.533  25.659   9.434  0.00  0.00    +0.120 A 
ATOM     39  N   UNL     1      22.175  24.719   8.473  0.00  0.00    -0.263 NA
ATOM     40  C   UNL     1      22.830  24.616   7.237  0.00  0.00    +0.111 A 
ENDBRANCH   4   3
ENDBRANCH  10   9
BRANCH  12  13
ATOM     13  N   UNL     1      21.923  32.120  16.220  0.00  0.00    -0.281 N 
ATOM     14  C   UNL     1      20.768  32.534  16.863  0.00  0.00    +0.248 C 
ATOM     30  O   UNL     1      19.968  33.333  16.400  0.00  0.00    -0.270 OA
ATOM     31  H   UNL     1      22.596  31.608  16.791  0.00  0.00    +0.155 HD
BRANCH  14  15
ATOM     15  C   UNL     1      20.466  31.992  18.223  0.00  0.00    +0.037 A 
ATOM     16  C   UNL     1      20.173  32.884  19.348  0.00  0.00    +0.013 A 
ATOM     17  C   UNL     1      19.901  32.336  20.653  0.00  0.00    +0.005 A 
ATOM     18  C   UNL     1      19.920  30.887  20.840  0.00  0.00    -0.033 A 
ATOM     28  C   UNL     1      20.208  30.026  19.705  0.00  0.00    +0.005 A 
ATOM     29  C   UNL     1      20.476  30.559  18.425  0.00  0.00    +0.013 A 
BRANCH  18  19
ATOM     19  C   UNL     1      19.662  30.216  22.202  0.00  0.00    +0.119 C 
BRANCH  19  20
ATOM     20  N   UNL     1      19.170  28.806  22.187  0.00  0.00    -0.302 NA
ATOM     21  C   UNL     1      17.641  28.731  22.206  0.00  0.00    +0.066 C 
ATOM     22  C   UNL     1      17.143  27.250  22.167  0.00  0.00    -0.064 C 
ATOM     23  N   UNL     1      17.737  26.484  23.351  0.00  0.00    +0.379 N 
ATOM     24  C   UNL     1      17.225  25.106  23.351  0.00  0.00    -0.096 C 
ATOM     25  H   UNL     1      17.381  26.978  24.285  0.00  0.00    -0.082 HD
ATOM     26  C   UNL     1      19.257  26.556  23.342  0.00  0.00    -0.064 C 
ATOM     27  C   UNL     1      19.741  28.033  23.351  0.00  0.00    +0.066 C 
ENDBRANCH  19  20
ENDBRANCH  18  19
ENDBRANCH  14  15
ENDBRANCH  12  13
TORSDOF 6
ENDMDL
