MODEL 1
REMARK VINA RESULT:      -7.8      0.000      0.000
REMARK  Name = C:\Users\Docking\Desktop\test protocol\1iep_ligandH.pdb
REMARK  8 active torsions:
REMARK  status: ('A' for Active; 'I' for Inactive)
REMARK    1  A    between atoms: _5  and  _11
REMARK    2  A    between atoms: _19  and  _21
REMARK    3  A    between atoms: _22  and  _66
REMARK    4  A    between atoms: _27  and  _30
REMARK    5  A    between atoms: _32  and  _33
REMARK    6  A    between atoms: _38  and  _43
REMARK    7  A    between atoms: _43  and  _46
REMARK    8  A    between atoms: _53  and  _55
REMARK                            x       y       z     vdW  Elec       q    Type
REMARK                         _______ _______ _______ _____ _____    ______ ____
ROOT
ATOM     10  C   UNL     1     -14.365  56.541   2.676  0.00  0.00    +0.038 A 
ATOM     11  C   UNL     1     -13.207  56.733   3.472  0.00  0.00    +0.047 A 
ATOM     12  C   UNL     1     -13.023  57.946   4.253  0.00  0.00    +0.035 A 
ATOM     32  C   UNL     1     -14.040  58.943   4.202  0.00  0.00    +0.024 A 
ATOM     33  C   UNL     1     -15.223  58.766   3.397  0.00  0.00    +0.007 A 
ATOM     34  C   UNL     1     -15.409  57.572   2.623  0.00  0.00    -0.029 A 
ATOM     35  C   UNL     1     -16.694  57.438   1.773  0.00  0.00    +0.045 C 
ENDROOT
BRANCH  10   9
ATOM      4  C   UNL     1     -13.461  53.829  -1.179  0.00  0.00    +0.077 A 
ATOM      5  C   UNL     1     -12.697  54.869  -1.805  0.00  0.00    +0.048 A 
ATOM      6  C   UNL     1     -12.566  56.089  -1.104  0.00  0.00    +0.116 A 
ATOM      7  N   UNL     1     -13.159  56.246   0.129  0.00  0.00    -0.223 NA
ATOM      8  C   UNL     1     -13.892  55.224   0.704  0.00  0.00    +0.220 A 
ATOM      9  N   UNL     1     -14.491  55.357   1.947  0.00  0.00    -0.283 N 
ATOM     36  H   UNL     1     -15.029  54.582   2.333  0.00  0.00    +0.155 HD
ATOM     37  N   UNL     1     -14.032  54.049   0.054  0.00  0.00    -0.214 NA
BRANCH   4   3
ATOM      1  C   UNL     1     -14.745  50.948  -3.493  0.00  0.00    +0.020 A 
ATOM      2  C   UNL     1     -14.561  52.270  -2.939  0.00  0.00    +0.013 A 
ATOM      3  C   UNL     1     -13.687  52.482  -1.792  0.00  0.00    +0.019 A 
ATOM     38  C   UNL     1     -13.007  51.327  -1.226  0.00  0.00    +0.120 A 
ATOM     39  N   UNL     1     -13.204  50.066  -1.780  0.00  0.00    -0.263 NA
ATOM     40  C   UNL     1     -14.044  49.849  -2.882  0.00  0.00    +0.111 A 
ENDBRANCH   4   3
ENDBRANCH  10   9
BRANCH  12  13
ATOM     13  N   UNL     1     -11.864  58.200   5.073  0.00  0.00    -0.281 N 
ATOM     14  C   UNL     1     -11.457  57.515   6.207  0.00  0.00    +0.248 C 
ATOM     30  O   UNL     1     -12.147  56.710   6.813  0.00  0.00    -0.270 OA
ATOM     31  H   UNL     1     -11.272  58.978   4.783  0.00  0.00    +0.155 HD
BRANCH  14  15
ATOM     15  C   UNL     1     -10.090  57.773   6.754  0.00  0.00    +0.037 A 
ATOM     16  C   UNL     1      -8.928  57.015   6.283  0.00  0.00    +0.013 A 
ATOM     17  C   UNL     1      -7.623  57.272   6.840  0.00  0.00    +0.005 A 
ATOM     18  C   UNL     1      -7.474  58.294   7.873  0.00  0.00    -0.033 A 
ATOM     28  C   UNL     1      -8.643  59.035   8.318  0.00  0.00    +0.005 A 
ATOM     29  C   UNL     1      -9.923  58.785   7.775  0.00  0.00    +0.013 A 
BRANCH  18  19
ATOM     19  C   UNL     1      -6.124  58.620   8.538  0.00  0.00    +0.119 C 
BRANCH  19  20
ATOM     20  N   UNL     1      -5.563  57.607   9.481  0.00  0.00    -0.302 NA
ATOM     21  C   UNL     1      -5.441  58.154  10.906  0.00  0.00    +0.066 C 
ATOM     22  C   UNL     1      -4.875  57.073  11.884  0.00  0.00    -0.064 C 
ATOM     23  N   UNL     1      -3.518  56.588  11.372  0.00  0.00    +0.379 N 
ATOM     24  C   UNL     1      -2.956  55.614  12.320  0.00  0.00    -0.096 C 
ATOM     25  H   UNL     1      -2.833  57.467  11.344  0.00  0.00    -0.082 HD
ATOM     26  C   UNL     1      -3.629  56.045   9.955  0.00  0.00    -0.064 C 
ATOM     27  C   UNL     1      -4.221  57.117   8.997  0.00  0.00    +0.066 C 
ENDBRANCH  19  20
ENDBRANCH  18  19
ENDBRANCH  14  15
ENDBRANCH  12  13
TORSDOF 6
ENDMDL
MODEL 2
REMARK VINA RESULT:      -7.8      3.712     12.193
REMARK  Name = C:\Users\Docking\Desktop\test protocol\1iep_ligandH.pdb
REMARK  8 active torsions:
REMARK  status: ('A' for Active; 'I' for Inactive)
REMARK    1  A    between atoms: _5  and  _11
REMARK    2  A    between atoms: _19  and  _21
REMARK    3  A    between atoms: _22  and  _66
REMARK    4  A    between atoms: _27  and  _30
REMARK    5  A    between atoms: _32  and  _33
REMARK    6  A    between atoms: _38  and  _43
REMARK    7  A    between atoms: _43  and  _46
REMARK    8  A    between atoms: _53  and  _55
REMARK                            x       y       z     vdW  Elec       q    Type
REMARK                         _______ _______ _______ _____ _____    ______ ____
ROOT
ATOM     10  C   UNL     1      -6.031  57.184   6.885  0.00  0.00    +0.038 A 
ATOM     11  C   UNL     1      -7.197  56.902   6.128  0.00  0.00    +0.047 A 
ATOM     12  C   UNL     1      -8.481  56.690   6.777  0.00  0.00    +0.035 A 
ATOM     32  C   UNL     1      -8.543  56.776   8.199  0.00  0.00    +0.024 A 
ATOM     33  C   UNL     1      -7.367  57.061   8.983  0.00  0.00    +0.007 A 
ATOM     34  C   UNL     1      -6.097  57.268   8.349  0.00  0.00    -0.029 A 
ATOM     35  C   UNL     1      -4.868  57.564   9.240  0.00  0.00    +0.045 C 
ENDROOT
BRANCH  10   9
ATOM      4  C   UNL     1      -1.703  55.698   5.437  0.00  0.00    +0.077 A 
ATOM      5  C   UNL     1      -1.848  54.436   6.104  0.00  0.00    +0.048 A 
ATOM      6  C   UNL     1      -3.048  54.212   6.814  0.00  0.00    +0.116 A 
ATOM      7  N   UNL     1      -4.024  55.184   6.848  0.00  0.00    -0.223 NA
ATOM      8  C   UNL     1      -3.852  56.391   6.196  0.00  0.00    +0.220 A 
ATOM      9  N   UNL     1      -4.823  57.380   6.210  0.00  0.00    -0.283 N 
ATOM     36  H   UNL     1      -4.655  58.259   5.722  0.00  0.00    +0.155 HD
ATOM     37  N   UNL     1      -2.714  56.630   5.512  0.00  0.00    -0.214 NA
BRANCH   4   3
ATOM      1  C   UNL     1       2.000  56.324   4.341  0.00  0.00    +0.020 A 
ATOM      2  C   UNL     1       0.866  55.938   5.149  0.00  0.00    +0.013 A 
ATOM      3  C   UNL     1      -0.493  56.082   4.643  0.00  0.00    +0.019 A 
ATOM     38  C   UNL     1      -0.672  56.623   3.304  0.00  0.00    +0.120 A 
ATOM     39  N   UNL     1       0.439  56.987   2.549  0.00  0.00    -0.263 NA
ATOM     40  C   UNL     1       1.751  56.855   3.027  0.00  0.00    +0.111 A 
ENDBRANCH   4   3
ENDBRANCH  10   9
BRANCH  12  13
ATOM     13  N   UNL     1      -9.698  56.392   6.062  0.00  0.00    -0.281 N 
ATOM     14  C   UNL     1     -10.819  57.193   5.918  0.00  0.00    +0.248 C 
ATOM     30  O   UNL     1     -11.031  58.208   6.565  0.00  0.00    -0.270 OA
ATOM     31  H   UNL     1      -9.737  55.480   5.607  0.00  0.00    +0.155 HD
BRANCH  14  15
ATOM     15  C   UNL     1     -11.862  56.803   4.921  0.00  0.00    +0.037 A 
ATOM     16  C   UNL     1     -11.936  55.438   4.394  0.00  0.00    +0.013 A 
ATOM     17  C   UNL     1     -12.941  55.092   3.421  0.00  0.00    +0.005 A 
ATOM     18  C   UNL     1     -13.882  56.114   2.969  0.00  0.00    -0.033 A 
ATOM     28  C   UNL     1     -13.789  57.459   3.512  0.00  0.00    +0.005 A 
ATOM     29  C   UNL     1     -12.805  57.802   4.466  0.00  0.00    +0.013 A 
BRANCH  18  19
ATOM     19  C   UNL     1     -14.974  55.840   1.918  0.00  0.00    +0.119 C 
BRANCH  19  20
ATOM     20  N   UNL     1     -14.593  55.007   0.738  0.00  0.00    -0.302 NA
ATOM     21  C   UNL     1     -13.383  55.582  -0.004  0.00  0.00    +0.066 C 
ATOM     22  C   UNL     1     -12.984  54.686  -1.222  0.00  0.00    -0.064 C 
ATOM     23  N   UNL     1     -14.181  54.549  -2.164  0.00  0.00    +0.379 N 
ATOM     24  C   UNL     1     -13.793  53.756  -3.339  0.00  0.00    -0.096 C 
ATOM     25  H   UNL     1     -14.451  55.571  -2.520  0.00  0.00    -0.082 HD
ATOM     26  C   UNL     1     -15.390  53.981  -1.434  0.00  0.00    -0.064 C 
ATOM     27  C   UNL     1     -15.760  54.862  -0.208  0.00  0.00    +0.066 C 
ENDBRANCH  19  20
ENDBRANCH  18  19
ENDBRANCH  14  15
ENDBRANCH  12  13
TORSDOF 6
ENDMDL
MODEL 3
REMARK VINA RESULT:      -7.7      7.765     15.579
REMARK  Name = C:\Users\Docking\Desktop\test protocol\1iep_ligandH.pdb
REMARK  8 active torsions:
REMARK  status: ('A' for Active; 'I' for Inactive)
REMARK    1  A    between atoms: _5  and  _11
REMARK    2  A    between atoms: _19  and  _21
REMARK    3  A    between atoms: _22  and  _66
REMARK    4  A    between atoms: _27  and  _30
REMARK    5  A    between atoms: _32  and  _33
REMARK    6  A    between atoms: _38  and  _43
REMARK    7  A    between atoms: _43  and  _46
REMARK    8  A    between atoms: _53  and  _55
REMARK                            x       y       z     vdW  Elec       q    Type
REMARK                         _______ _______ _______ _____ _____    ______ ____
ROOT
ATOM     10  C   UNL     1     -14.391  54.381  -0.579  0.00  0.00    +0.038 A 
ATOM     11  C   UNL     1     -14.964  53.439  -1.471  0.00  0.00    +0.047 A 
ATOM     12  C   UNL     1     -14.269  53.031  -2.682  0.00  0.00    +0.035 A 
ATOM     32  C   UNL     1     -12.992  53.602  -2.953  0.00  0.00    +0.024 A 
ATOM     33  C   UNL     1     -12.395  54.562  -2.058  0.00  0.00    +0.007 A 
ATOM     34  C   UNL     1     -13.077  54.970  -0.863  0.00  0.00    -0.029 A 
ATOM     35  C   UNL     1     -12.393  56.008   0.057  0.00  0.00    +0.045 C 
ENDROOT
BRANCH  10   9
ATOM      4  C   UNL     1     -17.386  57.262   1.823  0.00  0.00    +0.077 A 
ATOM      5  C   UNL     1     -17.526  58.148   0.703  0.00  0.00    +0.048 A 
ATOM      6  C   UNL     1     -16.805  57.831  -0.469  0.00  0.00    +0.116 A 
ATOM      7  N   UNL     1     -16.007  56.708  -0.509  0.00  0.00    -0.223 NA
ATOM      8  C   UNL     1     -15.893  55.876   0.589  0.00  0.00    +0.220 A 
ATOM      9  N   UNL     1     -15.102  54.737   0.570  0.00  0.00    -0.283 N 
ATOM     36  H   UNL     1     -15.039  54.153   1.403  0.00  0.00    +0.155 HD
ATOM     37  N   UNL     1     -16.570  56.158   1.722  0.00  0.00    -0.214 NA
BRANCH   4   3
ATOM      1  C   UNL     1     -18.269  58.458   5.441  0.00  0.00    +0.020 A 
ATOM      2  C   UNL     1     -17.553  58.299   4.197  0.00  0.00    +0.013 A 
ATOM      3  C   UNL     1     -18.087  57.461   3.131  0.00  0.00    +0.019 A 
ATOM     38  C   UNL     1     -19.360  56.793   3.358  0.00  0.00    +0.120 A 
ATOM     39  N   UNL     1     -20.027  56.963   4.567  0.00  0.00    -0.263 NA
ATOM     40  C   UNL     1     -19.521  57.766   5.600  0.00  0.00    +0.111 A 
ENDBRANCH   4   3
ENDBRANCH  10   9
BRANCH  12  13
ATOM     13  N   UNL     1     -14.804  52.084  -3.629  0.00  0.00    -0.281 N 
ATOM     14  C   UNL     1     -14.746  50.701  -3.575  0.00  0.00    +0.248 C 
ATOM     30  O   UNL     1     -14.035  50.068  -2.809  0.00  0.00    -0.270 OA
ATOM     31  H   UNL     1     -15.284  52.481  -4.436  0.00  0.00    +0.155 HD
BRANCH  14  15
ATOM     15  C   UNL     1     -15.589  49.906  -4.519  0.00  0.00    +0.037 A 
ATOM     16  C   UNL     1     -15.409  50.008  -5.970  0.00  0.00    +0.013 A 
ATOM     17  C   UNL     1     -16.247  49.242  -6.858  0.00  0.00    +0.005 A 
ATOM     18  C   UNL     1     -17.273  48.366  -6.298  0.00  0.00    -0.033 A 
ATOM     28  C   UNL     1     -17.427  48.280  -4.855  0.00  0.00    +0.005 A 
ATOM     29  C   UNL     1     -16.608  49.030  -3.981  0.00  0.00    +0.013 A 
BRANCH  18  19
ATOM     19  C   UNL     1     -18.226  47.529  -7.171  0.00  0.00    +0.119 C 
BRANCH  19  20
ATOM     20  N   UNL     1     -19.618  48.041  -7.349  0.00  0.00    -0.302 NA
ATOM     21  C   UNL     1     -20.645  47.183  -6.604  0.00  0.00    +0.066 C 
ATOM     22  C   UNL     1     -22.093  47.746  -6.782  0.00  0.00    -0.064 C 
ATOM     23  N   UNL     1     -22.428  47.821  -8.273  0.00  0.00    +0.379 N 
ATOM     24  C   UNL     1     -23.810  48.295  -8.441  0.00  0.00    -0.096 C 
ATOM     25  H   UNL     1     -22.373  46.786  -8.684  0.00  0.00    -0.082 HD
ATOM     26  C   UNL     1     -21.410  48.670  -9.021  0.00  0.00    -0.064 C 
ATOM     27  C   UNL     1     -19.972  48.119  -8.813  0.00  0.00    +0.066 C 
ENDBRANCH  19  20
ENDBRANCH  18  19
ENDBRANCH  14  15
ENDBRANCH  12  13
TORSDOF 6
ENDMDL
MODEL 4
REMARK VINA RESULT:      -7.7      3.966      6.955
REMARK  Name = C:\Users\Docking\Desktop\test protocol\1iep_ligandH.pdb
REMARK  8 active torsions:
REMARK  status: ('A' for Active; 'I' for Inactive)
REMARK    1  A    between atoms: _5  and  _11
REMARK    2  A    between atoms: _19  and  _21
REMARK    3  A    between atoms: _22  and  _66
REMARK    4  A    between atoms: _27  and  _30
REMARK    5  A    between atoms: _32  and  _33
REMARK    6  A    between atoms: _38  and  _43
REMARK    7  A    between atoms: _43  and  _46
REMARK    8  A    between atoms: _53  and  _55
REMARK                            x       y       z     vdW  Elec       q    Type
REMARK                         _______ _______ _______ _____ _____    ______ ____
ROOT
ATOM     10  C   UNL     1     -15.200  57.479   1.317  0.00  0.00    +0.038 A 
ATOM     11  C   UNL     1     -14.347  57.152   2.401  0.00  0.00    +0.047 A 
ATOM     12  C   UNL     1     -13.121  56.398   2.194  0.00  0.00    +0.035 A 
ATOM     32  C   UNL     1     -12.792  55.995   0.866  0.00  0.00    +0.024 A 
ATOM     33  C   UNL     1     -13.648  56.318  -0.248  0.00  0.00    +0.007 A 
ATOM     34  C   UNL     1     -14.861  57.060  -0.048  0.00  0.00    -0.029 A 
ATOM     35  C   UNL     1     -15.744  57.372  -1.279  0.00  0.00    +0.045 C 
ENDROOT
BRANCH  10   9
ATOM      4  C   UNL     1     -19.891  57.746   2.298  0.00  0.00    +0.077 A 
ATOM      5  C   UNL     1     -20.038  56.319   2.270  0.00  0.00    +0.048 A 
ATOM      6  C   UNL     1     -18.884  55.553   1.992  0.00  0.00    +0.116 A 
ATOM      7  N   UNL     1     -17.678  56.178   1.762  0.00  0.00    -0.223 NA
ATOM      8  C   UNL     1     -17.570  57.556   1.795  0.00  0.00    +0.220 A 
ATOM      9  N   UNL     1     -16.366  58.205   1.574  0.00  0.00    -0.283 N 
ATOM     36  H   UNL     1     -16.330  59.224   1.599  0.00  0.00    +0.155 HD
ATOM     37  N   UNL     1     -18.658  58.310   2.056  0.00  0.00    -0.214 NA
BRANCH   4   3
ATOM      1  C   UNL     1     -21.949  60.997   3.000  0.00  0.00    +0.020 A 
ATOM      2  C   UNL     1     -20.828  60.128   2.728  0.00  0.00    +0.013 A 
ATOM      3  C   UNL     1     -21.017  58.691   2.581  0.00  0.00    +0.019 A 
ATOM     38  C   UNL     1     -22.366  58.160   2.715  0.00  0.00    +0.120 A 
ATOM     39  N   UNL     1     -23.427  59.021   2.979  0.00  0.00    -0.263 NA
ATOM     40  C   UNL     1     -23.256  60.406   3.124  0.00  0.00    +0.111 A 
ENDBRANCH   4   3
ENDBRANCH  10   9
BRANCH  12  13
ATOM     13  N   UNL     1     -12.219  56.030   3.257  0.00  0.00    -0.281 N 
ATOM     14  C   UNL     1     -12.094  54.799   3.880  0.00  0.00    +0.248 C 
ATOM     30  O   UNL     1     -12.891  53.880   3.760  0.00  0.00    -0.270 OA
ATOM     31  H   UNL     1     -11.598  56.767   3.592  0.00  0.00    +0.155 HD
BRANCH  14  15
ATOM     15  C   UNL     1     -10.922  54.559   4.775  0.00  0.00    +0.037 A 
ATOM     16  C   UNL     1     -10.419  55.607   5.666  0.00  0.00    +0.013 A 
ATOM     17  C   UNL     1      -9.276  55.354   6.507  0.00  0.00    +0.005 A 
ATOM     18  C   UNL     1      -8.629  54.045   6.462  0.00  0.00    -0.033 A 
ATOM     28  C   UNL     1      -9.153  53.021   5.573  0.00  0.00    +0.005 A 
ATOM     29  C   UNL     1     -10.272  53.266   4.747  0.00  0.00    +0.013 A 
BRANCH  18  19
ATOM     19  C   UNL     1      -7.392  53.694   7.309  0.00  0.00    +0.119 C 
BRANCH  19  20
ATOM     20  N   UNL     1      -6.150  54.487   7.067  0.00  0.00    -0.302 NA
ATOM     21  C   UNL     1      -5.901  54.723   5.574  0.00  0.00    +0.066 C 
ATOM     22  C   UNL     1      -4.610  55.573   5.339  0.00  0.00    -0.064 C 
ATOM     23  N   UNL     1      -3.415  54.868   5.982  0.00  0.00    +0.379 N 
ATOM     24  C   UNL     1      -2.190  55.635   5.714  0.00  0.00    -0.096 C 
ATOM     25  H   UNL     1      -3.306  53.873   5.491  0.00  0.00    -0.082 HD
ATOM     26  C   UNL     1      -3.654  54.626   7.466  0.00  0.00    -0.064 C 
ATOM     27  C   UNL     1      -4.956  53.806   7.689  0.00  0.00    +0.066 C 
ENDBRANCH  19  20
ENDBRANCH  18  19
ENDBRANCH  14  15
ENDBRANCH  12  13
TORSDOF 6
ENDMDL
MODEL 5
REMARK VINA RESULT:      -7.5      3.741      6.702
REMARK  Name = C:\Users\Docking\Desktop\test protocol\1iep_ligandH.pdb
REMARK  8 active torsions:
REMARK  status: ('A' for Active; 'I' for Inactive)
REMARK    1  A    between atoms: _5  and  _11
REMARK    2  A    between atoms: _19  and  _21
REMARK    3  A    between atoms: _22  and  _66
REMARK    4  A    between atoms: _27  and  _30
REMARK    5  A    between atoms: _32  and  _33
REMARK    6  A    between atoms: _38  and  _43
REMARK    7  A    between atoms: _43  and  _46
REMARK    8  A    between atoms: _53  and  _55
REMARK                            x       y       z     vdW  Elec       q    Type
REMARK                         _______ _______ _______ _____ _____    ______ ____
ROOT
ATOM     10  C   UNL     1     -15.235  57.477   1.168  0.00  0.00    +0.038 A 
ATOM     11  C   UNL     1     -14.352  57.155   2.230  0.00  0.00    +0.047 A 
ATOM     12  C   UNL     1     -13.131  56.401   1.991  0.00  0.00    +0.035 A 
ATOM     32  C   UNL     1     -12.839  55.993   0.657  0.00  0.00    +0.024 A 
ATOM     33  C   UNL     1     -13.726  56.311  -0.434  0.00  0.00    +0.007 A 
ATOM     34  C   UNL     1     -14.933  57.052  -0.204  0.00  0.00    -0.029 A 
ATOM     35  C   UNL     1     -15.850  57.359  -1.411  0.00  0.00    +0.045 C 
ENDROOT
BRANCH  10   9
ATOM      4  C   UNL     1     -19.905  57.747   2.244  0.00  0.00    +0.077 A 
ATOM      5  C   UNL     1     -20.056  56.321   2.206  0.00  0.00    +0.048 A 
ATOM      6  C   UNL     1     -18.910  55.555   1.899  0.00  0.00    +0.116 A 
ATOM      7  N   UNL     1     -17.706  56.178   1.650  0.00  0.00    -0.223 NA
ATOM      8  C   UNL     1     -17.595  57.556   1.693  0.00  0.00    +0.220 A 
ATOM      9  N   UNL     1     -16.393  58.204   1.454  0.00  0.00    -0.283 N 
ATOM     36  H   UNL     1     -16.354  59.222   1.488  0.00  0.00    +0.155 HD
ATOM     37  N   UNL     1     -18.675  58.310   1.983  0.00  0.00    -0.214 NA
BRANCH   4   3
ATOM      1  C   UNL     1     -21.940  60.997   3.015  0.00  0.00    +0.020 A 
ATOM      2  C   UNL     1     -20.826  60.128   2.714  0.00  0.00    +0.013 A 
ATOM      3  C   UNL     1     -21.023  58.692   2.557  0.00  0.00    +0.019 A 
ATOM     38  C   UNL     1     -22.370  58.164   2.712  0.00  0.00    +0.120 A 
ATOM     39  N   UNL     1     -23.423  59.025   3.004  0.00  0.00    -0.263 NA
ATOM     40  C   UNL     1     -23.245  60.408   3.159  0.00  0.00    +0.111 A 
ENDBRANCH   4   3
ENDBRANCH  10   9
BRANCH  12  13
ATOM     13  N   UNL     1     -12.201  56.038   3.031  0.00  0.00    -0.281 N 
ATOM     14  C   UNL     1     -12.171  54.871   3.778  0.00  0.00    +0.248 C 
ATOM     30  O   UNL     1     -13.075  54.050   3.813  0.00  0.00    -0.270 OA
ATOM     31  H   UNL     1     -11.476  56.723   3.242  0.00  0.00    +0.155 HD
BRANCH  14  15
ATOM     15  C   UNL     1     -10.971  54.583   4.620  0.00  0.00    +0.037 A 
ATOM     16  C   UNL     1     -10.342  53.260   4.620  0.00  0.00    +0.013 A 
ATOM     17  C   UNL     1      -9.195  53.004   5.455  0.00  0.00    +0.005 A 
ATOM     18  C   UNL     1      -8.668  54.075   6.296  0.00  0.00    -0.033 A 
ATOM     28  C   UNL     1      -9.307  55.381   6.272  0.00  0.00    +0.005 A 
ATOM     29  C   UNL     1     -10.432  55.635   5.456  0.00  0.00    +0.013 A 
BRANCH  18  19
ATOM     19  C   UNL     1      -7.460  53.886   7.233  0.00  0.00    +0.119 C 
BRANCH  19  20
ATOM     20  N   UNL     1      -6.785  55.119   7.736  0.00  0.00    -0.302 NA
ATOM     21  C   UNL     1      -5.400  55.311   7.112  0.00  0.00    +0.066 C 
ATOM     22  C   UNL     1      -4.717  56.617   7.632  0.00  0.00    -0.064 C 
ATOM     23  N   UNL     1      -4.621  56.567   9.158  0.00  0.00    +0.379 N 
ATOM     24  C   UNL     1      -3.927  57.767   9.646  0.00  0.00    -0.096 C 
ATOM     25  H   UNL     1      -3.998  55.682   9.428  0.00  0.00    -0.082 HD
ATOM     26  C   UNL     1      -5.993  56.373   9.786  0.00  0.00    -0.064 C 
ATOM     27  C   UNL     1      -6.676  55.088   9.241  0.00  0.00    +0.066 C 
ENDBRANCH  19  20
ENDBRANCH  18  19
ENDBRANCH  14  15
ENDBRANCH  12  13
TORSDOF 6
ENDMDL
