MODEL 1
REMARK VINA RESULT:      -7.8      0.000      0.000
REMARK  Name = C:\Users\Docking\Desktop\test protocol\1iep_ligandH.pdb
REMARK  8 active torsions:
REMARK  status: ('A' for Active; 'I' for Inactive)
REMARK    1  A    between atoms: _5  and  _11
REMARK    2  A    between atoms: _19  and  _21
REMARK    3  A    between atoms: _22  and  _66
REMARK    4  A    between atoms: _27  and  _30
REMARK    5  A    between atoms: _32  and  _33
REMARK    6  A    between atoms: _38  and  _43
REMARK    7  A    between atoms: _43  and  _46
REMARK    8  A    between atoms: _53  and  _55
REMARK                            x       y       z     vdW  Elec       q    Type
REMARK                         _______ _______ _______ _____ _____    ______ ____
ROOT
ATOM     10  C   UNL     1     -14.183  55.987   2.397  0.00  0.00    +0.038 A 
ATOM     11  C   UNL     1     -12.973  56.146   3.120  0.00  0.00    +0.047 A 
ATOM     12  C   UNL     1     -12.703  57.358   3.877  0.00  0.00    +0.035 A 
ATOM     32  C   UNL     1     -13.689  58.388   3.879  0.00  0.00    +0.024 A 
ATOM     33  C   UNL     1     -14.924  58.243   3.148  0.00  0.00    +0.007 A 
ATOM     34  C   UNL     1     -15.195  57.051   2.397  0.00  0.00    -0.029 A 
ATOM     35  C   UNL     1     -16.533  56.953   1.628  0.00  0.00    +0.045 C 
ENDROOT
BRANCH  10   9
ATOM      4  C   UNL     1     -13.601  53.220  -1.482  0.00  0.00    +0.077 A 
ATOM      5  C   UNL     1     -12.842  54.230  -2.161  0.00  0.00    +0.048 A 
ATOM      6  C   UNL     1     -12.630  55.450  -1.481  0.00  0.00    +0.116 A 
ATOM      7  N   UNL     1     -13.143  55.635  -0.215  0.00  0.00    -0.223 NA
ATOM      8  C   UNL     1     -13.872  54.641   0.411  0.00  0.00    +0.220 A 
ATOM      9  N   UNL     1     -14.390  54.803   1.687  0.00  0.00    -0.283 N 
ATOM     36  H   UNL     1     -14.929  54.048   2.111  0.00  0.00    +0.155 HD
ATOM     37  N   UNL     1     -14.090  53.467  -0.218  0.00  0.00    -0.214 NA
BRANCH   4   3
ATOM      1  C   UNL     1     -15.137  50.363  -3.668  0.00  0.00    +0.020 A 
ATOM      2  C   UNL     1     -14.879  51.681  -3.136  0.00  0.00    +0.013 A 
ATOM      3  C   UNL     1     -13.907  51.877  -2.068  0.00  0.00    +0.019 A 
ATOM     38  C   UNL     1     -13.207  50.708  -1.556  0.00  0.00    +0.120 A 
ATOM     39  N   UNL     1     -13.477  49.451  -2.086  0.00  0.00    -0.263 NA
ATOM     40  C   UNL     1     -14.411  49.250  -3.113  0.00  0.00    +0.111 A 
ENDBRANCH   4   3
ENDBRANCH  10   9
BRANCH  12  13
ATOM     13  N   UNL     1     -11.490  57.580   4.624  0.00  0.00    -0.281 N 
ATOM     14  C   UNL     1     -11.227  57.242   5.941  0.00  0.00    +0.248 C 
ATOM     30  O   UNL     1     -12.075  56.889   6.746  0.00  0.00    -0.270 OA
ATOM     31  H   UNL     1     -10.732  58.041   4.119  0.00  0.00    +0.155 HD
BRANCH  14  15
ATOM     15  C   UNL     1      -9.820  57.323   6.440  0.00  0.00    +0.037 A 
ATOM     16  C   UNL     1      -9.468  58.166   7.586  0.00  0.00    +0.013 A 
ATOM     17  C   UNL     1      -8.101  58.239   8.037  0.00  0.00    +0.005 A 
ATOM     18  C   UNL     1      -7.075  57.465   7.341  0.00  0.00    -0.033 A 
ATOM     28  C   UNL     1      -7.453  56.634   6.210  0.00  0.00    +0.005 A 
ATOM     29  C   UNL     1      -8.792  56.561   5.765  0.00  0.00    +0.013 A 
BRANCH  18  19
ATOM     19  C   UNL     1      -5.588  57.500   7.740  0.00  0.00    +0.119 C 
BRANCH  19  20
ATOM     20  N   UNL     1      -5.198  56.780   8.989  0.00  0.00    -0.302 NA
ATOM     21  C   UNL     1      -5.219  57.701  10.212  0.00  0.00    +0.066 C 
ATOM     22  C   UNL     1      -4.830  56.927  11.514  0.00  0.00    -0.064 C 
ATOM     23  N   UNL     1      -3.449  56.295  11.335  0.00  0.00    +0.379 N 
ATOM     24  C   UNL     1      -3.056  55.615  12.578  0.00  0.00    -0.096 C 
ATOM     25  H   UNL     1      -2.721  57.120  11.156  0.00  0.00    -0.082 HD
ATOM     26  C   UNL     1      -3.419  55.380  10.120  0.00  0.00    -0.064 C 
ATOM     27  C   UNL     1      -3.835  56.152   8.836  0.00  0.00    +0.066 C 
ENDBRANCH  19  20
ENDBRANCH  18  19
ENDBRANCH  14  15
ENDBRANCH  12  13
TORSDOF 6
ENDMDL
MODEL 2
REMARK VINA RESULT:      -7.6      3.360      5.932
REMARK  Name = C:\Users\Docking\Desktop\test protocol\1iep_ligandH.pdb
REMARK  8 active torsions:
REMARK  status: ('A' for Active; 'I' for Inactive)
REMARK    1  A    between atoms: _5  and  _11
REMARK    2  A    between atoms: _19  and  _21
REMARK    3  A    between atoms: _22  and  _66
REMARK    4  A    between atoms: _27  and  _30
REMARK    5  A    between atoms: _32  and  _33
REMARK    6  A    between atoms: _38  and  _43
REMARK    7  A    between atoms: _43  and  _46
REMARK    8  A    between atoms: _53  and  _55
REMARK                            x       y       z     vdW  Elec       q    Type
REMARK                         _______ _______ _______ _____ _____    ______ ____
ROOT
ATOM     10  C   UNL     1     -15.503  55.351   1.750  0.00  0.00    +0.038 A 
ATOM     11  C   UNL     1     -14.632  55.841   2.756  0.00  0.00    +0.047 A 
ATOM     12  C   UNL     1     -13.197  55.921   2.537  0.00  0.00    +0.035 A 
ATOM     32  C   UNL     1     -12.681  55.495   1.278  0.00  0.00    +0.024 A 
ATOM     33  C   UNL     1     -13.551  54.992   0.244  0.00  0.00    +0.007 A 
ATOM     34  C   UNL     1     -14.968  54.909   0.456  0.00  0.00    -0.029 A 
ATOM     35  C   UNL     1     -15.852  54.356  -0.686  0.00  0.00    +0.045 C 
ENDROOT
BRANCH  10   9
ATOM      4  C   UNL     1     -19.886  57.305   1.793  0.00  0.00    +0.077 A 
ATOM      5  C   UNL     1     -19.401  58.549   1.269  0.00  0.00    +0.048 A 
ATOM      6  C   UNL     1     -18.016  58.648   1.008  0.00  0.00    +0.116 A 
ATOM      7  N   UNL     1     -17.187  57.575   1.257  0.00  0.00    -0.223 NA
ATOM      8  C   UNL     1     -17.687  56.390   1.764  0.00  0.00    +0.220 A 
ATOM      9  N   UNL     1     -16.873  55.296   2.014  0.00  0.00    -0.283 N 
ATOM     36  H   UNL     1     -17.279  54.442   2.396  0.00  0.00    +0.155 HD
ATOM     37  N   UNL     1     -19.006  56.271   2.023  0.00  0.00    -0.214 NA
BRANCH   4   3
ATOM      1  C   UNL     1     -23.320  55.523   2.367  0.00  0.00    +0.020 A 
ATOM      2  C   UNL     1     -21.926  55.720   2.044  0.00  0.00    +0.013 A 
ATOM      3  C   UNL     1     -21.325  57.045   2.116  0.00  0.00    +0.019 A 
ATOM     38  C   UNL     1     -22.168  58.160   2.521  0.00  0.00    +0.120 A 
ATOM     39  N   UNL     1     -23.508  57.940   2.825  0.00  0.00    -0.263 NA
ATOM     40  C   UNL     1     -24.098  56.669   2.758  0.00  0.00    +0.111 A 
ENDBRANCH   4   3
ENDBRANCH  10   9
BRANCH  12  13
ATOM     13  N   UNL     1     -12.263  56.402   3.525  0.00  0.00    -0.281 N 
ATOM     14  C   UNL     1     -12.293  57.607   4.209  0.00  0.00    +0.248 C 
ATOM     30  O   UNL     1     -13.014  58.549   3.918  0.00  0.00    -0.270 OA
ATOM     31  H   UNL     1     -11.486  55.780   3.747  0.00  0.00    +0.155 HD
BRANCH  14  15
ATOM     15  C   UNL     1     -11.380  57.796   5.377  0.00  0.00    +0.037 A 
ATOM     16  C   UNL     1     -11.577  58.896   6.325  0.00  0.00    +0.013 A 
ATOM     17  C   UNL     1     -10.671  59.066   7.433  0.00  0.00    +0.005 A 
ATOM     18  C   UNL     1      -9.560  58.133   7.600  0.00  0.00    -0.033 A 
ATOM     28  C   UNL     1      -9.391  57.048   6.647  0.00  0.00    +0.005 A 
ATOM     29  C   UNL     1     -10.276  56.878   5.559  0.00  0.00    +0.013 A 
BRANCH  18  19
ATOM     19  C   UNL     1      -8.532  58.251   8.741  0.00  0.00    +0.119 C 
BRANCH  19  20
ATOM     20  N   UNL     1      -7.344  57.348   8.688  0.00  0.00    -0.302 NA
ATOM     21  C   UNL     1      -7.061  56.690  10.041  0.00  0.00    +0.066 C 
ATOM     22  C   UNL     1      -5.829  55.732   9.961  0.00  0.00    -0.064 C 
ATOM     23  N   UNL     1      -4.608  56.515   9.474  0.00  0.00    +0.379 N 
ATOM     24  C   UNL     1      -3.434  55.630   9.453  0.00  0.00    -0.096 C 
ATOM     25  H   UNL     1      -4.409  57.324  10.214  0.00  0.00    -0.082 HD
ATOM     26  C   UNL     1      -4.882  57.174   8.130  0.00  0.00    -0.064 C 
ATOM     27  C   UNL     1      -6.126  58.102   8.213  0.00  0.00    +0.066 C 
ENDBRANCH  19  20
ENDBRANCH  18  19
ENDBRANCH  14  15
ENDBRANCH  12  13
TORSDOF 6
ENDMDL
MODEL 3
REMARK VINA RESULT:      -7.6      1.496      2.017
REMARK  Name = C:\Users\Docking\Desktop\test protocol\1iep_ligandH.pdb
REMARK  8 active torsions:
REMARK  status: ('A' for Active; 'I' for Inactive)
REMARK    1  A    between atoms: _5  and  _11
REMARK    2  A    between atoms: _19  and  _21
REMARK    3  A    between atoms: _22  and  _66
REMARK    4  A    between atoms: _27  and  _30
REMARK    5  A    between atoms: _32  and  _33
REMARK    6  A    between atoms: _38  and  _43
REMARK    7  A    between atoms: _43  and  _46
REMARK    8  A    between atoms: _53  and  _55
REMARK                            x       y       z     vdW  Elec       q    Type
REMARK                         _______ _______ _______ _____ _____    ______ ____
ROOT
ATOM     10  C   UNL     1     -14.987  56.178   1.975  0.00  0.00    +0.038 A 
ATOM     11  C   UNL     1     -13.842  56.368   2.791  0.00  0.00    +0.047 A 
ATOM     12  C   UNL     1     -13.642  57.605   3.530  0.00  0.00    +0.035 A 
ATOM     32  C   UNL     1     -14.630  58.626   3.418  0.00  0.00    +0.024 A 
ATOM     33  C   UNL     1     -15.799  58.450   2.592  0.00  0.00    +0.007 A 
ATOM     34  C   UNL     1     -16.000  57.234   1.859  0.00  0.00    -0.029 A 
ATOM     35  C   UNL     1     -17.269  57.102   0.984  0.00  0.00    +0.045 C 
ENDROOT
BRANCH  10   9
ATOM      4  C   UNL     1     -13.841  53.181  -1.595  0.00  0.00    +0.077 A 
ATOM      5  C   UNL     1     -12.900  54.110  -2.152  0.00  0.00    +0.048 A 
ATOM      6  C   UNL     1     -12.746  55.351  -1.493  0.00  0.00    +0.116 A 
ATOM      7  N   UNL     1     -13.482  55.631  -0.363  0.00  0.00    -0.223 NA
ATOM      8  C   UNL     1     -14.383  54.713   0.147  0.00  0.00    +0.220 A 
ATOM      9  N   UNL     1     -15.128  54.971   1.287  0.00  0.00    -0.283 N 
ATOM     36  H   UNL     1     -15.787  54.271   1.627  0.00  0.00    +0.155 HD
ATOM     37  N   UNL     1     -14.549  53.522  -0.464  0.00  0.00    -0.214 NA
BRANCH   4   3
ATOM      1  C   UNL     1     -13.795  49.327  -2.260  0.00  0.00    +0.020 A 
ATOM      2  C   UNL     1     -13.498  50.609  -1.664  0.00  0.00    +0.013 A 
ATOM      3  C   UNL     1     -14.113  51.828  -2.175  0.00  0.00    +0.019 A 
ATOM     38  C   UNL     1     -15.032  51.714  -3.297  0.00  0.00    +0.120 A 
ATOM     39  N   UNL     1     -15.298  50.466  -3.851  0.00  0.00    -0.263 NA
ATOM     40  C   UNL     1     -14.711  49.286  -3.369  0.00  0.00    +0.111 A 
ENDBRANCH   4   3
ENDBRANCH  10   9
BRANCH  12  13
ATOM     13  N   UNL     1     -12.496  57.858   4.368  0.00  0.00    -0.281 N 
ATOM     14  C   UNL     1     -12.378  57.658   5.733  0.00  0.00    +0.248 C 
ATOM     30  O   UNL     1     -13.317  57.430   6.482  0.00  0.00    -0.270 OA
ATOM     31  H   UNL     1     -11.671  58.230   3.896  0.00  0.00    +0.155 HD
BRANCH  14  15
ATOM     15  C   UNL     1     -11.024  57.736   6.361  0.00  0.00    +0.037 A 
ATOM     16  C   UNL     1     -10.721  58.731   7.393  0.00  0.00    +0.013 A 
ATOM     17  C   UNL     1      -9.402  58.797   7.969  0.00  0.00    +0.005 A 
ATOM     18  C   UNL     1      -8.375  57.862   7.515  0.00  0.00    -0.033 A 
ATOM     28  C   UNL     1      -8.704  56.882   6.494  0.00  0.00    +0.005 A 
ATOM     29  C   UNL     1      -9.996  56.815   5.926  0.00  0.00    +0.013 A 
BRANCH  18  19
ATOM     19  C   UNL     1      -6.934  57.873   8.059  0.00  0.00    +0.119 C 
BRANCH  19  20
ATOM     20  N   UNL     1      -6.035  56.757   7.639  0.00  0.00    -0.302 NA
ATOM     21  C   UNL     1      -5.185  56.235   8.801  0.00  0.00    +0.066 C 
ATOM     22  C   UNL     1      -4.268  55.053   8.349  0.00  0.00    -0.064 C 
ATOM     23  N   UNL     1      -3.379  55.514   7.192  0.00  0.00    +0.379 N 
ATOM     24  C   UNL     1      -2.474  54.423   6.803  0.00  0.00    -0.096 C 
ATOM     25  H   UNL     1      -2.752  56.358   7.564  0.00  0.00    -0.082 HD
ATOM     26  C   UNL     1      -4.216  56.037   6.034  0.00  0.00    -0.064 C 
ATOM     27  C   UNL     1      -5.146  57.192   6.500  0.00  0.00    +0.066 C 
ENDBRANCH  19  20
ENDBRANCH  18  19
ENDBRANCH  14  15
ENDBRANCH  12  13
TORSDOF 6
ENDMDL
MODEL 4
REMARK VINA RESULT:      -7.5      3.533      6.125
REMARK  Name = C:\Users\Docking\Desktop\test protocol\1iep_ligandH.pdb
REMARK  8 active torsions:
REMARK  status: ('A' for Active; 'I' for Inactive)
REMARK    1  A    between atoms: _5  and  _11
REMARK    2  A    between atoms: _19  and  _21
REMARK    3  A    between atoms: _22  and  _66
REMARK    4  A    between atoms: _27  and  _30
REMARK    5  A    between atoms: _32  and  _33
REMARK    6  A    between atoms: _38  and  _43
REMARK    7  A    between atoms: _43  and  _46
REMARK    8  A    between atoms: _53  and  _55
REMARK                            x       y       z     vdW  Elec       q    Type
REMARK                         _______ _______ _______ _____ _____    ______ ____
ROOT
ATOM     10  C   UNL     1     -15.479  55.258   1.551  0.00  0.00    +0.038 A 
ATOM     11  C   UNL     1     -14.577  55.556   2.605  0.00  0.00    +0.047 A 
ATOM     12  C   UNL     1     -13.142  55.613   2.374  0.00  0.00    +0.035 A 
ATOM     32  C   UNL     1     -12.659  55.365   1.056  0.00  0.00    +0.024 A 
ATOM     33  C   UNL     1     -13.561  55.060  -0.027  0.00  0.00    +0.007 A 
ATOM     34  C   UNL     1     -14.978  54.999   0.196  0.00  0.00    -0.029 A 
ATOM     35  C   UNL     1     -15.897  54.661  -1.001  0.00  0.00    +0.045 C 
ENDROOT
BRANCH  10   9
ATOM      4  C   UNL     1     -19.814  57.303   1.788  0.00  0.00    +0.077 A 
ATOM      5  C   UNL     1     -19.306  58.570   1.347  0.00  0.00    +0.048 A 
ATOM      6  C   UNL     1     -17.922  58.655   1.076  0.00  0.00    +0.116 A 
ATOM      7  N   UNL     1     -17.116  57.549   1.238  0.00  0.00    -0.223 NA
ATOM      8  C   UNL     1     -17.638  56.343   1.667  0.00  0.00    +0.220 A 
ATOM      9  N   UNL     1     -16.847  55.216   1.829  0.00  0.00    -0.283 N 
ATOM     36  H   UNL     1     -17.268  54.346   2.154  0.00  0.00    +0.155 HD
ATOM     37  N   UNL     1     -18.956  56.236   1.933  0.00  0.00    -0.214 NA
BRANCH   4   3
ATOM      1  C   UNL     1     -23.257  55.543   2.379  0.00  0.00    +0.020 A 
ATOM      2  C   UNL     1     -21.861  55.729   2.058  0.00  0.00    +0.013 A 
ATOM      3  C   UNL     1     -21.255  57.054   2.111  0.00  0.00    +0.019 A 
ATOM     38  C   UNL     1     -22.095  58.177   2.497  0.00  0.00    +0.120 A 
ATOM     39  N   UNL     1     -23.437  57.967   2.800  0.00  0.00    -0.263 NA
ATOM     40  C   UNL     1     -24.032  56.698   2.751  0.00  0.00    +0.111 A 
ENDBRANCH   4   3
ENDBRANCH  10   9
BRANCH  12  13
ATOM     13  N   UNL     1     -12.179  55.903   3.407  0.00  0.00    -0.281 N 
ATOM     14  C   UNL     1     -11.935  55.189   4.569  0.00  0.00    +0.248 C 
ATOM     30  O   UNL     1     -12.660  54.306   5.002  0.00  0.00    -0.270 OA
ATOM     31  H   UNL     1     -11.607  56.735   3.264  0.00  0.00    +0.155 HD
BRANCH  14  15
ATOM     15  C   UNL     1     -10.717  55.512   5.373  0.00  0.00    +0.037 A 
ATOM     16  C   UNL     1     -10.415  56.888   5.775  0.00  0.00    +0.013 A 
ATOM     17  C   UNL     1      -9.225  57.175   6.536  0.00  0.00    +0.005 A 
ATOM     18  C   UNL     1      -8.327  56.081   6.901  0.00  0.00    -0.033 A 
ATOM     28  C   UNL     1      -8.654  54.724   6.493  0.00  0.00    +0.005 A 
ATOM     29  C   UNL     1      -9.819  54.440   5.746  0.00  0.00    +0.013 A 
BRANCH  18  19
ATOM     19  C   UNL     1      -7.024  56.297   7.693  0.00  0.00    +0.119 C 
BRANCH  19  20
ATOM     20  N   UNL     1      -5.790  55.638   7.171  0.00  0.00    -0.302 NA
ATOM     21  C   UNL     1      -4.631  55.717   8.169  0.00  0.00    +0.066 C 
ATOM     22  C   UNL     1      -3.355  55.003   7.617  0.00  0.00    -0.064 C 
ATOM     23  N   UNL     1      -2.961  55.631   6.279  0.00  0.00    +0.379 N 
ATOM     24  C   UNL     1      -1.728  55.001   5.786  0.00  0.00    -0.096 C 
ATOM     25  H   UNL     1      -2.740  56.708   6.464  0.00  0.00    -0.082 HD
ATOM     26  C   UNL     1      -4.108  55.559   5.282  0.00  0.00    -0.064 C 
ATOM     27  C   UNL     1      -5.380  56.246   5.852  0.00  0.00    +0.066 C 
ENDBRANCH  19  20
ENDBRANCH  18  19
ENDBRANCH  14  15
ENDBRANCH  12  13
TORSDOF 6
ENDMDL
MODEL 5
REMARK VINA RESULT:      -7.5      2.329     13.002
REMARK  Name = C:\Users\Docking\Desktop\test protocol\1iep_ligandH.pdb
REMARK  8 active torsions:
REMARK  status: ('A' for Active; 'I' for Inactive)
REMARK    1  A    between atoms: _5  and  _11
REMARK    2  A    between atoms: _19  and  _21
REMARK    3  A    between atoms: _22  and  _66
REMARK    4  A    between atoms: _27  and  _30
REMARK    5  A    between atoms: _32  and  _33
REMARK    6  A    between atoms: _38  and  _43
REMARK    7  A    between atoms: _43  and  _46
REMARK    8  A    between atoms: _53  and  _55
REMARK                            x       y       z     vdW  Elec       q    Type
REMARK                         _______ _______ _______ _____ _____    ______ ____
ROOT
ATOM     10  C   UNL     1     -12.612  57.025   3.729  0.00  0.00    +0.038 A 
ATOM     11  C   UNL     1     -12.729  56.049   2.706  0.00  0.00    +0.047 A 
ATOM     12  C   UNL     1     -14.019  55.730   2.115  0.00  0.00    +0.035 A 
ATOM     32  C   UNL     1     -15.169  56.427   2.587  0.00  0.00    +0.024 A 
ATOM     33  C   UNL     1     -15.069  57.421   3.626  0.00  0.00    +0.007 A 
ATOM     34  C   UNL     1     -13.799  57.738   4.215  0.00  0.00    -0.029 A 
ATOM     35  C   UNL     1     -13.751  58.808   5.331  0.00  0.00    +0.045 C 
ENDROOT
BRANCH  10   9
ATOM      4  C   UNL     1      -8.963  56.017   6.680  0.00  0.00    +0.077 A 
ATOM      5  C   UNL     1      -9.642  54.878   7.226  0.00  0.00    +0.048 A 
ATOM      6  C   UNL     1     -10.932  54.590   6.726  0.00  0.00    +0.116 A 
ATOM      7  N   UNL     1     -11.490  55.388   5.751  0.00  0.00    -0.223 NA
ATOM      8  C   UNL     1     -10.809  56.481   5.247  0.00  0.00    +0.220 A 
ATOM      9  N   UNL     1     -11.348  57.292   4.261  0.00  0.00    -0.283 N 
ATOM     36  H   UNL     1     -10.817  58.093   3.921  0.00  0.00    +0.155 HD
ATOM     37  N   UNL     1      -9.577  56.778   5.709  0.00  0.00    -0.214 NA
BRANCH   4   3
ATOM      1  C   UNL     1      -5.290  57.361   6.629  0.00  0.00    +0.020 A 
ATOM      2  C   UNL     1      -6.598  56.957   6.168  0.00  0.00    +0.013 A 
ATOM      3  C   UNL     1      -7.593  56.449   7.103  0.00  0.00    +0.019 A 
ATOM     38  C   UNL     1      -7.230  56.362   8.510  0.00  0.00    +0.120 A 
ATOM     39  N   UNL     1      -5.962  56.757   8.925  0.00  0.00    -0.263 NA
ATOM     40  C   UNL     1      -4.996  57.246   8.033  0.00  0.00    +0.111 A 
ENDBRANCH   4   3
ENDBRANCH  10   9
BRANCH  12  13
ATOM     13  N   UNL     1     -14.200  54.743   1.080  0.00  0.00    -0.281 N 
ATOM     14  C   UNL     1     -13.613  54.707  -0.175  0.00  0.00    +0.248 C 
ATOM     30  O   UNL     1     -13.004  55.637  -0.680  0.00  0.00    -0.270 OA
ATOM     31  H   UNL     1     -14.839  53.978   1.298  0.00  0.00    +0.155 HD
BRANCH  14  15
ATOM     15  C   UNL     1     -13.733  53.461  -0.992  0.00  0.00    +0.037 A 
ATOM     16  C   UNL     1     -12.898  52.289  -0.718  0.00  0.00    +0.013 A 
ATOM     17  C   UNL     1     -13.022  51.106  -1.533  0.00  0.00    +0.005 A 
ATOM     18  C   UNL     1     -13.988  51.090  -2.629  0.00  0.00    -0.033 A 
ATOM     28  C   UNL     1     -14.808  52.264  -2.875  0.00  0.00    +0.005 A 
ATOM     29  C   UNL     1     -14.688  53.426  -2.079  0.00  0.00    +0.013 A 
BRANCH  18  19
ATOM     19  C   UNL     1     -14.173  49.879  -3.563  0.00  0.00    +0.119 C 
BRANCH  19  20
ATOM     20  N   UNL     1     -15.534  49.659  -4.136  0.00  0.00    -0.302 NA
ATOM     21  C   UNL     1     -16.205  48.409  -3.559  0.00  0.00    +0.066 C 
ATOM     22  C   UNL     1     -17.637  48.207  -4.152  0.00  0.00    -0.064 C 
ATOM     23  N   UNL     1     -17.547  48.118  -5.677  0.00  0.00    +0.379 N 
ATOM     24  C   UNL     1     -18.884  47.870  -6.234  0.00  0.00    -0.096 C 
ATOM     25  H   UNL     1     -16.907  47.239  -5.927  0.00  0.00    -0.082 HD
ATOM     26  C   UNL     1     -16.878  49.355  -6.259  0.00  0.00    -0.064 C 
ATOM     27  C   UNL     1     -15.467  49.564  -5.640  0.00  0.00    +0.066 C 
ENDBRANCH  19  20
ENDBRANCH  18  19
ENDBRANCH  14  15
ENDBRANCH  12  13
TORSDOF 6
ENDMDL
