MODEL 1
REMARK VINA RESULT:      -9.2      0.000      0.000
REMARK  Name = C:\Users\Docking\Desktop\test protocol\1iep_ligandH.pdb
REMARK  8 active torsions:
REMARK  status: ('A' for Active; 'I' for Inactive)
REMARK    1  A    between atoms: _5  and  _11
REMARK    2  A    between atoms: _19  and  _21
REMARK    3  A    between atoms: _22  and  _66
REMARK    4  A    between atoms: _27  and  _30
REMARK    5  A    between atoms: _32  and  _33
REMARK    6  A    between atoms: _38  and  _43
REMARK    7  A    between atoms: _43  and  _46
REMARK    8  A    between atoms: _53  and  _55
REMARK                            x       y       z     vdW  Elec       q    Type
REMARK                         _______ _______ _______ _____ _____    ______ ____
ROOT
ATOM     10  C   UNL     1      10.376  26.123  20.129  0.00  0.00    +0.038 A 
ATOM     11  C   UNL     1       9.788  27.354  19.740  0.00  0.00    +0.047 A 
ATOM     12  C   UNL     1       8.718  27.956  20.520  0.00  0.00    +0.035 A 
ATOM     32  C   UNL     1       8.273  27.279  21.692  0.00  0.00    +0.024 A 
ATOM     33  C   UNL     1       8.858  26.026  22.101  0.00  0.00    +0.007 A 
ATOM     34  C   UNL     1       9.912  25.426  21.335  0.00  0.00    -0.029 A 
ATOM     35  C   UNL     1      10.499  24.079  21.817  0.00  0.00    +0.045 C 
ENDROOT
BRANCH  10   9
ATOM      4  C   UNL     1      12.030  23.003  16.878  0.00  0.00    +0.077 A 
ATOM      5  C   UNL     1      10.752  22.363  16.755  0.00  0.00    +0.048 A 
ATOM      6  C   UNL     1       9.697  22.863  17.551  0.00  0.00    +0.116 A 
ATOM      7  N   UNL     1       9.915  23.924  18.403  0.00  0.00    -0.223 NA
ATOM      8  C   UNL     1      11.160  24.517  18.499  0.00  0.00    +0.220 A 
ATOM      9  N   UNL     1      11.400  25.590  19.343  0.00  0.00    -0.283 N 
ATOM     36  H   UNL     1      12.335  25.995  19.390  0.00  0.00    +0.155 HD
ATOM     37  N   UNL     1      12.185  24.057  17.750  0.00  0.00    -0.214 NA
BRANCH   4   3
ATOM      1  C   UNL     1      14.369  21.626  14.062  0.00  0.00    +0.020 A 
ATOM      2  C   UNL     1      13.168  22.005  14.769  0.00  0.00    +0.013 A 
ATOM      3  C   UNL     1      13.242  22.592  16.101  0.00  0.00    +0.019 A 
ATOM     38  C   UNL     1      14.557  22.784  16.693  0.00  0.00    +0.120 A 
ATOM     39  N   UNL     1      15.697  22.407  15.989  0.00  0.00    -0.263 NA
ATOM     40  C   UNL     1      15.638  21.840  14.707  0.00  0.00    +0.111 A 
ENDBRANCH   4   3
ENDBRANCH  10   9
BRANCH  12  13
ATOM     13  N   UNL     1       8.077  29.199  20.170  0.00  0.00    -0.281 N 
ATOM     14  C   UNL     1       7.834  30.292  20.987  0.00  0.00    +0.248 C 
ATOM     30  O   UNL     1       7.940  30.281  22.204  0.00  0.00    -0.270 OA
ATOM     31  H   UNL     1       7.765  29.285  19.202  0.00  0.00    +0.155 HD
BRANCH  14  15
ATOM     15  C   UNL     1       7.396  31.577  20.362  0.00  0.00    +0.037 A 
ATOM     16  C   UNL     1       8.368  32.590  19.947  0.00  0.00    +0.013 A 
ATOM     17  C   UNL     1       7.918  33.829  19.362  0.00  0.00    +0.005 A 
ATOM     18  C   UNL     1       6.485  34.059  19.189  0.00  0.00    -0.033 A 
ATOM     28  C   UNL     1       5.542  33.035  19.605  0.00  0.00    +0.005 A 
ATOM     29  C   UNL     1       5.980  31.820  20.179  0.00  0.00    +0.013 A 
BRANCH  18  19
ATOM     19  C   UNL     1       5.914  35.360  18.594  0.00  0.00    +0.119 C 
BRANCH  19  20
ATOM     20  N   UNL     1       5.742  36.518  19.521  0.00  0.00    -0.302 NA
ATOM     21  C   UNL     1       4.606  36.289  20.523  0.00  0.00    +0.066 C 
ATOM     22  C   UNL     1       4.456  37.501  21.499  0.00  0.00    -0.064 C 
ATOM     23  N   UNL     1       4.216  38.777  20.690  0.00  0.00    +0.379 N 
ATOM     24  C   UNL     1       4.016  39.909  21.607  0.00  0.00    -0.096 C 
ATOM     25  H   UNL     1       3.273  38.639  20.113  0.00  0.00    -0.082 HD
ATOM     26  C   UNL     1       5.339  39.011  19.690  0.00  0.00    -0.064 C 
ATOM     27  C   UNL     1       5.500  37.789  18.744  0.00  0.00    +0.066 C 
ENDBRANCH  19  20
ENDBRANCH  18  19
ENDBRANCH  14  15
ENDBRANCH  12  13
TORSDOF 6
ENDMDL
MODEL 2
REMARK VINA RESULT:      -9.1      1.538      2.306
REMARK  Name = C:\Users\Docking\Desktop\test protocol\1iep_ligandH.pdb
REMARK  8 active torsions:
REMARK  status: ('A' for Active; 'I' for Inactive)
REMARK    1  A    between atoms: _5  and  _11
REMARK    2  A    between atoms: _19  and  _21
REMARK    3  A    between atoms: _22  and  _66
REMARK    4  A    between atoms: _27  and  _30
REMARK    5  A    between atoms: _32  and  _33
REMARK    6  A    between atoms: _38  and  _43
REMARK    7  A    between atoms: _43  and  _46
REMARK    8  A    between atoms: _53  and  _55
REMARK                            x       y       z     vdW  Elec       q    Type
REMARK                         _______ _______ _______ _____ _____    ______ ____
ROOT
ATOM     10  C   UNL     1      10.109  27.505  20.766  0.00  0.00    +0.038 A 
ATOM     11  C   UNL     1       9.530  28.632  20.127  0.00  0.00    +0.047 A 
ATOM     12  C   UNL     1       8.727  29.589  20.873  0.00  0.00    +0.035 A 
ATOM     32  C   UNL     1       8.537  29.369  22.268  0.00  0.00    +0.024 A 
ATOM     33  C   UNL     1       9.117  28.229  22.933  0.00  0.00    +0.007 A 
ATOM     34  C   UNL     1       9.908  27.280  22.202  0.00  0.00    -0.029 A 
ATOM     35  C   UNL     1      10.501  26.073  22.966  0.00  0.00    +0.045 C 
ENDROOT
BRANCH  10   9
ATOM      4  C   UNL     1      10.533  23.723  17.841  0.00  0.00    +0.077 A 
ATOM      5  C   UNL     1       9.120  23.477  17.858  0.00  0.00    +0.048 A 
ATOM      6  C   UNL     1       8.320  24.343  18.637  0.00  0.00    +0.116 A 
ATOM      7  N   UNL     1       8.900  25.374  19.343  0.00  0.00    -0.223 NA
ATOM      8  C   UNL     1      10.267  25.583  19.306  0.00  0.00    +0.220 A 
ATOM      9  N   UNL     1      10.871  26.618  20.002  0.00  0.00    -0.283 N 
ATOM     36  H   UNL     1      11.883  26.734  19.955  0.00  0.00    +0.155 HD
ATOM     37  N   UNL     1      11.053  24.769  18.571  0.00  0.00    -0.214 NA
BRANCH   4   3
ATOM      1  C   UNL     1      13.826  22.401  16.196  0.00  0.00    +0.020 A 
ATOM      2  C   UNL     1      12.925  23.232  16.960  0.00  0.00    +0.013 A 
ATOM      3  C   UNL     1      11.510  22.898  17.063  0.00  0.00    +0.019 A 
ATOM     38  C   UNL     1      11.035  21.706  16.376  0.00  0.00    +0.120 A 
ATOM     39  N   UNL     1      11.926  20.926  15.646  0.00  0.00    -0.263 NA
ATOM     40  C   UNL     1      13.290  21.238  15.538  0.00  0.00    +0.111 A 
ENDBRANCH   4   3
ENDBRANCH  10   9
BRANCH  12  13
ATOM     13  N   UNL     1       8.107  30.746  20.277  0.00  0.00    -0.281 N 
ATOM     14  C   UNL     1       7.212  31.628  20.860  0.00  0.00    +0.248 C 
ATOM     30  O   UNL     1       6.641  31.431  21.922  0.00  0.00    -0.270 OA
ATOM     31  H   UNL     1       8.359  30.939  19.307  0.00  0.00    +0.155 HD
BRANCH  14  15
ATOM     15  C   UNL     1       6.894  32.907  20.154  0.00  0.00    +0.037 A 
ATOM     16  C   UNL     1       5.516  33.393  20.047  0.00  0.00    +0.013 A 
ATOM     17  C   UNL     1       5.235  34.621  19.346  0.00  0.00    +0.005 A 
ATOM     18  C   UNL     1       6.337  35.372  18.747  0.00  0.00    -0.033 A 
ATOM     28  C   UNL     1       7.694  34.869  18.873  0.00  0.00    +0.005 A 
ATOM     29  C   UNL     1       7.973  33.665  19.559  0.00  0.00    +0.013 A 
BRANCH  18  19
ATOM     19  C   UNL     1       6.127  36.681  17.963  0.00  0.00    +0.119 C 
BRANCH  19  20
ATOM     20  N   UNL     1       5.180  37.680  18.541  0.00  0.00    -0.302 NA
ATOM     21  C   UNL     1       4.979  38.883  17.615  0.00  0.00    +0.066 C 
ATOM     22  C   UNL     1       3.968  39.908  18.225  0.00  0.00    -0.064 C 
ATOM     23  N   UNL     1       4.468  40.359  19.598  0.00  0.00    +0.379 N 
ATOM     24  C   UNL     1       3.549  41.366  20.149  0.00  0.00    -0.096 C 
ATOM     25  H   UNL     1       5.459  40.848  19.453  0.00  0.00    -0.082 HD
ATOM     26  C   UNL     1       4.673  39.168  20.524  0.00  0.00    -0.064 C 
ATOM     27  C   UNL     1       5.657  38.142  19.896  0.00  0.00    +0.066 C 
ENDBRANCH  19  20
ENDBRANCH  18  19
ENDBRANCH  14  15
ENDBRANCH  12  13
TORSDOF 6
ENDMDL
MODEL 3
REMARK VINA RESULT:      -9.1      5.575     10.566
REMARK  Name = C:\Users\Docking\Desktop\test protocol\1iep_ligandH.pdb
REMARK  8 active torsions:
REMARK  status: ('A' for Active; 'I' for Inactive)
REMARK    1  A    between atoms: _5  and  _11
REMARK    2  A    between atoms: _19  and  _21
REMARK    3  A    between atoms: _22  and  _66
REMARK    4  A    between atoms: _27  and  _30
REMARK    5  A    between atoms: _32  and  _33
REMARK    6  A    between atoms: _38  and  _43
REMARK    7  A    between atoms: _43  and  _46
REMARK    8  A    between atoms: _53  and  _55
REMARK                            x       y       z     vdW  Elec       q    Type
REMARK                         _______ _______ _______ _____ _____    ______ ____
ROOT
ATOM     10  C   UNL     1      17.358  22.748  14.761  0.00  0.00    +0.038 A 
ATOM     11  C   UNL     1      16.125  23.054  15.393  0.00  0.00    +0.047 A 
ATOM     12  C   UNL     1      14.861  22.594  14.839  0.00  0.00    +0.035 A 
ATOM     32  C   UNL     1      14.889  21.822  13.642  0.00  0.00    +0.024 A 
ATOM     33  C   UNL     1      16.132  21.502  12.985  0.00  0.00    +0.007 A 
ATOM     34  C   UNL     1      17.382  21.955  13.525  0.00  0.00    -0.029 A 
ATOM     35  C   UNL     1      18.685  21.589  12.776  0.00  0.00    +0.045 C 
ENDROOT
BRANCH  10   9
ATOM      4  C   UNL     1      20.585  26.203  15.589  0.00  0.00    +0.077 A 
ATOM      5  C   UNL     1      19.864  27.150  14.787  0.00  0.00    +0.048 A 
ATOM      6  C   UNL     1      18.672  26.706  14.173  0.00  0.00    +0.116 A 
ATOM      7  N   UNL     1      18.241  25.409  14.354  0.00  0.00    -0.223 NA
ATOM      8  C   UNL     1      18.960  24.521  15.133  0.00  0.00    +0.220 A 
ATOM      9  N   UNL     1      18.542  23.215  15.335  0.00  0.00    -0.283 N 
ATOM     36  H   UNL     1      19.104  22.589  15.911  0.00  0.00    +0.155 HD
ATOM     37  N   UNL     1      20.103  24.920  15.729  0.00  0.00    -0.214 NA
BRANCH   4   3
ATOM      1  C   UNL     1      24.342  26.968  16.361  0.00  0.00    +0.020 A 
ATOM      2  C   UNL     1      23.140  26.658  15.622  0.00  0.00    +0.013 A 
ATOM      3  C   UNL     1      21.860  26.522  16.306  0.00  0.00    +0.019 A 
ATOM     38  C   UNL     1      21.830  26.709  17.749  0.00  0.00    +0.120 A 
ATOM     39  N   UNL     1      23.004  27.005  18.434  0.00  0.00    -0.263 NA
ATOM     40  C   UNL     1      24.242  27.137  17.787  0.00  0.00    +0.111 A 
ENDBRANCH   4   3
ENDBRANCH  10   9
BRANCH  12  13
ATOM     13  N   UNL     1      13.579  22.881  15.433  0.00  0.00    -0.281 N 
ATOM     14  C   UNL     1      12.801  22.050  16.223  0.00  0.00    +0.248 C 
ATOM     30  O   UNL     1      12.994  20.852  16.365  0.00  0.00    -0.270 OA
ATOM     31  H   UNL     1      13.197  23.808  15.247  0.00  0.00    +0.155 HD
BRANCH  14  15
ATOM     15  C   UNL     1      11.632  22.632  16.950  0.00  0.00    +0.037 A 
ATOM     16  C   UNL     1      10.278  22.106  16.756  0.00  0.00    +0.013 A 
ATOM     17  C   UNL     1       9.166  22.697  17.457  0.00  0.00    +0.005 A 
ATOM     18  C   UNL     1       9.403  23.821  18.360  0.00  0.00    -0.033 A 
ATOM     28  C   UNL     1      10.757  24.319  18.538  0.00  0.00    +0.005 A 
ATOM     29  C   UNL     1      11.850  23.743  17.852  0.00  0.00    +0.013 A 
BRANCH  18  19
ATOM     19  C   UNL     1       8.273  24.526  19.132  0.00  0.00    +0.119 C 
BRANCH  19  20
ATOM     20  N   UNL     1       8.670  25.571  20.122  0.00  0.00    -0.302 NA
ATOM     21  C   UNL     1       7.598  25.784  21.195  0.00  0.00    +0.066 C 
ATOM     22  C   UNL     1       8.039  26.864  22.235  0.00  0.00    -0.064 C 
ATOM     23  N   UNL     1       8.344  28.175  21.506  0.00  0.00    +0.379 N 
ATOM     24  C   UNL     1       8.703  29.209  22.487  0.00  0.00    -0.096 C 
ATOM     25  H   UNL     1       7.408  28.503  20.996  0.00  0.00    -0.082 HD
ATOM     26  C   UNL     1       9.407  27.972  20.436  0.00  0.00    -0.064 C 
ATOM     27  C   UNL     1       8.971  26.875  19.425  0.00  0.00    +0.066 C 
ENDBRANCH  19  20
ENDBRANCH  18  19
ENDBRANCH  14  15
ENDBRANCH  12  13
TORSDOF 6
ENDMDL
MODEL 4
REMARK VINA RESULT:      -9.0      8.037     11.454
REMARK  Name = C:\Users\Docking\Desktop\test protocol\1iep_ligandH.pdb
REMARK  8 active torsions:
REMARK  status: ('A' for Active; 'I' for Inactive)
REMARK    1  A    between atoms: _5  and  _11
REMARK    2  A    between atoms: _19  and  _21
REMARK    3  A    between atoms: _22  and  _66
REMARK    4  A    between atoms: _27  and  _30
REMARK    5  A    between atoms: _32  and  _33
REMARK    6  A    between atoms: _38  and  _43
REMARK    7  A    between atoms: _43  and  _46
REMARK    8  A    between atoms: _53  and  _55
REMARK                            x       y       z     vdW  Elec       q    Type
REMARK                         _______ _______ _______ _____ _____    ______ ____
ROOT
ATOM     10  C   UNL     1      17.245  22.693  14.751  0.00  0.00    +0.038 A 
ATOM     11  C   UNL     1      16.000  22.981  15.366  0.00  0.00    +0.047 A 
ATOM     12  C   UNL     1      14.750  22.509  14.791  0.00  0.00    +0.035 A 
ATOM     32  C   UNL     1      14.805  21.743  13.590  0.00  0.00    +0.024 A 
ATOM     33  C   UNL     1      16.062  21.441  12.952  0.00  0.00    +0.007 A 
ATOM     34  C   UNL     1      17.298  21.906  13.512  0.00  0.00    -0.029 A 
ATOM     35  C   UNL     1      18.616  21.559  12.781  0.00  0.00    +0.045 C 
ENDROOT
BRANCH  10   9
ATOM      4  C   UNL     1      20.451  26.164  15.594  0.00  0.00    +0.077 A 
ATOM      5  C   UNL     1      19.751  27.095  14.757  0.00  0.00    +0.048 A 
ATOM      6  C   UNL     1      18.574  26.639  14.122  0.00  0.00    +0.116 A 
ATOM      7  N   UNL     1      18.139  25.347  14.317  0.00  0.00    -0.223 NA
ATOM      8  C   UNL     1      18.839  24.473  15.129  0.00  0.00    +0.220 A 
ATOM      9  N   UNL     1      18.415  23.171  15.346  0.00  0.00    -0.283 N 
ATOM     36  H   UNL     1      18.963  22.556  15.946  0.00  0.00    +0.155 HD
ATOM     37  N   UNL     1      19.966  24.884  15.746  0.00  0.00    -0.214 NA
BRANCH   4   3
ATOM      1  C   UNL     1      24.183  26.974  16.439  0.00  0.00    +0.020 A 
ATOM      2  C   UNL     1      22.999  26.651  15.677  0.00  0.00    +0.013 A 
ATOM      3  C   UNL     1      21.708  26.498  16.336  0.00  0.00    +0.019 A 
ATOM     38  C   UNL     1      21.649  26.680  17.778  0.00  0.00    +0.120 A 
ATOM     39  N   UNL     1      22.806  26.989  18.486  0.00  0.00    -0.263 NA
ATOM     40  C   UNL     1      24.054  27.137  17.863  0.00  0.00    +0.111 A 
ENDBRANCH   4   3
ENDBRANCH  10   9
BRANCH  12  13
ATOM     13  N   UNL     1      13.455  22.777  15.366  0.00  0.00    -0.281 N 
ATOM     14  C   UNL     1      12.835  22.116  16.413  0.00  0.00    +0.248 C 
ATOM     30  O   UNL     1      13.211  21.050  16.877  0.00  0.00    -0.270 OA
ATOM     31  H   UNL     1      12.933  23.549  14.950  0.00  0.00    +0.155 HD
BRANCH  14  15
ATOM     15  C   UNL     1      11.611  22.719  17.024  0.00  0.00    +0.037 A 
ATOM     16  C   UNL     1      11.688  23.931  17.843  0.00  0.00    +0.013 A 
ATOM     17  C   UNL     1      10.495  24.482  18.434  0.00  0.00    +0.005 A 
ATOM     18  C   UNL     1       9.212  23.821  18.206  0.00  0.00    -0.033 A 
ATOM     28  C   UNL     1       9.163  22.623  17.385  0.00  0.00    +0.005 A 
ATOM     29  C   UNL     1      10.331  22.079  16.805  0.00  0.00    +0.013 A 
BRANCH  18  19
ATOM     19  C   UNL     1       7.891  24.327  18.815  0.00  0.00    +0.119 C 
BRANCH  19  20
ATOM     20  N   UNL     1       6.990  23.310  19.436  0.00  0.00    -0.302 NA
ATOM     21  C   UNL     1       5.568  23.843  19.629  0.00  0.00    +0.066 C 
ATOM     22  C   UNL     1       4.634  22.759  20.258  0.00  0.00    -0.064 C 
ATOM     23  N   UNL     1       5.223  22.293  21.591  0.00  0.00    +0.379 N 
ATOM     24  C   UNL     1       4.318  21.316  22.213  0.00  0.00    -0.096 C 
ATOM     25  H   UNL     1       5.278  23.180  22.264  0.00  0.00    -0.082 HD
ATOM     26  C   UNL     1       6.639  21.764  21.409  0.00  0.00    -0.064 C 
ATOM     27  C   UNL     1       7.551  22.839  20.755  0.00  0.00    +0.066 C 
ENDBRANCH  19  20
ENDBRANCH  18  19
ENDBRANCH  14  15
ENDBRANCH  12  13
TORSDOF 6
ENDMDL
MODEL 5
REMARK VINA RESULT:      -8.9      7.388     13.307
REMARK  Name = C:\Users\Docking\Desktop\test protocol\1iep_ligandH.pdb
REMARK  8 active torsions:
REMARK  status: ('A' for Active; 'I' for Inactive)
REMARK    1  A    between atoms: _5  and  _11
REMARK    2  A    between atoms: _19  and  _21
REMARK    3  A    between atoms: _22  and  _66
REMARK    4  A    between atoms: _27  and  _30
REMARK    5  A    between atoms: _32  and  _33
REMARK    6  A    between atoms: _38  and  _43
REMARK    7  A    between atoms: _43  and  _46
REMARK    8  A    between atoms: _53  and  _55
REMARK                            x       y       z     vdW  Elec       q    Type
REMARK                         _______ _______ _______ _____ _____    ______ ____
ROOT
ATOM     10  C   UNL     1      19.802  20.645  13.559  0.00  0.00    +0.038 A 
ATOM     11  C   UNL     1      18.470  20.762  14.032  0.00  0.00    +0.047 A 
ATOM     12  C   UNL     1      17.812  22.057  14.117  0.00  0.00    +0.035 A 
ATOM     32  C   UNL     1      18.541  23.212  13.709  0.00  0.00    +0.024 A 
ATOM     33  C   UNL     1      19.896  23.111  13.227  0.00  0.00    +0.007 A 
ATOM     34  C   UNL     1      20.550  21.837  13.144  0.00  0.00    -0.029 A 
ATOM     35  C   UNL     1      22.007  21.789  12.625  0.00  0.00    +0.045 C 
ENDROOT
BRANCH  10   9
ATOM      4  C   UNL     1      20.742  16.524  11.285  0.00  0.00    +0.077 A 
ATOM      5  C   UNL     1      19.987  16.920  10.131  0.00  0.00    +0.048 A 
ATOM      6  C   UNL     1      19.367  18.189  10.166  0.00  0.00    +0.116 A 
ATOM      7  N   UNL     1      19.498  18.993  11.277  0.00  0.00    -0.223 NA
ATOM      8  C   UNL     1      20.232  18.580  12.373  0.00  0.00    +0.220 A 
ATOM      9  N   UNL     1      20.384  19.377  13.498  0.00  0.00    -0.283 N 
ATOM     36  H   UNL     1      20.927  19.033  14.290  0.00  0.00    +0.155 HD
ATOM     37  N   UNL     1      20.833  17.372  12.366  0.00  0.00    -0.214 NA
BRANCH   4   3
ATOM      1  C   UNL     1      21.596  12.794  12.096  0.00  0.00    +0.020 A 
ATOM      2  C   UNL     1      20.861  14.035  12.012  0.00  0.00    +0.013 A 
ATOM      3  C   UNL     1      21.459  15.214  11.398  0.00  0.00    +0.019 A 
ATOM     38  C   UNL     1      22.812  15.103  10.875  0.00  0.00    +0.120 A 
ATOM     39  N   UNL     1      23.496  13.895  10.971  0.00  0.00    -0.263 NA
ATOM     40  C   UNL     1      22.931  12.754  11.561  0.00  0.00    +0.111 A 
ENDBRANCH   4   3
ENDBRANCH  10   9
BRANCH  12  13
ATOM     13  N   UNL     1      16.465  22.238  14.596  0.00  0.00    -0.281 N 
ATOM     14  C   UNL     1      15.281  21.935  13.944  0.00  0.00    +0.248 C 
ATOM     30  O   UNL     1      15.197  21.657  12.757  0.00  0.00    -0.270 OA
ATOM     31  H   UNL     1      16.372  22.639  15.530  0.00  0.00    +0.155 HD
BRANCH  14  15
ATOM     15  C   UNL     1      14.003  21.957  14.720  0.00  0.00    +0.037 A 
ATOM     16  C   UNL     1      13.813  22.876  15.845  0.00  0.00    +0.013 A 
ATOM     17  C   UNL     1      12.577  22.865  16.587  0.00  0.00    +0.005 A 
ATOM     18  C   UNL     1      11.521  21.931  16.205  0.00  0.00    -0.033 A 
ATOM     28  C   UNL     1      11.734  21.034  15.081  0.00  0.00    +0.005 A 
ATOM     29  C   UNL     1      12.944  21.041  14.352  0.00  0.00    +0.013 A 
BRANCH  18  19
ATOM     19  C   UNL     1      10.178  21.835  16.953  0.00  0.00    +0.119 C 
BRANCH  19  20
ATOM     20  N   UNL     1       9.771  23.010  17.780  0.00  0.00    -0.302 NA
ATOM     21  C   UNL     1      10.063  22.795  19.268  0.00  0.00    +0.066 C 
ATOM     22  C   UNL     1       9.652  24.042  20.115  0.00  0.00    -0.064 C 
ATOM     23  N   UNL     1       8.168  24.340  19.892  0.00  0.00    +0.379 N 
ATOM     24  C   UNL     1       7.764  25.477  20.732  0.00  0.00    -0.096 C 
ATOM     25  H   UNL     1       7.590  23.448  20.229  0.00  0.00    -0.082 HD
ATOM     26  C   UNL     1       7.868  24.553  18.415  0.00  0.00    -0.064 C 
ATOM     27  C   UNL     1       8.308  23.319  17.579  0.00  0.00    +0.066 C 
ENDBRANCH  19  20
ENDBRANCH  18  19
ENDBRANCH  14  15
ENDBRANCH  12  13
TORSDOF 6
ENDMDL
