MODEL 1
REMARK VINA RESULT:      -9.8      0.000      0.000
REMARK  Name = C:\Users\Docking\Desktop\test protocol\1iep_ligandH.pdb
REMARK  8 active torsions:
REMARK  status: ('A' for Active; 'I' for Inactive)
REMARK    1  A    between atoms: _5  and  _11
REMARK    2  A    between atoms: _19  and  _21
REMARK    3  A    between atoms: _22  and  _66
REMARK    4  A    between atoms: _27  and  _30
REMARK    5  A    between atoms: _32  and  _33
REMARK    6  A    between atoms: _38  and  _43
REMARK    7  A    between atoms: _43  and  _46
REMARK    8  A    between atoms: _53  and  _55
REMARK                            x       y       z     vdW  Elec       q    Type
REMARK                         _______ _______ _______ _____ _____    ______ ____
ROOT
ATOM     10  C   UNL     1      17.082  22.890  14.849  0.00  0.00    +0.038 A 
ATOM     11  C   UNL     1      15.839  23.183  15.467  0.00  0.00    +0.047 A 
ATOM     12  C   UNL     1      14.585  22.735  14.882  0.00  0.00    +0.035 A 
ATOM     32  C   UNL     1      14.634  21.988  13.668  0.00  0.00    +0.024 A 
ATOM     33  C   UNL     1      15.889  21.683  13.027  0.00  0.00    +0.007 A 
ATOM     34  C   UNL     1      17.129  22.124  13.598  0.00  0.00    -0.029 A 
ATOM     35  C   UNL     1      18.444  21.774  12.864  0.00  0.00    +0.045 C 
ENDROOT
BRANCH  10   9
ATOM      4  C   UNL     1      20.414  26.257  15.627  0.00  0.00    +0.077 A 
ATOM      5  C   UNL     1      19.776  27.179  14.731  0.00  0.00    +0.048 A 
ATOM      6  C   UNL     1      18.597  26.745  14.085  0.00  0.00    +0.116 A 
ATOM      7  N   UNL     1      18.101  25.482  14.324  0.00  0.00    -0.223 NA
ATOM      8  C   UNL     1      18.741  24.617  15.193  0.00  0.00    +0.220 A 
ATOM      9  N   UNL     1      18.256  23.345  15.455  0.00  0.00    -0.283 N 
ATOM     36  H   UNL     1      18.762  22.735  16.096  0.00  0.00    +0.155 HD
ATOM     37  N   UNL     1      19.870  25.007  15.821  0.00  0.00    -0.214 NA
BRANCH   4   3
ATOM      1  C   UNL     1      24.119  27.142  16.516  0.00  0.00    +0.020 A 
ATOM      2  C   UNL     1      22.940  26.845  15.736  0.00  0.00    +0.013 A 
ATOM      3  C   UNL     1      21.665  26.570  16.387  0.00  0.00    +0.019 A 
ATOM     38  C   UNL     1      21.616  26.605  17.841  0.00  0.00    +0.120 A 
ATOM     39  N   UNL     1      22.768  26.893  18.566  0.00  0.00    -0.263 NA
ATOM     40  C   UNL     1      24.001  27.157  17.951  0.00  0.00    +0.111 A 
ENDBRANCH   4   3
ENDBRANCH  10   9
BRANCH  12  13
ATOM     13  N   UNL     1      13.292  23.009  15.459  0.00  0.00    -0.281 N 
ATOM     14  C   UNL     1      12.640  22.306  16.459  0.00  0.00    +0.248 C 
ATOM     30  O   UNL     1      12.979  21.204  16.863  0.00  0.00    -0.270 OA
ATOM     31  H   UNL     1      12.798  23.819  15.084  0.00  0.00    +0.155 HD
BRANCH  14  15
ATOM     15  C   UNL     1      11.428  22.909  17.091  0.00  0.00    +0.037 A 
ATOM     16  C   UNL     1      11.509  24.160  17.850  0.00  0.00    +0.013 A 
ATOM     17  C   UNL     1      10.327  24.711  18.465  0.00  0.00    +0.005 A 
ATOM     18  C   UNL     1       9.053  24.011  18.322  0.00  0.00    -0.033 A 
ATOM     28  C   UNL     1       9.000  22.775  17.559  0.00  0.00    +0.005 A 
ATOM     29  C   UNL     1      10.156  22.231  16.956  0.00  0.00    +0.013 A 
BRANCH  18  19
ATOM     19  C   UNL     1       7.745  24.515  18.962  0.00  0.00    +0.119 C 
BRANCH  19  20
ATOM     20  N   UNL     1       6.876  23.501  19.629  0.00  0.00    -0.302 NA
ATOM     21  C   UNL     1       5.391  23.862  19.528  0.00  0.00    +0.066 C 
ATOM     22  C   UNL     1       4.494  22.779  20.211  0.00  0.00    -0.064 C 
ATOM     23  N   UNL     1       4.915  22.622  21.674  0.00  0.00    +0.379 N 
ATOM     24  C   UNL     1       4.035  21.646  22.335  0.00  0.00    -0.096 C 
ATOM     25  H   UNL     1       4.766  23.606  22.176  0.00  0.00    -0.082 HD
ATOM     26  C   UNL     1       6.390  22.265  21.784  0.00  0.00    -0.064 C 
ATOM     27  C   UNL     1       7.271  23.333  21.075  0.00  0.00    +0.066 C 
ENDBRANCH  19  20
ENDBRANCH  18  19
ENDBRANCH  14  15
ENDBRANCH  12  13
TORSDOF 6
ENDMDL
MODEL 2
REMARK VINA RESULT:      -9.8      1.800      2.670
REMARK  Name = C:\Users\Docking\Desktop\test protocol\1iep_ligandH.pdb
REMARK  8 active torsions:
REMARK  status: ('A' for Active; 'I' for Inactive)
REMARK    1  A    between atoms: _5  and  _11
REMARK    2  A    between atoms: _19  and  _21
REMARK    3  A    between atoms: _22  and  _66
REMARK    4  A    between atoms: _27  and  _30
REMARK    5  A    between atoms: _32  and  _33
REMARK    6  A    between atoms: _38  and  _43
REMARK    7  A    between atoms: _43  and  _46
REMARK    8  A    between atoms: _53  and  _55
REMARK                            x       y       z     vdW  Elec       q    Type
REMARK                         _______ _______ _______ _____ _____    ______ ____
ROOT
ATOM     10  C   UNL     1      17.280  22.888  14.739  0.00  0.00    +0.038 A 
ATOM     11  C   UNL     1      16.045  23.174  15.374  0.00  0.00    +0.047 A 
ATOM     12  C   UNL     1      14.784  22.728  14.803  0.00  0.00    +0.035 A 
ATOM     32  C   UNL     1      14.818  21.990  13.584  0.00  0.00    +0.024 A 
ATOM     33  C   UNL     1      16.064  21.691  12.924  0.00  0.00    +0.007 A 
ATOM     34  C   UNL     1      17.311  22.131  13.481  0.00  0.00    -0.029 A 
ATOM     35  C   UNL     1      18.617  21.787  12.727  0.00  0.00    +0.045 C 
ENDROOT
BRANCH  10   9
ATOM      4  C   UNL     1      20.535  26.304  15.620  0.00  0.00    +0.077 A 
ATOM      5  C   UNL     1      19.837  27.260  14.809  0.00  0.00    +0.048 A 
ATOM      6  C   UNL     1      18.649  26.831  14.177  0.00  0.00    +0.116 A 
ATOM      7  N   UNL     1      18.200  25.539  14.350  0.00  0.00    -0.223 NA
ATOM      8  C   UNL     1      18.898  24.642  15.137  0.00  0.00    +0.220 A 
ATOM      9  N   UNL     1      18.461  23.340  15.331  0.00  0.00    -0.283 N 
ATOM     36  H   UNL     1      19.008  22.706  15.913  0.00  0.00    +0.155 HD
ATOM     37  N   UNL     1      20.037  25.027  15.750  0.00  0.00    -0.214 NA
BRANCH   4   3
ATOM      1  C   UNL     1      24.261  27.169  16.436  0.00  0.00    +0.020 A 
ATOM      2  C   UNL     1      23.065  26.880  15.679  0.00  0.00    +0.013 A 
ATOM      3  C   UNL     1      21.803  26.607  16.355  0.00  0.00    +0.019 A 
ATOM     38  C   UNL     1      21.786  26.634  17.810  0.00  0.00    +0.120 A 
ATOM     39  N   UNL     1      22.954  26.913  18.512  0.00  0.00    -0.263 NA
ATOM     40  C   UNL     1      24.174  27.176  17.872  0.00  0.00    +0.111 A 
ENDBRANCH   4   3
ENDBRANCH  10   9
BRANCH  12  13
ATOM     13  N   UNL     1      13.498  22.996  15.399  0.00  0.00    -0.281 N 
ATOM     14  C   UNL     1      12.793  22.206  16.293  0.00  0.00    +0.248 C 
ATOM     30  O   UNL     1      13.065  21.044  16.552  0.00  0.00    -0.270 OA
ATOM     31  H   UNL     1      13.055  23.874  15.130  0.00  0.00    +0.155 HD
BRANCH  14  15
ATOM     15  C   UNL     1      11.604  22.788  16.988  0.00  0.00    +0.037 A 
ATOM     16  C   UNL     1      10.280  22.174  16.871  0.00  0.00    +0.013 A 
ATOM     17  C   UNL     1       9.147  22.765  17.538  0.00  0.00    +0.005 A 
ATOM     18  C   UNL     1       9.335  23.978  18.330  0.00  0.00    -0.033 A 
ATOM     28  C   UNL     1      10.661  24.564  18.433  0.00  0.00    +0.005 A 
ATOM     29  C   UNL     1      11.774  23.988  17.780  0.00  0.00    +0.013 A 
BRANCH  18  19
ATOM     19  C   UNL     1       8.179  24.689  19.059  0.00  0.00    +0.119 C 
BRANCH  19  20
ATOM     20  N   UNL     1       8.543  25.721  20.075  0.00  0.00    -0.302 NA
ATOM     21  C   UNL     1       7.436  25.921  21.113  0.00  0.00    +0.066 C 
ATOM     22  C   UNL     1       7.843  26.988  22.181  0.00  0.00    -0.064 C 
ATOM     23  N   UNL     1       8.173  28.307  21.480  0.00  0.00    +0.379 N 
ATOM     24  C   UNL     1       8.500  29.328  22.486  0.00  0.00    -0.096 C 
ATOM     25  H   UNL     1       7.256  28.643  20.943  0.00  0.00    -0.082 HD
ATOM     26  C   UNL     1       9.272  28.117  20.444  0.00  0.00    -0.064 C 
ATOM     27  C   UNL     1       8.869  27.033  19.405  0.00  0.00    +0.066 C 
ENDBRANCH  19  20
ENDBRANCH  18  19
ENDBRANCH  14  15
ENDBRANCH  12  13
TORSDOF 6
ENDMDL
MODEL 3
REMARK VINA RESULT:      -9.8      2.057      3.559
REMARK  Name = C:\Users\Docking\Desktop\test protocol\1iep_ligandH.pdb
REMARK  8 active torsions:
REMARK  status: ('A' for Active; 'I' for Inactive)
REMARK    1  A    between atoms: _5  and  _11
REMARK    2  A    between atoms: _19  and  _21
REMARK    3  A    between atoms: _22  and  _66
REMARK    4  A    between atoms: _27  and  _30
REMARK    5  A    between atoms: _32  and  _33
REMARK    6  A    between atoms: _38  and  _43
REMARK    7  A    between atoms: _43  and  _46
REMARK    8  A    between atoms: _53  and  _55
REMARK                            x       y       z     vdW  Elec       q    Type
REMARK                         _______ _______ _______ _____ _____    ______ ____
ROOT
ATOM     10  C   UNL     1      13.899  22.866  14.983  0.00  0.00    +0.038 A 
ATOM     11  C   UNL     1      12.781  22.949  15.851  0.00  0.00    +0.047 A 
ATOM     12  C   UNL     1      11.749  21.924  15.850  0.00  0.00    +0.035 A 
ATOM     32  C   UNL     1      11.890  20.825  14.953  0.00  0.00    +0.024 A 
ATOM     33  C   UNL     1      13.020  20.725  14.063  0.00  0.00    +0.007 A 
ATOM     34  C   UNL     1      14.039  21.735  14.058  0.00  0.00    -0.029 A 
ATOM     35  C   UNL     1      15.225  21.579  13.077  0.00  0.00    +0.045 C 
ENDROOT
BRANCH  10   9
ATOM      4  C   UNL     1      18.149  24.612  16.371  0.00  0.00    +0.077 A 
ATOM      5  C   UNL     1      18.471  23.416  17.095  0.00  0.00    +0.048 A 
ATOM      6  C   UNL     1      17.513  22.378  17.090  0.00  0.00    +0.116 A 
ATOM      7  N   UNL     1      16.325  22.535  16.410  0.00  0.00    -0.223 NA
ATOM      8  C   UNL     1      16.045  23.702  15.724  0.00  0.00    +0.220 A 
ATOM      9  N   UNL     1      14.860  23.879  15.026  0.00  0.00    -0.283 N 
ATOM     36  H   UNL     1      14.688  24.758  14.538  0.00  0.00    +0.155 HD
ATOM     37  N   UNL     1      16.943  24.709  15.714  0.00  0.00    -0.214 NA
BRANCH   4   3
ATOM      1  C   UNL     1      20.059  27.760  15.048  0.00  0.00    +0.020 A 
ATOM      2  C   UNL     1      19.163  26.626  15.085  0.00  0.00    +0.013 A 
ATOM      3  C   UNL     1      19.060  25.797  16.279  0.00  0.00    +0.019 A 
ATOM     38  C   UNL     1      19.883  26.144  17.428  0.00  0.00    +0.120 A 
ATOM     39  N   UNL     1      20.737  27.241  17.363  0.00  0.00    -0.263 NA
ATOM     40  C   UNL     1      20.846  28.045  16.219  0.00  0.00    +0.111 A 
ENDBRANCH   4   3
ENDBRANCH  10   9
BRANCH  12  13
ATOM     13  N   UNL     1      10.588  21.959  16.703  0.00  0.00    -0.281 N 
ATOM     14  C   UNL     1      10.191  22.973  17.560  0.00  0.00    +0.248 C 
ATOM     30  O   UNL     1      10.894  23.918  17.884  0.00  0.00    -0.270 OA
ATOM     31  H   UNL     1       9.984  21.137  16.671  0.00  0.00    +0.155 HD
BRANCH  14  15
ATOM     15  C   UNL     1       8.821  22.920  18.155  0.00  0.00    +0.037 A 
ATOM     16  C   UNL     1       8.167  21.642  18.447  0.00  0.00    +0.013 A 
ATOM     17  C   UNL     1       6.838  21.620  19.004  0.00  0.00    +0.005 A 
ATOM     18  C   UNL     1       6.154  22.882  19.275  0.00  0.00    -0.033 A 
ATOM     28  C   UNL     1       6.828  24.136  18.981  0.00  0.00    +0.005 A 
ATOM     29  C   UNL     1       8.130  24.161  18.433  0.00  0.00    +0.013 A 
BRANCH  18  19
ATOM     19  C   UNL     1       4.727  22.953  19.850  0.00  0.00    +0.119 C 
BRANCH  19  20
ATOM     20  N   UNL     1       4.053  21.659  20.169  0.00  0.00    -0.302 NA
ATOM     21  C   UNL     1       3.031  21.265  19.099  0.00  0.00    +0.066 C 
ATOM     22  C   UNL     1       2.352  19.898  19.437  0.00  0.00    -0.064 C 
ATOM     23  N   UNL     1       1.688  19.987  20.812  0.00  0.00    +0.379 N 
ATOM     24  C   UNL     1       1.000  18.723  21.108  0.00  0.00    -0.096 C 
ATOM     25  H   UNL     1       0.916  20.790  20.764  0.00  0.00    -0.082 HD
ATOM     26  C   UNL     1       2.697  20.382  21.882  0.00  0.00    -0.064 C 
ATOM     27  C   UNL     1       3.387  21.727  21.521  0.00  0.00    +0.066 C 
ENDBRANCH  19  20
ENDBRANCH  18  19
ENDBRANCH  14  15
ENDBRANCH  12  13
TORSDOF 6
ENDMDL
MODEL 4
REMARK VINA RESULT:      -9.6      4.200     12.338
REMARK  Name = C:\Users\Docking\Desktop\test protocol\1iep_ligandH.pdb
REMARK  8 active torsions:
REMARK  status: ('A' for Active; 'I' for Inactive)
REMARK    1  A    between atoms: _5  and  _11
REMARK    2  A    between atoms: _19  and  _21
REMARK    3  A    between atoms: _22  and  _66
REMARK    4  A    between atoms: _27  and  _30
REMARK    5  A    between atoms: _32  and  _33
REMARK    6  A    between atoms: _38  and  _43
REMARK    7  A    between atoms: _43  and  _46
REMARK    8  A    between atoms: _53  and  _55
REMARK                            x       y       z     vdW  Elec       q    Type
REMARK                         _______ _______ _______ _____ _____    ______ ____
ROOT
ATOM     10  C   UNL     1       9.013  25.588  18.839  0.00  0.00    +0.038 A 
ATOM     11  C   UNL     1      10.336  25.308  18.411  0.00  0.00    +0.047 A 
ATOM     12  C   UNL     1      10.835  23.943  18.349  0.00  0.00    +0.035 A 
ATOM     32  C   UNL     1       9.958  22.886  18.729  0.00  0.00    +0.024 A 
ATOM     33  C   UNL     1       8.610  23.152  19.168  0.00  0.00    +0.007 A 
ATOM     34  C   UNL     1       8.113  24.496  19.233  0.00  0.00    -0.029 A 
ATOM     35  C   UNL     1       6.662  24.723  19.717  0.00  0.00    +0.045 C 
ENDROOT
BRANCH  10   9
ATOM      4  C   UNL     1       8.168  29.694  21.177  0.00  0.00    +0.077 A 
ATOM      5  C   UNL     1       8.588  29.135  22.430  0.00  0.00    +0.048 A 
ATOM      6  C   UNL     1       9.006  27.786  22.431  0.00  0.00    +0.116 A 
ATOM      7  N   UNL     1       9.003  27.059  21.261  0.00  0.00    -0.223 NA
ATOM      8  C   UNL     1       8.591  27.627  20.069  0.00  0.00    +0.220 A 
ATOM      9  N   UNL     1       8.586  26.917  18.879  0.00  0.00    -0.283 N 
ATOM     36  H   UNL     1       8.268  27.370  18.023  0.00  0.00    +0.155 HD
ATOM     37  N   UNL     1       8.185  28.914  20.042  0.00  0.00    -0.214 NA
BRANCH   4   3
ATOM      1  C   UNL     1       6.288  33.086  21.681  0.00  0.00    +0.020 A 
ATOM      2  C   UNL     1       6.704  31.717  21.882  0.00  0.00    +0.013 A 
ATOM      3  C   UNL     1       7.702  31.107  21.013  0.00  0.00    +0.019 A 
ATOM     38  C   UNL     1       8.264  31.915  19.941  0.00  0.00    +0.120 A 
ATOM     39  N   UNL     1       7.843  33.230  19.771  0.00  0.00    -0.263 NA
ATOM     40  C   UNL     1       6.882  33.828  20.600  0.00  0.00    +0.111 A 
ENDBRANCH   4   3
ENDBRANCH  10   9
BRANCH  12  13
ATOM     13  N   UNL     1      12.171  23.600  17.930  0.00  0.00    -0.281 N 
ATOM     14  C   UNL     1      12.560  22.962  16.764  0.00  0.00    +0.248 C 
ATOM     30  O   UNL     1      11.794  22.396  15.997  0.00  0.00    -0.270 OA
ATOM     31  H   UNL     1      12.921  23.858  18.571  0.00  0.00    +0.155 HD
BRANCH  14  15
ATOM     15  C   UNL     1      14.010  22.936  16.404  0.00  0.00    +0.037 A 
ATOM     16  C   UNL     1      15.048  23.168  17.412  0.00  0.00    +0.013 A 
ATOM     17  C   UNL     1      16.439  23.155  17.035  0.00  0.00    +0.005 A 
ATOM     18  C   UNL     1      16.800  22.907  15.641  0.00  0.00    -0.033 A 
ATOM     28  C   UNL     1      15.751  22.675  14.662  0.00  0.00    +0.005 A 
ATOM     29  C   UNL     1      14.387  22.688  15.028  0.00  0.00    +0.013 A 
BRANCH  18  19
ATOM     19  C   UNL     1      18.258  22.896  15.145  0.00  0.00    +0.119 C 
BRANCH  19  20
ATOM     20  N   UNL     1      19.035  24.165  15.277  0.00  0.00    -0.302 NA
ATOM     21  C   UNL     1      18.237  25.380  14.796  0.00  0.00    +0.066 C 
ATOM     22  C   UNL     1      19.056  26.701  14.962  0.00  0.00    -0.064 C 
ATOM     23  N   UNL     1      20.373  26.581  14.195  0.00  0.00    +0.379 N 
ATOM     24  C   UNL     1      21.120  27.843  14.301  0.00  0.00    -0.096 C 
ATOM     25  H   UNL     1      20.124  26.424  13.119  0.00  0.00    -0.082 HD
ATOM     26  C   UNL     1      21.172  25.374  14.664  0.00  0.00    -0.064 C 
ATOM     27  C   UNL     1      20.339  24.070  14.522  0.00  0.00    +0.066 C 
ENDBRANCH  19  20
ENDBRANCH  18  19
ENDBRANCH  14  15
ENDBRANCH  12  13
TORSDOF 6
ENDMDL
MODEL 5
REMARK VINA RESULT:      -9.6      4.315     12.259
REMARK  Name = C:\Users\Docking\Desktop\test protocol\1iep_ligandH.pdb
REMARK  8 active torsions:
REMARK  status: ('A' for Active; 'I' for Inactive)
REMARK    1  A    between atoms: _5  and  _11
REMARK    2  A    between atoms: _19  and  _21
REMARK    3  A    between atoms: _22  and  _66
REMARK    4  A    between atoms: _27  and  _30
REMARK    5  A    between atoms: _32  and  _33
REMARK    6  A    between atoms: _38  and  _43
REMARK    7  A    between atoms: _43  and  _46
REMARK    8  A    between atoms: _53  and  _55
REMARK                            x       y       z     vdW  Elec       q    Type
REMARK                         _______ _______ _______ _____ _____    ______ ____
ROOT
ATOM     10  C   UNL     1       8.326  24.746  20.673  0.00  0.00    +0.038 A 
ATOM     11  C   UNL     1       9.473  24.386  19.920  0.00  0.00    +0.047 A 
ATOM     12  C   UNL     1       9.360  23.956  18.535  0.00  0.00    +0.035 A 
ATOM     32  C   UNL     1       8.062  23.907  17.947  0.00  0.00    +0.024 A 
ATOM     33  C   UNL     1       6.886  24.269  18.698  0.00  0.00    +0.007 A 
ATOM     34  C   UNL     1       6.991  24.691  20.065  0.00  0.00    -0.029 A 
ATOM     35  C   UNL     1       5.695  25.061  20.824  0.00  0.00    +0.045 C 
ENDROOT
BRANCH  10   9
ATOM      4  C   UNL     1       8.775  28.141  24.036  0.00  0.00    +0.077 A 
ATOM      5  C   UNL     1       8.697  29.196  23.066  0.00  0.00    +0.048 A 
ATOM      6  C   UNL     1       8.549  28.822  21.711  0.00  0.00    +0.116 A 
ATOM      7  N   UNL     1       8.484  27.490  21.364  0.00  0.00    -0.223 NA
ATOM      8  C   UNL     1       8.564  26.498  22.324  0.00  0.00    +0.220 A 
ATOM      9  N   UNL     1       8.493  25.152  21.999  0.00  0.00    -0.283 N 
ATOM     36  H   UNL     1       8.564  24.451  22.735  0.00  0.00    +0.155 HD
ATOM     37  N   UNL     1       8.707  26.829  23.624  0.00  0.00    -0.214 NA
BRANCH   4   3
ATOM      1  C   UNL     1       8.027  29.007  27.776  0.00  0.00    +0.020 A 
ATOM      2  C   UNL     1       7.825  28.793  26.362  0.00  0.00    +0.013 A 
ATOM      3  C   UNL     1       8.929  28.377  25.506  0.00  0.00    +0.019 A 
ATOM     38  C   UNL     1      10.235  28.182  26.118  0.00  0.00    +0.120 A 
ATOM     39  N   UNL     1      10.400  28.396  27.483  0.00  0.00    -0.263 NA
ATOM     40  C   UNL     1       9.345  28.799  28.316  0.00  0.00    +0.111 A 
ENDBRANCH   4   3
ENDBRANCH  10   9
BRANCH  12  13
ATOM     13  N   UNL     1      10.488  23.571  17.724  0.00  0.00    -0.281 N 
ATOM     14  C   UNL     1      10.769  22.322  17.195  0.00  0.00    +0.248 C 
ATOM     30  O   UNL     1      10.201  21.290  17.520  0.00  0.00    -0.270 OA
ATOM     31  H   UNL     1      11.160  24.308  17.513  0.00  0.00    +0.155 HD
BRANCH  14  15
ATOM     15  C   UNL     1      11.848  22.199  16.168  0.00  0.00    +0.037 A 
ATOM     16  C   UNL     1      12.971  23.138  16.129  0.00  0.00    +0.013 A 
ATOM     17  C   UNL     1      13.990  23.008  15.117  0.00  0.00    +0.005 A 
ATOM     18  C   UNL     1      13.889  21.930  14.136  0.00  0.00    -0.033 A 
ATOM     28  C   UNL     1      12.767  21.009  14.200  0.00  0.00    +0.005 A 
ATOM     29  C   UNL     1      11.767  21.135  15.190  0.00  0.00    +0.013 A 
BRANCH  18  19
ATOM     19  C   UNL     1      14.918  21.728  13.008  0.00  0.00    +0.119 C 
BRANCH  19  20
ATOM     20  N   UNL     1      16.354  21.614  13.405  0.00  0.00    -0.302 NA
ATOM     21  C   UNL     1      17.279  22.347  12.430  0.00  0.00    +0.066 C 
ATOM     22  C   UNL     1      18.775  22.236  12.872  0.00  0.00    -0.064 C 
ATOM     23  N   UNL     1      19.163  20.760  12.982  0.00  0.00    +0.379 N 
ATOM     24  C   UNL     1      20.585  20.652  13.341  0.00  0.00    -0.096 C 
ATOM     25  H   UNL     1      19.033  20.301  11.974  0.00  0.00    -0.082 HD
ATOM     26  C   UNL     1      18.246  20.023  13.947  0.00  0.00    -0.064 C 
ATOM     27  C   UNL     1      16.760  20.164  13.515  0.00  0.00    +0.066 C 
ENDBRANCH  19  20
ENDBRANCH  18  19
ENDBRANCH  14  15
ENDBRANCH  12  13
TORSDOF 6
ENDMDL
