MODEL 1
REMARK VINA RESULT:      -9.6      0.000      0.000
REMARK  Name = C:\Users\Docking\Desktop\test protocol\1iep_ligandH.pdb
REMARK  8 active torsions:
REMARK  status: ('A' for Active; 'I' for Inactive)
REMARK    1  A    between atoms: _5  and  _11
REMARK    2  A    between atoms: _19  and  _21
REMARK    3  A    between atoms: _22  and  _66
REMARK    4  A    between atoms: _27  and  _30
REMARK    5  A    between atoms: _32  and  _33
REMARK    6  A    between atoms: _38  and  _43
REMARK    7  A    between atoms: _43  and  _46
REMARK    8  A    between atoms: _53  and  _55
REMARK                            x       y       z     vdW  Elec       q    Type
REMARK                         _______ _______ _______ _____ _____    ______ ____
ROOT
ATOM     10  C   UNL     1       9.279  25.697  18.870  0.00  0.00    +0.038 A 
ATOM     11  C   UNL     1      10.572  25.515  18.316  0.00  0.00    +0.047 A 
ATOM     12  C   UNL     1      11.185  24.197  18.255  0.00  0.00    +0.035 A 
ATOM     32  C   UNL     1      10.452  23.086  18.765  0.00  0.00    +0.024 A 
ATOM     33  C   UNL     1       9.137  23.254  19.332  0.00  0.00    +0.007 A 
ATOM     34  C   UNL     1       8.528  24.552  19.398  0.00  0.00    -0.029 A 
ATOM     35  C   UNL     1       7.119  24.673  20.023  0.00  0.00    +0.045 C 
ENDROOT
BRANCH  10   9
ATOM      4  C   UNL     1       8.206  29.779  21.157  0.00  0.00    +0.077 A 
ATOM      5  C   UNL     1       8.743  29.296  22.396  0.00  0.00    +0.048 A 
ATOM      6  C   UNL     1       9.280  27.989  22.404  0.00  0.00    +0.116 A 
ATOM      7  N   UNL     1       9.275  27.231  21.253  0.00  0.00    -0.223 NA
ATOM      8  C   UNL     1       8.747  27.726  20.075  0.00  0.00    +0.220 A 
ATOM      9  N   UNL     1       8.738  26.985  18.904  0.00  0.00    -0.283 N 
ATOM     36  H   UNL     1       8.333  27.383  18.058  0.00  0.00    +0.155 HD
ATOM     37  N   UNL     1       8.227  28.971  20.042  0.00  0.00    -0.214 NA
BRANCH   4   3
ATOM      1  C   UNL     1       6.008  32.977  21.647  0.00  0.00    +0.020 A 
ATOM      2  C   UNL     1       6.553  31.655  21.853  0.00  0.00    +0.013 A 
ATOM      3  C   UNL     1       7.606  31.140  20.987  0.00  0.00    +0.019 A 
ATOM     38  C   UNL     1       8.090  31.995  19.914  0.00  0.00    +0.120 A 
ATOM     39  N   UNL     1       7.545  33.264  19.739  0.00  0.00    -0.263 NA
ATOM     40  C   UNL     1       6.530  33.769  20.565  0.00  0.00    +0.111 A 
ENDBRANCH   4   3
ENDBRANCH  10   9
BRANCH  12  13
ATOM     13  N   UNL     1      12.498  23.952  17.711  0.00  0.00    -0.281 N 
ATOM     14  C   UNL     1      12.834  23.171  16.618  0.00  0.00    +0.248 C 
ATOM     30  O   UNL     1      12.074  22.389  16.067  0.00  0.00    -0.270 OA
ATOM     31  H   UNL     1      13.273  24.410  18.191  0.00  0.00    +0.155 HD
BRANCH  14  15
ATOM     15  C   UNL     1      14.220  23.261  16.065  0.00  0.00    +0.037 A 
ATOM     16  C   UNL     1      15.382  23.402  16.947  0.00  0.00    +0.013 A 
ATOM     17  C   UNL     1      16.706  23.504  16.387  0.00  0.00    +0.005 A 
ATOM     18  C   UNL     1      16.876  23.464  14.936  0.00  0.00    -0.033 A 
ATOM     28  C   UNL     1      15.706  23.319  14.085  0.00  0.00    +0.005 A 
ATOM     29  C   UNL     1      14.407  23.219  14.630  0.00  0.00    +0.013 A 
BRANCH  18  19
ATOM     19  C   UNL     1      18.250  23.587  14.251  0.00  0.00    +0.119 C 
BRANCH  19  20
ATOM     20  N   UNL     1      19.163  24.663  14.739  0.00  0.00    -0.302 NA
ATOM     21  C   UNL     1      18.684  26.057  14.323  0.00  0.00    +0.066 C 
ATOM     22  C   UNL     1      19.639  27.171  14.861  0.00  0.00    -0.064 C 
ATOM     23  N   UNL     1      21.058  26.912  14.352  0.00  0.00    +0.379 N 
ATOM     24  C   UNL     1      21.947  27.991  14.809  0.00  0.00    -0.096 C 
ATOM     25  H   UNL     1      21.029  26.946  13.238  0.00  0.00    -0.082 HD
ATOM     26  C   UNL     1      21.541  25.528  14.760  0.00  0.00    -0.064 C 
ATOM     27  C   UNL     1      20.570  24.429  14.245  0.00  0.00    +0.066 C 
ENDBRANCH  19  20
ENDBRANCH  18  19
ENDBRANCH  14  15
ENDBRANCH  12  13
TORSDOF 6
ENDMDL
MODEL 2
REMARK VINA RESULT:      -9.4      1.639      2.547
REMARK  Name = C:\Users\Docking\Desktop\test protocol\1iep_ligandH.pdb
REMARK  8 active torsions:
REMARK  status: ('A' for Active; 'I' for Inactive)
REMARK    1  A    between atoms: _5  and  _11
REMARK    2  A    between atoms: _19  and  _21
REMARK    3  A    between atoms: _22  and  _66
REMARK    4  A    between atoms: _27  and  _30
REMARK    5  A    between atoms: _32  and  _33
REMARK    6  A    between atoms: _38  and  _43
REMARK    7  A    between atoms: _43  and  _46
REMARK    8  A    between atoms: _53  and  _55
REMARK                            x       y       z     vdW  Elec       q    Type
REMARK                         _______ _______ _______ _____ _____    ______ ____
ROOT
ATOM     10  C   UNL     1       9.347  25.674  18.862  0.00  0.00    +0.038 A 
ATOM     11  C   UNL     1      10.672  25.482  18.393  0.00  0.00    +0.047 A 
ATOM     12  C   UNL     1      11.269  24.156  18.347  0.00  0.00    +0.035 A 
ATOM     32  C   UNL     1      10.487  23.047  18.783  0.00  0.00    +0.024 A 
ATOM     33  C   UNL     1       9.139  23.224  19.263  0.00  0.00    +0.007 A 
ATOM     34  C   UNL     1       8.546  24.530  19.313  0.00  0.00    -0.029 A 
ATOM     35  C   UNL     1       7.099  24.662  19.843  0.00  0.00    +0.045 C 
ENDROOT
BRANCH  10   9
ATOM      4  C   UNL     1       8.231  29.748  21.141  0.00  0.00    +0.077 A 
ATOM      5  C   UNL     1       8.706  29.244  22.397  0.00  0.00    +0.048 A 
ATOM      6  C   UNL     1       9.223  27.930  22.416  0.00  0.00    +0.116 A 
ATOM      7  N   UNL     1       9.259  27.183  21.258  0.00  0.00    -0.223 NA
ATOM      8  C   UNL     1       8.791  27.699  20.063  0.00  0.00    +0.220 A 
ATOM      9  N   UNL     1       8.824  26.969  18.885  0.00  0.00    -0.283 N 
ATOM     36  H   UNL     1       8.463  27.382  18.025  0.00  0.00    +0.155 HD
ATOM     37  N   UNL     1       8.291  28.951  20.019  0.00  0.00    -0.214 NA
BRANCH   4   3
ATOM      1  C   UNL     1       6.111  33.001  21.613  0.00  0.00    +0.020 A 
ATOM      2  C   UNL     1       6.630  31.670  21.831  0.00  0.00    +0.013 A 
ATOM      3  C   UNL     1       7.659  31.120  20.959  0.00  0.00    +0.019 A 
ATOM     38  C   UNL     1       8.147  31.948  19.867  0.00  0.00    +0.120 A 
ATOM     39  N   UNL     1       7.628  33.225  19.680  0.00  0.00    -0.263 NA
ATOM     40  C   UNL     1       6.636  33.765  20.512  0.00  0.00    +0.111 A 
ENDBRANCH   4   3
ENDBRANCH  10   9
BRANCH  12  13
ATOM     13  N   UNL     1      12.612  23.901  17.889  0.00  0.00    -0.281 N 
ATOM     14  C   UNL     1      13.008  23.227  16.745  0.00  0.00    +0.248 C 
ATOM     30  O   UNL     1      12.265  22.553  16.047  0.00  0.00    -0.270 OA
ATOM     31  H   UNL     1      13.362  24.260  18.479  0.00  0.00    +0.155 HD
BRANCH  14  15
ATOM     15  C   UNL     1      14.440  23.302  16.322  0.00  0.00    +0.037 A 
ATOM     16  C   UNL     1      15.526  23.251  17.304  0.00  0.00    +0.013 A 
ATOM     17  C   UNL     1      16.898  23.343  16.871  0.00  0.00    +0.005 A 
ATOM     18  C   UNL     1      17.191  23.484  15.447  0.00  0.00    -0.033 A 
ATOM     28  C   UNL     1      16.095  23.526  14.493  0.00  0.00    +0.005 A 
ATOM     29  C   UNL     1      14.749  23.438  14.914  0.00  0.00    +0.013 A 
BRANCH  18  19
ATOM     19  C   UNL     1      18.624  23.609  14.896  0.00  0.00    +0.119 C 
BRANCH  19  20
ATOM     20  N   UNL     1      19.106  22.525  13.989  0.00  0.00    -0.302 NA
ATOM     21  C   UNL     1      18.800  21.132  14.546  0.00  0.00    +0.066 C 
ATOM     22  C   UNL     1      19.290  20.010  13.574  0.00  0.00    -0.064 C 
ATOM     23  N   UNL     1      20.790  20.176  13.323  0.00  0.00    +0.379 N 
ATOM     24  C   UNL     1      21.266  19.089  12.455  0.00  0.00    -0.096 C 
ATOM     25  H   UNL     1      21.310  20.078  14.304  0.00  0.00    -0.082 HD
ATOM     26  C   UNL     1      21.103  21.560  12.771  0.00  0.00    -0.064 C 
ATOM     27  C   UNL     1      20.585  22.667  13.731  0.00  0.00    +0.066 C 
ENDBRANCH  19  20
ENDBRANCH  18  19
ENDBRANCH  14  15
ENDBRANCH  12  13
TORSDOF 6
ENDMDL
MODEL 3
REMARK VINA RESULT:      -9.2      4.871     12.722
REMARK  Name = C:\Users\Docking\Desktop\test protocol\1iep_ligandH.pdb
REMARK  8 active torsions:
REMARK  status: ('A' for Active; 'I' for Inactive)
REMARK    1  A    between atoms: _5  and  _11
REMARK    2  A    between atoms: _19  and  _21
REMARK    3  A    between atoms: _22  and  _66
REMARK    4  A    between atoms: _27  and  _30
REMARK    5  A    between atoms: _32  and  _33
REMARK    6  A    between atoms: _38  and  _43
REMARK    7  A    between atoms: _43  and  _46
REMARK    8  A    between atoms: _53  and  _55
REMARK                            x       y       z     vdW  Elec       q    Type
REMARK                         _______ _______ _______ _____ _____    ______ ____
ROOT
ATOM     10  C   UNL     1       9.798  27.126  21.447  0.00  0.00    +0.038 A 
ATOM     11  C   UNL     1       9.441  28.423  20.995  0.00  0.00    +0.047 A 
ATOM     12  C   UNL     1       8.772  29.368  21.875  0.00  0.00    +0.035 A 
ATOM     32  C   UNL     1       8.483  28.961  23.210  0.00  0.00    +0.024 A 
ATOM     33  C   UNL     1       8.838  27.647  23.686  0.00  0.00    +0.007 A 
ATOM     34  C   UNL     1       9.496  26.709  22.822  0.00  0.00    -0.029 A 
ATOM     35  C   UNL     1       9.847  25.312  23.383  0.00  0.00    +0.045 C 
ENDROOT
BRANCH  10   9
ATOM      4  C   UNL     1       9.738  23.634  18.155  0.00  0.00    +0.077 A 
ATOM      5  C   UNL     1       8.311  23.509  18.228  0.00  0.00    +0.048 A 
ATOM      6  C   UNL     1       7.630  24.357  19.131  0.00  0.00    +0.116 A 
ATOM      7  N   UNL     1       8.335  25.259  19.898  0.00  0.00    -0.223 NA
ATOM      8  C   UNL     1       9.711  25.353  19.804  0.00  0.00    +0.220 A 
ATOM      9  N   UNL     1      10.439  26.259  20.560  0.00  0.00    -0.283 N 
ATOM     36  H   UNL     1      11.454  26.292  20.467  0.00  0.00    +0.155 HD
ATOM     37  N   UNL     1      10.384  24.553  18.951  0.00  0.00    -0.214 NA
BRANCH   4   3
ATOM      1  C   UNL     1      10.950  20.948  15.582  0.00  0.00    +0.020 A 
ATOM      2  C   UNL     1      10.077  21.712  16.443  0.00  0.00    +0.013 A 
ATOM      3  C   UNL     1      10.598  22.811  17.247  0.00  0.00    +0.019 A 
ATOM     38  C   UNL     1      12.018  23.113  17.155  0.00  0.00    +0.120 A 
ATOM     39  N   UNL     1      12.835  22.359  16.318  0.00  0.00    -0.263 NA
ATOM     40  C   UNL     1      12.345  21.299  15.541  0.00  0.00    +0.111 A 
ENDBRANCH   4   3
ENDBRANCH  10   9
BRANCH  12  13
ATOM     13  N   UNL     1       8.378  30.695  21.469  0.00  0.00    -0.281 N 
ATOM     14  C   UNL     1       7.474  31.051  20.482  0.00  0.00    +0.248 C 
ATOM     30  O   UNL     1       7.022  30.280  19.648  0.00  0.00    -0.270 OA
ATOM     31  H   UNL     1       8.820  31.465  21.971  0.00  0.00    +0.155 HD
BRANCH  14  15
ATOM     15  C   UNL     1       7.015  32.471  20.401  0.00  0.00    +0.037 A 
ATOM     16  C   UNL     1       5.590  32.807  20.334  0.00  0.00    +0.013 A 
ATOM     17  C   UNL     1       5.176  34.184  20.239  0.00  0.00    +0.005 A 
ATOM     18  C   UNL     1       6.188  35.236  20.212  0.00  0.00    -0.033 A 
ATOM     28  C   UNL     1       7.595  34.875  20.284  0.00  0.00    +0.005 A 
ATOM     29  C   UNL     1       8.005  33.526  20.376  0.00  0.00    +0.013 A 
BRANCH  18  19
ATOM     19  C   UNL     1       5.838  36.731  20.090  0.00  0.00    +0.119 C 
BRANCH  19  20
ATOM     20  N   UNL     1       5.181  37.179  18.826  0.00  0.00    -0.302 NA
ATOM     21  C   UNL     1       5.928  36.685  17.584  0.00  0.00    +0.066 C 
ATOM     22  C   UNL     1       5.214  37.144  16.271  0.00  0.00    -0.064 C 
ATOM     23  N   UNL     1       5.098  38.669  16.263  0.00  0.00    +0.379 N 
ATOM     24  C   UNL     1       4.480  39.107  15.003  0.00  0.00    -0.096 C 
ATOM     25  H   UNL     1       6.131  39.087  16.296  0.00  0.00    -0.082 HD
ATOM     26  C   UNL     1       4.359  39.169  17.496  0.00  0.00    -0.064 C 
ATOM     27  C   UNL     1       5.060  38.683  18.795  0.00  0.00    +0.066 C 
ENDBRANCH  19  20
ENDBRANCH  18  19
ENDBRANCH  14  15
ENDBRANCH  12  13
TORSDOF 6
ENDMDL
MODEL 4
REMARK VINA RESULT:      -9.1      4.365     12.317
REMARK  Name = C:\Users\Docking\Desktop\test protocol\1iep_ligandH.pdb
REMARK  8 active torsions:
REMARK  status: ('A' for Active; 'I' for Inactive)
REMARK    1  A    between atoms: _5  and  _11
REMARK    2  A    between atoms: _19  and  _21
REMARK    3  A    between atoms: _22  and  _66
REMARK    4  A    between atoms: _27  and  _30
REMARK    5  A    between atoms: _32  and  _33
REMARK    6  A    between atoms: _38  and  _43
REMARK    7  A    between atoms: _43  and  _46
REMARK    8  A    between atoms: _53  and  _55
REMARK                            x       y       z     vdW  Elec       q    Type
REMARK                         _______ _______ _______ _____ _____    ______ ____
ROOT
ATOM     10  C   UNL     1      15.194  22.795  14.626  0.00  0.00    +0.038 A 
ATOM     11  C   UNL     1      14.011  23.029  15.373  0.00  0.00    +0.047 A 
ATOM     12  C   UNL     1      12.985  22.005  15.498  0.00  0.00    +0.035 A 
ATOM     32  C   UNL     1      13.199  20.753  14.852  0.00  0.00    +0.024 A 
ATOM     33  C   UNL     1      14.395  20.498  14.088  0.00  0.00    +0.007 A 
ATOM     34  C   UNL     1      15.409  21.505  13.959  0.00  0.00    -0.029 A 
ATOM     35  C   UNL     1      16.668  21.179  13.123  0.00  0.00    +0.045 C 
ENDROOT
BRANCH  10   9
ATOM      4  C   UNL     1      19.043  25.142  16.273  0.00  0.00    +0.077 A 
ATOM      5  C   UNL     1      19.151  24.283  17.417  0.00  0.00    +0.048 A 
ATOM      6  C   UNL     1      18.192  23.254  17.549  0.00  0.00    +0.116 A 
ATOM      7  N   UNL     1      17.203  23.104  16.600  0.00  0.00    -0.223 NA
ATOM      8  C   UNL     1      17.127  23.951  15.510  0.00  0.00    +0.220 A 
ATOM      9  N   UNL     1      16.146  23.813  14.540  0.00  0.00    -0.283 N 
ATOM     36  H   UNL     1      16.119  24.462  13.754  0.00  0.00    +0.155 HD
ATOM     37  N   UNL     1      18.030  24.942  15.362  0.00  0.00    -0.214 NA
BRANCH   4   3
ATOM      1  C   UNL     1      21.055  27.961  14.454  0.00  0.00    +0.020 A 
ATOM      2  C   UNL     1      20.133  26.871  14.672  0.00  0.00    +0.013 A 
ATOM      3  C   UNL     1      19.984  26.273  15.992  0.00  0.00    +0.019 A 
ATOM     38  C   UNL     1      20.789  26.807  17.081  0.00  0.00    +0.120 A 
ATOM     39  N   UNL     1      21.670  27.857  16.842  0.00  0.00    -0.263 NA
ATOM     40  C   UNL     1      21.823  28.439  15.574  0.00  0.00    +0.111 A 
ENDBRANCH   4   3
ENDBRANCH  10   9
BRANCH  12  13
ATOM     13  N   UNL     1      11.760  22.188  16.235  0.00  0.00    -0.281 N 
ATOM     14  C   UNL     1      11.582  22.846  17.442  0.00  0.00    +0.248 C 
ATOM     30  O   UNL     1      12.492  23.194  18.179  0.00  0.00    -0.270 OA
ATOM     31  H   UNL     1      10.922  21.784  15.818  0.00  0.00    +0.155 HD
BRANCH  14  15
ATOM     15  C   UNL     1      10.193  23.147  17.902  0.00  0.00    +0.037 A 
ATOM     16  C   UNL     1       9.837  24.466  18.432  0.00  0.00    +0.013 A 
ATOM     17  C   UNL     1       8.493  24.725  18.885  0.00  0.00    +0.005 A 
ATOM     18  C   UNL     1       7.494  23.662  18.808  0.00  0.00    -0.033 A 
ATOM     28  C   UNL     1       7.873  22.364  18.274  0.00  0.00    +0.005 A 
ATOM     29  C   UNL     1       9.189  22.107  17.830  0.00  0.00    +0.013 A 
BRANCH  18  19
ATOM     19  C   UNL     1       6.042  23.842  19.289  0.00  0.00    +0.119 C 
BRANCH  19  20
ATOM     20  N   UNL     1       5.567  22.944  20.382  0.00  0.00    -0.302 NA
ATOM     21  C   UNL     1       4.126  22.477  20.157  0.00  0.00    +0.066 C 
ATOM     22  C   UNL     1       3.653  21.520  21.299  0.00  0.00    -0.064 C 
ATOM     23  N   UNL     1       3.786  22.232  22.646  0.00  0.00    +0.379 N 
ATOM     24  C   UNL     1       3.288  21.356  23.716  0.00  0.00    -0.096 C 
ATOM     25  H   UNL     1       3.134  23.135  22.617  0.00  0.00    -0.082 HD
ATOM     26  C   UNL     1       5.216  22.702  22.877  0.00  0.00    -0.064 C 
ATOM     27  C   UNL     1       5.686  23.629  21.722  0.00  0.00    +0.066 C 
ENDBRANCH  19  20
ENDBRANCH  18  19
ENDBRANCH  14  15
ENDBRANCH  12  13
TORSDOF 6
ENDMDL
MODEL 5
REMARK VINA RESULT:      -9.1      4.194      7.262
REMARK  Name = C:\Users\Docking\Desktop\test protocol\1iep_ligandH.pdb
REMARK  8 active torsions:
REMARK  status: ('A' for Active; 'I' for Inactive)
REMARK    1  A    between atoms: _5  and  _11
REMARK    2  A    between atoms: _19  and  _21
REMARK    3  A    between atoms: _22  and  _66
REMARK    4  A    between atoms: _27  and  _30
REMARK    5  A    between atoms: _32  and  _33
REMARK    6  A    between atoms: _38  and  _43
REMARK    7  A    between atoms: _43  and  _46
REMARK    8  A    between atoms: _53  and  _55
REMARK                            x       y       z     vdW  Elec       q    Type
REMARK                         _______ _______ _______ _____ _____    ______ ____
ROOT
ATOM     10  C   UNL     1      14.083  21.966  14.806  0.00  0.00    +0.038 A 
ATOM     11  C   UNL     1      15.201  22.836  14.872  0.00  0.00    +0.047 A 
ATOM     12  C   UNL     1      16.495  22.440  14.336  0.00  0.00    +0.035 A 
ATOM     32  C   UNL     1      16.613  21.152  13.738  0.00  0.00    +0.024 A 
ATOM     33  C   UNL     1      15.486  20.255  13.663  0.00  0.00    +0.007 A 
ATOM     34  C   UNL     1      14.209  20.639  14.192  0.00  0.00    -0.029 A 
ATOM     35  C   UNL     1      13.038  19.634  14.090  0.00  0.00    +0.045 C 
ENDROOT
BRANCH  10   9
ATOM      4  C   UNL     1      11.146  22.840  18.500  0.00  0.00    +0.077 A 
ATOM      5  C   UNL     1      12.111  22.373  19.454  0.00  0.00    +0.048 A 
ATOM      6  C   UNL     1      13.348  21.909  18.952  0.00  0.00    +0.116 A 
ATOM      7  N   UNL     1      13.591  21.917  17.596  0.00  0.00    -0.223 NA
ATOM      8  C   UNL     1      12.638  22.373  16.703  0.00  0.00    +0.220 A 
ATOM      9  N   UNL     1      12.865  22.397  15.335  0.00  0.00    -0.283 N 
ATOM     36  H   UNL     1      12.133  22.734  14.709  0.00  0.00    +0.155 HD
ATOM     37  N   UNL     1      11.449  22.819  17.157  0.00  0.00    -0.214 NA
BRANCH   4   3
ATOM      1  C   UNL     1       7.387  23.912  18.360  0.00  0.00    +0.020 A 
ATOM      2  C   UNL     1       8.672  23.397  17.947  0.00  0.00    +0.013 A 
ATOM      3  C   UNL     1       9.795  23.363  18.876  0.00  0.00    +0.019 A 
ATOM     38  C   UNL     1       9.582  23.862  20.226  0.00  0.00    +0.120 A 
ATOM     39  N   UNL     1       8.334  24.353  20.595  0.00  0.00    -0.263 NA
ATOM     40  C   UNL     1       7.247  24.393  19.709  0.00  0.00    +0.111 A 
ENDBRANCH   4   3
ENDBRANCH  10   9
BRANCH  12  13
ATOM     13  N   UNL     1      17.668  23.277  14.382  0.00  0.00    -0.281 N 
ATOM     14  C   UNL     1      17.932  24.415  13.637  0.00  0.00    +0.248 C 
ATOM     30  O   UNL     1      17.288  24.765  12.660  0.00  0.00    -0.270 OA
ATOM     31  H   UNL     1      18.391  22.997  15.045  0.00  0.00    +0.155 HD
BRANCH  14  15
ATOM     15  C   UNL     1      19.087  25.280  14.025  0.00  0.00    +0.037 A 
ATOM     16  C   UNL     1      18.930  26.726  14.197  0.00  0.00    +0.013 A 
ATOM     17  C   UNL     1      20.064  27.540  14.555  0.00  0.00    +0.005 A 
ATOM     18  C   UNL     1      21.368  26.908  14.744  0.00  0.00    -0.033 A 
ATOM     28  C   UNL     1      21.495  25.470  14.572  0.00  0.00    +0.005 A 
ATOM     29  C   UNL     1      20.385  24.669  14.220  0.00  0.00    +0.013 A 
BRANCH  18  19
ATOM     19  C   UNL     1      22.637  27.701  15.106  0.00  0.00    +0.119 C 
BRANCH  19  20
ATOM     20  N   UNL     1      23.385  27.275  16.326  0.00  0.00    -0.302 NA
ATOM     21  C   UNL     1      22.496  27.271  17.573  0.00  0.00    +0.066 C 
ATOM     22  C   UNL     1      23.289  26.801  18.836  0.00  0.00    -0.064 C 
ATOM     23  N   UNL     1      24.503  27.709  19.040  0.00  0.00    +0.379 N 
ATOM     24  C   UNL     1      25.218  27.306  20.259  0.00  0.00    -0.096 C 
ATOM     25  H   UNL     1      24.126  28.747  19.195  0.00  0.00    -0.082 HD
ATOM     26  C   UNL     1      25.391  27.721  17.804  0.00  0.00    -0.064 C 
ATOM     27  C   UNL     1      24.586  28.161  16.549  0.00  0.00    +0.066 C 
ENDBRANCH  19  20
ENDBRANCH  18  19
ENDBRANCH  14  15
ENDBRANCH  12  13
TORSDOF 6
ENDMDL
