MODEL 1
REMARK VINA RESULT:      -8.9      0.000      0.000
REMARK  Name = C:\Users\Docking\Desktop\test protocol\1iep_ligandH.pdb
REMARK  8 active torsions:
REMARK  status: ('A' for Active; 'I' for Inactive)
REMARK    1  A    between atoms: _5  and  _11
REMARK    2  A    between atoms: _19  and  _21
REMARK    3  A    between atoms: _22  and  _66
REMARK    4  A    between atoms: _27  and  _30
REMARK    5  A    between atoms: _32  and  _33
REMARK    6  A    between atoms: _38  and  _43
REMARK    7  A    between atoms: _43  and  _46
REMARK    8  A    between atoms: _53  and  _55
REMARK                            x       y       z     vdW  Elec       q    Type
REMARK                         _______ _______ _______ _____ _____    ______ ____
ROOT
ATOM     10  C   UNL     1      20.239  30.057  22.447  0.00  0.00    +0.038 A 
ATOM     11  C   UNL     1      20.768  30.211  21.140  0.00  0.00    +0.047 A 
ATOM     12  C   UNL     1      20.143  31.102  20.175  0.00  0.00    +0.035 A 
ATOM     32  C   UNL     1      18.982  31.824  20.576  0.00  0.00    +0.024 A 
ATOM     33  C   UNL     1      18.430  31.680  21.900  0.00  0.00    +0.007 A 
ATOM     34  C   UNL     1      19.040  30.800  22.855  0.00  0.00    -0.029 A 
ATOM     35  C   UNL     1      18.401  30.679  24.258  0.00  0.00    +0.045 C 
ENDROOT
BRANCH  10   9
ATOM      4  C   UNL     1      20.423  26.000  25.003  0.00  0.00    +0.077 A 
ATOM      5  C   UNL     1      19.123  25.590  24.557  0.00  0.00    +0.048 A 
ATOM      6  C   UNL     1      18.437  26.455  23.676  0.00  0.00    +0.116 A 
ATOM      7  N   UNL     1      19.018  27.639  23.277  0.00  0.00    -0.223 NA
ATOM      8  C   UNL     1      20.272  28.005  23.727  0.00  0.00    +0.220 A 
ATOM      9  N   UNL     1      20.879  29.188  23.333  0.00  0.00    -0.283 N 
ATOM     36  H   UNL     1      21.803  29.426  23.693  0.00  0.00    +0.155 HD
ATOM     37  N   UNL     1      20.948  27.197  24.571  0.00  0.00    -0.214 NA
BRANCH   4   3
ATOM      1  C   UNL     1      21.597  23.701  27.943  0.00  0.00    +0.020 A 
ATOM      2  C   UNL     1      20.731  24.467  27.076  0.00  0.00    +0.013 A 
ATOM      3  C   UNL     1      21.274  25.192  25.934  0.00  0.00    +0.019 A 
ATOM     38  C   UNL     1      22.708  25.120  25.695  0.00  0.00    +0.120 A 
ATOM     39  N   UNL     1      23.517  24.376  26.548  0.00  0.00    -0.263 NA
ATOM     40  C   UNL     1      23.006  23.676  27.651  0.00  0.00    +0.111 A 
ENDBRANCH   4   3
ENDBRANCH  10   9
BRANCH  12  13
ATOM     13  N   UNL     1      20.631  31.293  18.831  0.00  0.00    -0.281 N 
ATOM     14  C   UNL     1      21.182  32.438  18.279  0.00  0.00    +0.248 C 
ATOM     30  O   UNL     1      21.142  33.543  18.799  0.00  0.00    -0.270 OA
ATOM     31  H   UNL     1      20.562  30.485  18.212  0.00  0.00    +0.155 HD
BRANCH  14  15
ATOM     15  C   UNL     1      21.862  32.344  16.952  0.00  0.00    +0.037 A 
ATOM     16  C   UNL     1      23.125  33.040  16.695  0.00  0.00    +0.013 A 
ATOM     17  C   UNL     1      23.752  32.947  15.400  0.00  0.00    +0.005 A 
ATOM     18  C   UNL     1      23.116  32.153  14.352  0.00  0.00    -0.033 A 
ATOM     28  C   UNL     1      21.865  31.468  14.636  0.00  0.00    +0.005 A 
ATOM     29  C   UNL     1      21.248  31.558  15.903  0.00  0.00    +0.013 A 
BRANCH  18  19
ATOM     19  C   UNL     1      23.702  32.015  12.934  0.00  0.00    +0.119 C 
BRANCH  19  20
ATOM     20  N   UNL     1      23.748  33.246  12.090  0.00  0.00    -0.302 NA
ATOM     21  C   UNL     1      22.353  33.678  11.629  0.00  0.00    +0.066 C 
ATOM     22  C   UNL     1      22.417  34.980  10.766  0.00  0.00    -0.064 C 
ATOM     23  N   UNL     1      23.337  34.749   9.566  0.00  0.00    +0.379 N 
ATOM     24  C   UNL     1      23.354  35.952   8.722  0.00  0.00    -0.096 C 
ATOM     25  H   UNL     1      22.903  33.918   8.963  0.00  0.00    -0.082 HD
ATOM     26  C   UNL     1      24.725  34.316  10.016  0.00  0.00    -0.064 C 
ATOM     27  C   UNL     1      24.648  33.038  10.897  0.00  0.00    +0.066 C 
ENDBRANCH  19  20
ENDBRANCH  18  19
ENDBRANCH  14  15
ENDBRANCH  12  13
TORSDOF 6
ENDMDL
MODEL 2
REMARK VINA RESULT:      -8.7      2.284      3.324
REMARK  Name = C:\Users\Docking\Desktop\test protocol\1iep_ligandH.pdb
REMARK  8 active torsions:
REMARK  status: ('A' for Active; 'I' for Inactive)
REMARK    1  A    between atoms: _5  and  _11
REMARK    2  A    between atoms: _19  and  _21
REMARK    3  A    between atoms: _22  and  _66
REMARK    4  A    between atoms: _27  and  _30
REMARK    5  A    between atoms: _32  and  _33
REMARK    6  A    between atoms: _38  and  _43
REMARK    7  A    between atoms: _43  and  _46
REMARK    8  A    between atoms: _53  and  _55
REMARK                            x       y       z     vdW  Elec       q    Type
REMARK                         _______ _______ _______ _____ _____    ______ ____
ROOT
ATOM     10  C   UNL     1      20.212  30.140  22.551  0.00  0.00    +0.038 A 
ATOM     11  C   UNL     1      20.559  30.131  21.176  0.00  0.00    +0.047 A 
ATOM     12  C   UNL     1      19.894  31.010  20.226  0.00  0.00    +0.035 A 
ATOM     32  C   UNL     1      18.881  31.887  20.712  0.00  0.00    +0.024 A 
ATOM     33  C   UNL     1      18.515  31.909  22.107  0.00  0.00    +0.007 A 
ATOM     34  C   UNL     1      19.166  31.042  23.048  0.00  0.00    -0.029 A 
ATOM     35  C   UNL     1      18.729  31.104  24.530  0.00  0.00    +0.045 C 
ENDROOT
BRANCH  10   9
ATOM      4  C   UNL     1      20.541  26.040  25.024  0.00  0.00    +0.077 A 
ATOM      5  C   UNL     1      19.256  25.594  24.570  0.00  0.00    +0.048 A 
ATOM      6  C   UNL     1      18.538  26.452  23.706  0.00  0.00    +0.116 A 
ATOM      7  N   UNL     1      19.077  27.664  23.332  0.00  0.00    -0.223 NA
ATOM      8  C   UNL     1      20.319  28.065  23.789  0.00  0.00    +0.220 A 
ATOM      9  N   UNL     1      20.883  29.276  23.419  0.00  0.00    -0.283 N 
ATOM     36  H   UNL     1      21.798  29.538  23.784  0.00  0.00    +0.155 HD
ATOM     37  N   UNL     1      21.023  27.263  24.615  0.00  0.00    -0.214 NA
BRANCH   4   3
ATOM      1  C   UNL     1      23.677  24.439  26.728  0.00  0.00    +0.020 A 
ATOM      2  C   UNL     1      22.873  25.224  25.820  0.00  0.00    +0.013 A 
ATOM      3  C   UNL     1      21.421  25.243  25.937  0.00  0.00    +0.019 A 
ATOM     38  C   UNL     1      20.808  24.451  26.992  0.00  0.00    +0.120 A 
ATOM     39  N   UNL     1      21.607  23.702  27.850  0.00  0.00    -0.263 NA
ATOM     40  C   UNL     1      23.006  23.675  27.746  0.00  0.00    +0.111 A 
ENDBRANCH   4   3
ENDBRANCH  10   9
BRANCH  12  13
ATOM     13  N   UNL     1      20.198  31.039  18.817  0.00  0.00    -0.281 N 
ATOM     14  C   UNL     1      20.916  31.997  18.120  0.00  0.00    +0.248 C 
ATOM     30  O   UNL     1      21.226  33.091  18.570  0.00  0.00    -0.270 OA
ATOM     31  H   UNL     1      19.840  30.258  18.266  0.00  0.00    +0.155 HD
BRANCH  14  15
ATOM     15  C   UNL     1      21.339  31.704  16.717  0.00  0.00    +0.037 A 
ATOM     16  C   UNL     1      20.485  30.930  15.812  0.00  0.00    +0.013 A 
ATOM     17  C   UNL     1      20.925  30.647  14.469  0.00  0.00    +0.005 A 
ATOM     18  C   UNL     1      22.225  31.141  14.022  0.00  0.00    -0.033 A 
ATOM     28  C   UNL     1      23.049  31.911  14.939  0.00  0.00    +0.005 A 
ATOM     29  C   UNL     1      22.622  32.189  16.256  0.00  0.00    +0.013 A 
BRANCH  18  19
ATOM     19  C   UNL     1      22.784  30.868  12.613  0.00  0.00    +0.119 C 
BRANCH  19  20
ATOM     20  N   UNL     1      23.232  29.476  12.312  0.00  0.00    -0.302 NA
ATOM     21  C   UNL     1      24.149  29.420  11.087  0.00  0.00    +0.066 C 
ATOM     22  C   UNL     1      24.628  27.959  10.801  0.00  0.00    -0.064 C 
ATOM     23  N   UNL     1      23.409  27.055  10.607  0.00  0.00    +0.379 N 
ATOM     24  C   UNL     1      23.855  25.693  10.280  0.00  0.00    -0.096 C 
ATOM     25  H   UNL     1      22.836  27.443   9.732  0.00  0.00    -0.082 HD
ATOM     26  C   UNL     1      22.490  27.107  11.819  0.00  0.00    -0.064 C 
ATOM     27  C   UNL     1      22.045  28.567  12.113  0.00  0.00    +0.066 C 
ENDBRANCH  19  20
ENDBRANCH  18  19
ENDBRANCH  14  15
ENDBRANCH  12  13
TORSDOF 6
ENDMDL
MODEL 3
REMARK VINA RESULT:      -8.2      1.868     13.031
REMARK  Name = C:\Users\Docking\Desktop\test protocol\1iep_ligandH.pdb
REMARK  8 active torsions:
REMARK  status: ('A' for Active; 'I' for Inactive)
REMARK    1  A    between atoms: _5  and  _11
REMARK    2  A    between atoms: _19  and  _21
REMARK    3  A    between atoms: _22  and  _66
REMARK    4  A    between atoms: _27  and  _30
REMARK    5  A    between atoms: _32  and  _33
REMARK    6  A    between atoms: _38  and  _43
REMARK    7  A    between atoms: _43  and  _46
REMARK    8  A    between atoms: _53  and  _55
REMARK                            x       y       z     vdW  Elec       q    Type
REMARK                         _______ _______ _______ _____ _____    ______ ____
ROOT
ATOM     10  C   UNL     1      20.438  32.790  17.553  0.00  0.00    +0.038 A 
ATOM     11  C   UNL     1      20.711  31.746  18.473  0.00  0.00    +0.047 A 
ATOM     12  C   UNL     1      19.796  31.446  19.564  0.00  0.00    +0.035 A 
ATOM     32  C   UNL     1      18.611  32.228  19.686  0.00  0.00    +0.024 A 
ATOM     33  C   UNL     1      18.318  33.294  18.760  0.00  0.00    +0.007 A 
ATOM     34  C   UNL     1      19.218  33.596  17.684  0.00  0.00    -0.029 A 
ATOM     35  C   UNL     1      18.856  34.754  16.725  0.00  0.00    +0.045 C 
ENDROOT
BRANCH  10   9
ATOM      4  C   UNL     1      22.644  31.563  13.470  0.00  0.00    +0.077 A 
ATOM      5  C   UNL     1      21.938  30.317  13.394  0.00  0.00    +0.048 A 
ATOM      6  C   UNL     1      21.021  30.026  14.429  0.00  0.00    +0.116 A 
ATOM      7  N   UNL     1      20.832  30.923  15.459  0.00  0.00    -0.223 NA
ATOM      8  C   UNL     1      21.530  32.115  15.503  0.00  0.00    +0.220 A 
ATOM      9  N   UNL     1      21.350  33.035  16.524  0.00  0.00    -0.283 N 
ATOM     36  H   UNL     1      21.890  33.900  16.525  0.00  0.00    +0.155 HD
ATOM     37  N   UNL     1      22.413  32.416  14.527  0.00  0.00    -0.214 NA
BRANCH   4   3
ATOM      1  C   UNL     1      25.826  31.788  11.206  0.00  0.00    +0.020 A 
ATOM      2  C   UNL     1      24.895  31.311  12.203  0.00  0.00    +0.013 A 
ATOM      3  C   UNL     1      23.643  32.015  12.451  0.00  0.00    +0.019 A 
ATOM     38  C   UNL     1      23.360  33.207  11.666  0.00  0.00    +0.120 A 
ATOM     39  N   UNL     1      24.276  33.644  10.714  0.00  0.00    -0.263 NA
ATOM     40  C   UNL     1      25.485  32.976  10.468  0.00  0.00    +0.111 A 
ENDBRANCH   4   3
ENDBRANCH  10   9
BRANCH  12  13
ATOM     13  N   UNL     1      20.025  30.404  20.533  0.00  0.00    -0.281 N 
ATOM     14  C   UNL     1      20.131  30.528  21.909  0.00  0.00    +0.248 C 
ATOM     30  O   UNL     1      20.260  31.591  22.498  0.00  0.00    -0.270 OA
ATOM     31  H   UNL     1      20.120  29.459  20.160  0.00  0.00    +0.155 HD
BRANCH  14  15
ATOM     15  C   UNL     1      20.106  29.293  22.750  0.00  0.00    +0.037 A 
ATOM     16  C   UNL     1      19.724  29.344  24.163  0.00  0.00    +0.013 A 
ATOM     17  C   UNL     1      19.725  28.140  24.956  0.00  0.00    +0.005 A 
ATOM     18  C   UNL     1      20.108  26.874  24.336  0.00  0.00    -0.033 A 
ATOM     28  C   UNL     1      20.478  26.852  22.931  0.00  0.00    +0.005 A 
ATOM     29  C   UNL     1      20.479  28.030  22.151  0.00  0.00    +0.013 A 
BRANCH  18  19
ATOM     19  C   UNL     1      20.158  25.544  25.112  0.00  0.00    +0.119 C 
BRANCH  19  20
ATOM     20  N   UNL     1      21.255  25.376  26.111  0.00  0.00    -0.302 NA
ATOM     21  C   UNL     1      22.536  24.834  25.472  0.00  0.00    +0.066 C 
ATOM     22  C   UNL     1      23.680  24.685  26.527  0.00  0.00    -0.064 C 
ATOM     23  N   UNL     1      23.210  23.770  27.659  0.00  0.00    +0.379 N 
ATOM     24  C   UNL     1      24.303  23.582  28.624  0.00  0.00    -0.096 C 
ATOM     25  H   UNL     1      22.976  22.775  27.214  0.00  0.00    -0.082 HD
ATOM     26  C   UNL     1      21.934  24.301  28.299  0.00  0.00    -0.064 C 
ATOM     27  C   UNL     1      20.813  24.473  27.236  0.00  0.00    +0.066 C 
ENDBRANCH  19  20
ENDBRANCH  18  19
ENDBRANCH  14  15
ENDBRANCH  12  13
TORSDOF 6
ENDMDL
MODEL 4
REMARK VINA RESULT:      -8.1      2.986     13.995
REMARK  Name = C:\Users\Docking\Desktop\test protocol\1iep_ligandH.pdb
REMARK  8 active torsions:
REMARK  status: ('A' for Active; 'I' for Inactive)
REMARK    1  A    between atoms: _5  and  _11
REMARK    2  A    between atoms: _19  and  _21
REMARK    3  A    between atoms: _22  and  _66
REMARK    4  A    between atoms: _27  and  _30
REMARK    5  A    between atoms: _32  and  _33
REMARK    6  A    between atoms: _38  and  _43
REMARK    7  A    between atoms: _43  and  _46
REMARK    8  A    between atoms: _53  and  _55
REMARK                            x       y       z     vdW  Elec       q    Type
REMARK                         _______ _______ _______ _____ _____    ______ ____
ROOT
ATOM     10  C   UNL     1      19.154  29.158  21.512  0.00  0.00    +0.038 A 
ATOM     11  C   UNL     1      19.912  28.434  22.467  0.00  0.00    +0.047 A 
ATOM     12  C   UNL     1      19.349  28.079  23.761  0.00  0.00    +0.035 A 
ATOM     32  C   UNL     1      18.011  28.476  24.047  0.00  0.00    +0.024 A 
ATOM     33  C   UNL     1      17.226  29.213  23.088  0.00  0.00    +0.007 A 
ATOM     34  C   UNL     1      17.777  29.568  21.811  0.00  0.00    -0.029 A 
ATOM     35  C   UNL     1      16.892  30.365  20.824  0.00  0.00    +0.045 C 
ENDROOT
BRANCH  10   9
ATOM      4  C   UNL     1      21.064  32.285  18.411  0.00  0.00    +0.077 A 
ATOM      5  C   UNL     1      20.844  33.390  19.299  0.00  0.00    +0.048 A 
ATOM      6  C   UNL     1      20.230  33.113  20.541  0.00  0.00    +0.116 A 
ATOM      7  N   UNL     1      19.868  31.822  20.861  0.00  0.00    -0.223 NA
ATOM      8  C   UNL     1      20.093  30.779  19.981  0.00  0.00    +0.220 A 
ATOM      9  N   UNL     1      19.744  29.473  20.285  0.00  0.00    -0.283 N 
ATOM     36  H   UNL     1      19.920  28.733  19.606  0.00  0.00    +0.155 HD
ATOM     37  N   UNL     1      20.676  31.018  18.788  0.00  0.00    -0.214 NA
BRANCH   4   3
ATOM      1  C   UNL     1      23.149  33.624  15.384  0.00  0.00    +0.020 A 
ATOM      2  C   UNL     1      22.553  33.544  16.698  0.00  0.00    +0.013 A 
ATOM      3  C   UNL     1      21.705  32.417  17.064  0.00  0.00    +0.019 A 
ATOM     38  C   UNL     1      21.478  31.378  16.071  0.00  0.00    +0.120 A 
ATOM     39  N   UNL     1      22.064  31.483  14.813  0.00  0.00    -0.263 NA
ATOM     40  C   UNL     1      22.880  32.563  14.448  0.00  0.00    +0.111 A 
ENDBRANCH   4   3
ENDBRANCH  10   9
BRANCH  12  13
ATOM     13  N   UNL     1      20.073  27.352  24.774  0.00  0.00    -0.281 N 
ATOM     14  C   UNL     1      20.155  25.980  24.943  0.00  0.00    +0.248 C 
ATOM     30  O   UNL     1      19.440  25.170  24.372  0.00  0.00    -0.270 OA
ATOM     31  H   UNL     1      20.588  27.918  25.449  0.00  0.00    +0.155 HD
BRANCH  14  15
ATOM     15  C   UNL     1      21.168  25.428  25.894  0.00  0.00    +0.037 A 
ATOM     16  C   UNL     1      20.762  24.676  27.084  0.00  0.00    +0.013 A 
ATOM     17  C   UNL     1      21.759  24.169  27.993  0.00  0.00    +0.005 A 
ATOM     18  C   UNL     1      23.172  24.413  27.715  0.00  0.00    -0.033 A 
ATOM     28  C   UNL     1      23.547  25.158  26.525  0.00  0.00    +0.005 A 
ATOM     29  C   UNL     1      22.573  25.657  25.632  0.00  0.00    +0.013 A 
BRANCH  18  19
ATOM     19  C   UNL     1      24.303  23.928  28.642  0.00  0.00    +0.119 C 
BRANCH  19  20
ATOM     20  N   UNL     1      24.282  22.493  29.053  0.00  0.00    -0.302 NA
ATOM     21  C   UNL     1      23.284  22.234  30.186  0.00  0.00    +0.066 C 
ATOM     22  C   UNL     1      23.259  20.723  30.588  0.00  0.00    -0.064 C 
ATOM     23  N   UNL     1      24.666  20.283  30.994  0.00  0.00    +0.379 N 
ATOM     24  C   UNL     1      24.634  18.878  31.428  0.00  0.00    -0.096 C 
ATOM     25  H   UNL     1      24.974  20.901  31.870  0.00  0.00    -0.082 HD
ATOM     26  C   UNL     1      25.665  20.539  29.875  0.00  0.00    -0.064 C 
ATOM     27  C   UNL     1      25.661  22.038  29.463  0.00  0.00    +0.066 C 
ENDBRANCH  19  20
ENDBRANCH  18  19
ENDBRANCH  14  15
ENDBRANCH  12  13
TORSDOF 6
ENDMDL
MODEL 5
REMARK VINA RESULT:      -8.0      3.834     14.016
REMARK  Name = C:\Users\Docking\Desktop\test protocol\1iep_ligandH.pdb
REMARK  8 active torsions:
REMARK  status: ('A' for Active; 'I' for Inactive)
REMARK    1  A    between atoms: _5  and  _11
REMARK    2  A    between atoms: _19  and  _21
REMARK    3  A    between atoms: _22  and  _66
REMARK    4  A    between atoms: _27  and  _30
REMARK    5  A    between atoms: _32  and  _33
REMARK    6  A    between atoms: _38  and  _43
REMARK    7  A    between atoms: _43  and  _46
REMARK    8  A    between atoms: _53  and  _55
REMARK                            x       y       z     vdW  Elec       q    Type
REMARK                         _______ _______ _______ _____ _____    ______ ____
ROOT
ATOM     10  C   UNL     1      18.639  27.768  22.159  0.00  0.00    +0.038 A 
ATOM     11  C   UNL     1      19.529  27.066  23.012  0.00  0.00    +0.047 A 
ATOM     12  C   UNL     1      19.033  26.208  24.076  0.00  0.00    +0.035 A 
ATOM     32  C   UNL     1      17.622  26.085  24.242  0.00  0.00    +0.024 A 
ATOM     33  C   UNL     1      16.703  26.791  23.385  0.00  0.00    +0.007 A 
ATOM     34  C   UNL     1      17.187  27.641  22.335  0.00  0.00    -0.029 A 
ATOM     35  C   UNL     1      16.156  28.380  21.450  0.00  0.00    +0.045 C 
ENDROOT
BRANCH  10   9
ATOM      4  C   UNL     1      20.100  32.020  20.479  0.00  0.00    +0.077 A 
ATOM      5  C   UNL     1      19.749  32.689  21.699  0.00  0.00    +0.048 A 
ATOM      6  C   UNL     1      19.189  31.903  22.731  0.00  0.00    +0.116 A 
ATOM      7  N   UNL     1      18.999  30.551  22.547  0.00  0.00    -0.223 NA
ATOM      8  C   UNL     1      19.346  29.938  21.358  0.00  0.00    +0.220 A 
ATOM      9  N   UNL     1      19.171  28.578  21.153  0.00  0.00    -0.283 N 
ATOM     36  H   UNL     1      19.433  28.164  20.259  0.00  0.00    +0.155 HD
ATOM     37  N   UNL     1      19.881  30.666  20.355  0.00  0.00    -0.214 NA
BRANCH   4   3
ATOM      1  C   UNL     1      21.417  34.781  18.041  0.00  0.00    +0.020 A 
ATOM      2  C   UNL     1      20.825  34.162  19.205  0.00  0.00    +0.013 A 
ATOM      3  C   UNL     1      20.704  32.712  19.297  0.00  0.00    +0.019 A 
ATOM     38  C   UNL     1      21.197  31.911  18.187  0.00  0.00    +0.120 A 
ATOM     39  N   UNL     1      21.761  32.535  17.079  0.00  0.00    -0.263 NA
ATOM     40  C   UNL     1      21.881  33.929  16.978  0.00  0.00    +0.111 A 
ENDBRANCH   4   3
ENDBRANCH  10   9
BRANCH  12  13
ATOM     13  N   UNL     1      19.888  25.478  24.978  0.00  0.00    -0.281 N 
ATOM     14  C   UNL     1      21.152  25.828  25.424  0.00  0.00    +0.248 C 
ATOM     30  O   UNL     1      21.830  26.725  24.944  0.00  0.00    -0.270 OA
ATOM     31  H   UNL     1      19.517  24.596  25.331  0.00  0.00    +0.155 HD
BRANCH  14  15
ATOM     15  C   UNL     1      21.756  25.063  26.556  0.00  0.00    +0.037 A 
ATOM     16  C   UNL     1      20.932  24.231  27.437  0.00  0.00    +0.013 A 
ATOM     17  C   UNL     1      21.537  23.517  28.533  0.00  0.00    +0.005 A 
ATOM     18  C   UNL     1      22.977  23.630  28.753  0.00  0.00    -0.033 A 
ATOM     28  C   UNL     1      23.772  24.458  27.861  0.00  0.00    +0.005 A 
ATOM     29  C   UNL     1      23.182  25.161  26.787  0.00  0.00    +0.013 A 
BRANCH  18  19
ATOM     19  C   UNL     1      23.705  22.920  29.910  0.00  0.00    +0.119 C 
BRANCH  19  20
ATOM     20  N   UNL     1      24.681  21.849  29.549  0.00  0.00    -0.302 NA
ATOM     21  C   UNL     1      24.372  20.528  30.259  0.00  0.00    +0.066 C 
ATOM     22  C   UNL     1      25.390  19.412  29.853  0.00  0.00    -0.064 C 
ATOM     23  N   UNL     1      26.810  19.880  30.173  0.00  0.00    +0.379 N 
ATOM     24  C   UNL     1      27.764  18.811  29.846  0.00  0.00    -0.096 C 
ATOM     25  H   UNL     1      26.867  20.060  31.272  0.00  0.00    -0.082 HD
ATOM     26  C   UNL     1      27.124  21.195  29.474  0.00  0.00    -0.064 C 
ATOM     27  C   UNL     1      26.090  22.289  29.862  0.00  0.00    +0.066 C 
ENDBRANCH  19  20
ENDBRANCH  18  19
ENDBRANCH  14  15
ENDBRANCH  12  13
TORSDOF 6
ENDMDL
