MODEL 1
REMARK VINA RESULT:      -8.7      0.000      0.000
REMARK  Name = C:\Users\Docking\Desktop\test protocol\1iep_ligandH.pdb
REMARK  8 active torsions:
REMARK  status: ('A' for Active; 'I' for Inactive)
REMARK    1  A    between atoms: _5  and  _11
REMARK    2  A    between atoms: _19  and  _21
REMARK    3  A    between atoms: _22  and  _66
REMARK    4  A    between atoms: _27  and  _30
REMARK    5  A    between atoms: _32  and  _33
REMARK    6  A    between atoms: _38  and  _43
REMARK    7  A    between atoms: _43  and  _46
REMARK    8  A    between atoms: _53  and  _55
REMARK                            x       y       z     vdW  Elec       q    Type
REMARK                         _______ _______ _______ _____ _____    ______ ____
ROOT
ATOM     10  C   UNL     1      20.341  30.025  22.241  0.00  0.00    +0.038 A 
ATOM     11  C   UNL     1      20.777  30.082  20.893  0.00  0.00    +0.047 A 
ATOM     12  C   UNL     1      20.219  31.050  19.962  0.00  0.00    +0.035 A 
ATOM     32  C   UNL     1      19.220  31.948  20.439  0.00  0.00    +0.024 A 
ATOM     33  C   UNL     1      18.764  31.903  21.806  0.00  0.00    +0.007 A 
ATOM     34  C   UNL     1      19.309  30.948  22.728  0.00  0.00    -0.029 A 
ATOM     35  C   UNL     1      18.778  30.940  24.180  0.00  0.00    +0.045 C 
ENDROOT
BRANCH  10   9
ATOM      4  C   UNL     1      20.198  25.882  24.661  0.00  0.00    +0.077 A 
ATOM      5  C   UNL     1      18.865  25.599  24.214  0.00  0.00    +0.048 A 
ATOM      6  C   UNL     1      18.248  26.548  23.369  0.00  0.00    +0.116 A 
ATOM      7  N   UNL     1      18.924  27.692  23.003  0.00  0.00    -0.223 NA
ATOM      8  C   UNL     1      20.209  27.935  23.453  0.00  0.00    +0.220 A 
ATOM      9  N   UNL     1      20.911  29.075  23.091  0.00  0.00    -0.283 N 
ATOM     36  H   UNL     1      21.854  29.221  23.450  0.00  0.00    +0.155 HD
ATOM     37  N   UNL     1      20.819  27.045  24.262  0.00  0.00    -0.214 NA
BRANCH   4   3
ATOM      1  C   UNL     1      21.193  23.394  27.511  0.00  0.00    +0.020 A 
ATOM      2  C   UNL     1      20.389  24.259  26.678  0.00  0.00    +0.013 A 
ATOM      3  C   UNL     1      20.984  24.974  25.555  0.00  0.00    +0.019 A 
ATOM     38  C   UNL     1      22.405  24.790  25.301  0.00  0.00    +0.120 A 
ATOM     39  N   UNL     1      23.153  23.952  26.121  0.00  0.00    -0.263 NA
ATOM     40  C   UNL     1      22.593  23.260  27.205  0.00  0.00    +0.111 A 
ENDBRANCH   4   3
ENDBRANCH  10   9
BRANCH  12  13
ATOM     13  N   UNL     1      20.617  31.150  18.579  0.00  0.00    -0.281 N 
ATOM     14  C   UNL     1      21.305  32.183  17.964  0.00  0.00    +0.248 C 
ATOM     30  O   UNL     1      21.497  33.281  18.465  0.00  0.00    -0.270 OA
ATOM     31  H   UNL     1      20.360  30.364  17.982  0.00  0.00    +0.155 HD
BRANCH  14  15
ATOM     15  C   UNL     1      21.845  31.971  16.586  0.00  0.00    +0.037 A 
ATOM     16  C   UNL     1      21.223  31.017  15.665  0.00  0.00    +0.013 A 
ATOM     17  C   UNL     1      21.774  30.819  14.348  0.00  0.00    +0.005 A 
ATOM     18  C   UNL     1      22.955  31.578  13.944  0.00  0.00    -0.033 A 
ATOM     28  C   UNL     1      23.549  32.522  14.877  0.00  0.00    +0.005 A 
ATOM     29  C   UNL     1      23.012  32.718  16.169  0.00  0.00    +0.013 A 
BRANCH  18  19
ATOM     19  C   UNL     1      23.624  31.415  12.566  0.00  0.00    +0.119 C 
BRANCH  19  20
ATOM     20  N   UNL     1      23.344  32.466  11.542  0.00  0.00    -0.302 NA
ATOM     21  C   UNL     1      21.849  32.582  11.231  0.00  0.00    +0.066 C 
ATOM     22  C   UNL     1      21.573  33.701  10.175  0.00  0.00    -0.064 C 
ATOM     23  N   UNL     1      22.369  33.405   8.903  0.00  0.00    +0.379 N 
ATOM     24  C   UNL     1      22.067  34.424   7.887  0.00  0.00    -0.096 C 
ATOM     25  H   UNL     1      22.024  32.421   8.509  0.00  0.00    -0.082 HD
ATOM     26  C   UNL     1      23.857  33.286   9.203  0.00  0.00    -0.064 C 
ATOM     27  C   UNL     1      24.118  32.191  10.276  0.00  0.00    +0.066 C 
ENDBRANCH  19  20
ENDBRANCH  18  19
ENDBRANCH  14  15
ENDBRANCH  12  13
TORSDOF 6
ENDMDL
MODEL 2
REMARK VINA RESULT:      -8.6      1.753      2.593
REMARK  Name = C:\Users\Docking\Desktop\test protocol\1iep_ligandH.pdb
REMARK  8 active torsions:
REMARK  status: ('A' for Active; 'I' for Inactive)
REMARK    1  A    between atoms: _5  and  _11
REMARK    2  A    between atoms: _19  and  _21
REMARK    3  A    between atoms: _22  and  _66
REMARK    4  A    between atoms: _27  and  _30
REMARK    5  A    between atoms: _32  and  _33
REMARK    6  A    between atoms: _38  and  _43
REMARK    7  A    between atoms: _43  and  _46
REMARK    8  A    between atoms: _53  and  _55
REMARK                            x       y       z     vdW  Elec       q    Type
REMARK                         _______ _______ _______ _____ _____    ______ ____
ROOT
ATOM     10  C   UNL     1      20.143  29.933  22.338  0.00  0.00    +0.038 A 
ATOM     11  C   UNL     1      20.599  30.009  20.998  0.00  0.00    +0.047 A 
ATOM     12  C   UNL     1      20.014  30.951  20.056  0.00  0.00    +0.035 A 
ATOM     32  C   UNL     1      18.967  31.803  20.515  0.00  0.00    +0.024 A 
ATOM     33  C   UNL     1      18.491  31.738  21.874  0.00  0.00    +0.007 A 
ATOM     34  C   UNL     1      19.063  30.809  22.807  0.00  0.00    -0.029 A 
ATOM     35  C   UNL     1      18.508  30.779  24.250  0.00  0.00    +0.045 C 
ENDROOT
BRANCH  10   9
ATOM      4  C   UNL     1      20.156  25.777  24.740  0.00  0.00    +0.077 A 
ATOM      5  C   UNL     1      18.851  25.427  24.260  0.00  0.00    +0.048 A 
ATOM      6  C   UNL     1      18.207  26.347  23.402  0.00  0.00    +0.116 A 
ATOM      7  N   UNL     1      18.831  27.526  23.057  0.00  0.00    -0.223 NA
ATOM      8  C   UNL     1      20.090  27.834  23.540  0.00  0.00    +0.220 A 
ATOM      9  N   UNL     1      20.741  29.010  23.200  0.00  0.00    -0.283 N 
ATOM     36  H   UNL     1      21.666  29.204  23.583  0.00  0.00    +0.155 HD
ATOM     37  N   UNL     1      20.726  26.973  24.362  0.00  0.00    -0.214 NA
BRANCH   4   3
ATOM      1  C   UNL     1      21.233  23.432  27.680  0.00  0.00    +0.020 A 
ATOM      2  C   UNL     1      20.408  24.262  26.833  0.00  0.00    +0.013 A 
ATOM      3  C   UNL     1      20.966  24.908  25.651  0.00  0.00    +0.019 A 
ATOM     38  C   UNL     1      22.373  24.690  25.352  0.00  0.00    +0.120 A 
ATOM     39  N   UNL     1      23.143  23.886  26.186  0.00  0.00    -0.263 NA
ATOM     40  C   UNL     1      22.617  23.261  27.327  0.00  0.00    +0.111 A 
ENDBRANCH   4   3
ENDBRANCH  10   9
BRANCH  12  13
ATOM     13  N   UNL     1      20.430  31.067  18.680  0.00  0.00    -0.281 N 
ATOM     14  C   UNL     1      21.158  32.089  18.095  0.00  0.00    +0.248 C 
ATOM     30  O   UNL     1      21.381  33.169  18.622  0.00  0.00    -0.270 OA
ATOM     31  H   UNL     1      20.154  30.303  18.063  0.00  0.00    +0.155 HD
BRANCH  14  15
ATOM     15  C   UNL     1      21.707  31.889  16.719  0.00  0.00    +0.037 A 
ATOM     16  C   UNL     1      22.962  32.519  16.301  0.00  0.00    +0.013 A 
ATOM     17  C   UNL     1      23.459  32.323  14.963  0.00  0.00    +0.005 A 
ATOM     18  C   UNL     1      22.702  31.491  14.032  0.00  0.00    -0.033 A 
ATOM     28  C   UNL     1      21.462  30.873  14.474  0.00  0.00    +0.005 A 
ATOM     29  C   UNL     1      20.971  31.064  15.785  0.00  0.00    +0.013 A 
BRANCH  18  19
ATOM     19  C   UNL     1      23.147  31.244  12.578  0.00  0.00    +0.119 C 
BRANCH  19  20
ATOM     20  N   UNL     1      23.339  29.825  12.153  0.00  0.00    -0.302 NA
ATOM     21  C   UNL     1      24.680  29.614  11.446  0.00  0.00    +0.066 C 
ATOM     22  C   UNL     1      24.875  28.120  11.029  0.00  0.00    -0.064 C 
ATOM     23  N   UNL     1      23.715  27.690  10.129  0.00  0.00    +0.379 N 
ATOM     24  C   UNL     1      23.925  26.303   9.688  0.00  0.00    -0.096 C 
ATOM     25  H   UNL     1      23.730  28.339   9.223  0.00  0.00    -0.082 HD
ATOM     26  C   UNL     1      22.377  27.899  10.824  0.00  0.00    -0.064 C 
ATOM     27  C   UNL     1      22.206  29.381  11.261  0.00  0.00    +0.066 C 
ENDBRANCH  19  20
ENDBRANCH  18  19
ENDBRANCH  14  15
ENDBRANCH  12  13
TORSDOF 6
ENDMDL
MODEL 3
REMARK VINA RESULT:      -8.2      4.228     12.635
REMARK  Name = C:\Users\Docking\Desktop\test protocol\1iep_ligandH.pdb
REMARK  8 active torsions:
REMARK  status: ('A' for Active; 'I' for Inactive)
REMARK    1  A    between atoms: _5  and  _11
REMARK    2  A    between atoms: _19  and  _21
REMARK    3  A    between atoms: _22  and  _66
REMARK    4  A    between atoms: _27  and  _30
REMARK    5  A    between atoms: _32  and  _33
REMARK    6  A    between atoms: _38  and  _43
REMARK    7  A    between atoms: _43  and  _46
REMARK    8  A    between atoms: _53  and  _55
REMARK                            x       y       z     vdW  Elec       q    Type
REMARK                         _______ _______ _______ _____ _____    ______ ____
ROOT
ATOM     10  C   UNL     1      22.850  30.251  12.378  0.00  0.00    +0.038 A 
ATOM     11  C   UNL     1      22.246  30.123  13.655  0.00  0.00    +0.047 A 
ATOM     12  C   UNL     1      22.478  31.108  14.699  0.00  0.00    +0.035 A 
ATOM     32  C   UNL     1      23.327  32.215  14.408  0.00  0.00    +0.024 A 
ATOM     33  C   UNL     1      23.950  32.361  13.115  0.00  0.00    +0.007 A 
ATOM     34  C   UNL     1      23.728  31.390  12.082  0.00  0.00    -0.029 A 
ATOM     35  C   UNL     1      24.426  31.594  10.717  0.00  0.00    +0.045 C 
ENDROOT
BRANCH  10   9
ATOM      4  C   UNL     1      23.772  26.041  10.266  0.00  0.00    +0.077 A 
ATOM      5  C   UNL     1      24.875  25.775  11.143  0.00  0.00    +0.048 A 
ATOM      6  C   UNL     1      25.177  26.751  12.120  0.00  0.00    +0.116 A 
ATOM      7  N   UNL     1      24.425  27.902  12.204  0.00  0.00    -0.223 NA
ATOM      8  C   UNL     1      23.368  28.128  11.341  0.00  0.00    +0.220 A 
ATOM      9  N   UNL     1      22.593  29.275  11.412  0.00  0.00    -0.283 N 
ATOM     36  H   UNL     1      21.827  29.408  10.753  0.00  0.00    +0.155 HD
ATOM     37  N   UNL     1      23.061  27.213  10.399  0.00  0.00    -0.214 NA
BRANCH   4   3
ATOM      1  C   UNL     1      23.777  23.435   7.349  0.00  0.00    +0.020 A 
ATOM      2  C   UNL     1      24.259  24.325   8.380  0.00  0.00    +0.013 A 
ATOM      3  C   UNL     1      23.327  25.105   9.185  0.00  0.00    +0.019 A 
ATOM     38  C   UNL     1      21.904  24.960   8.919  0.00  0.00    +0.120 A 
ATOM     39  N   UNL     1      21.470  24.097   7.918  0.00  0.00    -0.263 NA
ATOM     40  C   UNL     1      22.357  23.342   7.136  0.00  0.00    +0.111 A 
ENDBRANCH   4   3
ENDBRANCH  10   9
BRANCH  12  13
ATOM     13  N   UNL     1      21.899  31.026  16.017  0.00  0.00    -0.281 N 
ATOM     14  C   UNL     1      20.822  31.738  16.520  0.00  0.00    +0.248 C 
ATOM     30  O   UNL     1      20.325  32.714  15.978  0.00  0.00    -0.270 OA
ATOM     31  H   UNL     1      22.335  30.363  16.657  0.00  0.00    +0.155 HD
BRANCH  14  15
ATOM     15  C   UNL     1      20.220  31.314  17.821  0.00  0.00    +0.037 A 
ATOM     16  C   UNL     1      19.259  30.210  17.889  0.00  0.00    +0.013 A 
ATOM     17  C   UNL     1      18.681  29.832  19.154  0.00  0.00    +0.005 A 
ATOM     18  C   UNL     1      19.063  30.559  20.362  0.00  0.00    -0.033 A 
ATOM     28  C   UNL     1      20.022  31.646  20.267  0.00  0.00    +0.005 A 
ATOM     29  C   UNL     1      20.591  32.020  19.029  0.00  0.00    +0.013 A 
BRANCH  18  19
ATOM     19  C   UNL     1      18.480  30.238  21.751  0.00  0.00    +0.119 C 
BRANCH  19  20
ATOM     20  N   UNL     1      18.631  28.838  22.249  0.00  0.00    -0.302 NA
ATOM     21  C   UNL     1      18.112  28.678  23.681  0.00  0.00    +0.066 C 
ATOM     22  C   UNL     1      18.257  27.203  24.178  0.00  0.00    -0.064 C 
ATOM     23  N   UNL     1      19.723  26.777  24.083  0.00  0.00    +0.379 N 
ATOM     24  C   UNL     1      19.871  25.410  24.603  0.00  0.00    -0.096 C 
ATOM     25  H   UNL     1      20.315  27.456  24.739  0.00  0.00    -0.082 HD
ATOM     26  C   UNL     1      20.247  26.935  22.662  0.00  0.00    -0.064 C 
ATOM     27  C   UNL     1      20.072  28.398  22.168  0.00  0.00    +0.066 C 
ENDBRANCH  19  20
ENDBRANCH  18  19
ENDBRANCH  14  15
ENDBRANCH  12  13
TORSDOF 6
ENDMDL
MODEL 4
REMARK VINA RESULT:      -8.0      4.546     12.956
REMARK  Name = C:\Users\Docking\Desktop\test protocol\1iep_ligandH.pdb
REMARK  8 active torsions:
REMARK  status: ('A' for Active; 'I' for Inactive)
REMARK    1  A    between atoms: _5  and  _11
REMARK    2  A    between atoms: _19  and  _21
REMARK    3  A    between atoms: _22  and  _66
REMARK    4  A    between atoms: _27  and  _30
REMARK    5  A    between atoms: _32  and  _33
REMARK    6  A    between atoms: _38  and  _43
REMARK    7  A    between atoms: _43  and  _46
REMARK    8  A    between atoms: _53  and  _55
REMARK                            x       y       z     vdW  Elec       q    Type
REMARK                         _______ _______ _______ _____ _____    ______ ____
ROOT
ATOM     10  C   UNL     1      23.184  30.258  11.354  0.00  0.00    +0.038 A 
ATOM     11  C   UNL     1      22.633  30.148  12.656  0.00  0.00    +0.047 A 
ATOM     12  C   UNL     1      22.819  31.200  13.643  0.00  0.00    +0.035 A 
ATOM     32  C   UNL     1      23.571  32.351  13.269  0.00  0.00    +0.024 A 
ATOM     33  C   UNL     1      24.140  32.479  11.950  0.00  0.00    +0.007 A 
ATOM     34  C   UNL     1      23.961  31.443  10.973  0.00  0.00    -0.029 A 
ATOM     35  C   UNL     1      24.599  31.631   9.577  0.00  0.00    +0.045 C 
ENDROOT
BRANCH  10   9
ATOM      4  C   UNL     1      24.215  25.923   9.570  0.00  0.00    +0.077 A 
ATOM      5  C   UNL     1      25.281  25.724  10.509  0.00  0.00    +0.048 A 
ATOM      6  C   UNL     1      25.536  26.765  11.431  0.00  0.00    +0.116 A 
ATOM      7  N   UNL     1      24.776  27.914  11.405  0.00  0.00    -0.223 NA
ATOM      8  C   UNL     1      23.756  28.074  10.484  0.00  0.00    +0.220 A 
ATOM      9  N   UNL     1      22.974  29.218  10.445  0.00  0.00    -0.283 N 
ATOM     36  H   UNL     1      22.237  29.301   9.746  0.00  0.00    +0.155 HD
ATOM     37  N   UNL     1      23.494  27.095   9.593  0.00  0.00    -0.214 NA
BRANCH   4   3
ATOM      1  C   UNL     1      24.361  23.227   6.739  0.00  0.00    +0.020 A 
ATOM      2  C   UNL     1      24.794  24.192   7.724  0.00  0.00    +0.013 A 
ATOM      3  C   UNL     1      23.822  24.914   8.536  0.00  0.00    +0.019 A 
ATOM     38  C   UNL     1      22.410  24.633   8.325  0.00  0.00    +0.120 A 
ATOM     39  N   UNL     1      22.023  23.700   7.369  0.00  0.00    -0.263 NA
ATOM     40  C   UNL     1      22.949  23.000   6.580  0.00  0.00    +0.111 A 
ENDBRANCH   4   3
ENDBRANCH  10   9
BRANCH  12  13
ATOM     13  N   UNL     1      22.290  31.140  14.983  0.00  0.00    -0.281 N 
ATOM     14  C   UNL     1      21.134  31.728  15.469  0.00  0.00    +0.248 C 
ATOM     30  O   UNL     1      20.487  32.577  14.873  0.00  0.00    -0.270 OA
ATOM     31  H   UNL     1      22.834  30.599  15.655  0.00  0.00    +0.155 HD
BRANCH  14  15
ATOM     15  C   UNL     1      20.631  31.327  16.818  0.00  0.00    +0.037 A 
ATOM     16  C   UNL     1      21.148  31.951  18.038  0.00  0.00    +0.013 A 
ATOM     17  C   UNL     1      20.658  31.533  19.328  0.00  0.00    +0.005 A 
ATOM     18  C   UNL     1      19.644  30.484  19.403  0.00  0.00    -0.033 A 
ATOM     28  C   UNL     1      19.144  29.886  18.176  0.00  0.00    +0.005 A 
ATOM     29  C   UNL     1      19.623  30.292  16.910  0.00  0.00    +0.013 A 
BRANCH  18  19
ATOM     19  C   UNL     1      19.079  29.961  20.737  0.00  0.00    +0.119 C 
BRANCH  19  20
ATOM     20  N   UNL     1      18.854  30.960  21.823  0.00  0.00    -0.302 NA
ATOM     21  C   UNL     1      20.070  31.089  22.746  0.00  0.00    +0.066 C 
ATOM     22  C   UNL     1      19.826  32.155  23.863  0.00  0.00    -0.064 C 
ATOM     23  N   UNL     1      18.578  31.776  24.662  0.00  0.00    +0.379 N 
ATOM     24  C   UNL     1      18.379  32.745  25.750  0.00  0.00    -0.096 C 
ATOM     25  H   UNL     1      18.763  30.779  25.126  0.00  0.00    -0.082 HD
ATOM     26  C   UNL     1      17.365  31.644  23.752  0.00  0.00    -0.064 C 
ATOM     27  C   UNL     1      17.629  30.603  22.628  0.00  0.00    +0.066 C 
ENDBRANCH  19  20
ENDBRANCH  18  19
ENDBRANCH  14  15
ENDBRANCH  12  13
TORSDOF 6
ENDMDL
MODEL 5
REMARK VINA RESULT:      -8.0     13.389     17.564
REMARK  Name = C:\Users\Docking\Desktop\test protocol\1iep_ligandH.pdb
REMARK  8 active torsions:
REMARK  status: ('A' for Active; 'I' for Inactive)
REMARK    1  A    between atoms: _5  and  _11
REMARK    2  A    between atoms: _19  and  _21
REMARK    3  A    between atoms: _22  and  _66
REMARK    4  A    between atoms: _27  and  _30
REMARK    5  A    between atoms: _32  and  _33
REMARK    6  A    between atoms: _38  and  _43
REMARK    7  A    between atoms: _43  and  _46
REMARK    8  A    between atoms: _53  and  _55
REMARK                            x       y       z     vdW  Elec       q    Type
REMARK                         _______ _______ _______ _____ _____    ______ ____
ROOT
ATOM     10  C   UNL     1      27.777  19.890  29.329  0.00  0.00    +0.038 A 
ATOM     11  C   UNL     1      26.383  20.131  29.424  0.00  0.00    +0.047 A 
ATOM     12  C   UNL     1      25.861  21.481  29.568  0.00  0.00    +0.035 A 
ATOM     32  C   UNL     1      26.788  22.563  29.609  0.00  0.00    +0.024 A 
ATOM     33  C   UNL     1      28.209  22.336  29.515  0.00  0.00    +0.007 A 
ATOM     34  C   UNL     1      28.730  21.006  29.375  0.00  0.00    -0.029 A 
ATOM     35  C   UNL     1      30.262  20.821  29.286  0.00  0.00    +0.045 C 
ENDROOT
BRANCH  10   9
ATOM      4  C   UNL     1      29.218  15.696  31.165  0.00  0.00    +0.077 A 
ATOM      5  C   UNL     1      29.098  16.177  32.512  0.00  0.00    +0.048 A 
ATOM      6  C   UNL     1      28.669  17.511  32.688  0.00  0.00    +0.116 A 
ATOM      7  N   UNL     1      28.384  18.297  31.593  0.00  0.00    -0.223 NA
ATOM      8  C   UNL     1      28.512  17.803  30.308  0.00  0.00    +0.220 A 
ATOM      9  N   UNL     1      28.224  18.573  29.192  0.00  0.00    -0.283 N 
ATOM     36  H   UNL     1      28.338  18.174  28.260  0.00  0.00    +0.155 HD
ATOM     37  N   UNL     1      28.922  16.532  30.113  0.00  0.00    -0.214 NA
BRANCH   4   3
ATOM      1  C   UNL     1      31.168  12.305  31.086  0.00  0.00    +0.020 A 
ATOM      2  C   UNL     1      30.786  13.648  31.460  0.00  0.00    +0.013 A 
ATOM      3  C   UNL     1      29.657  14.308  30.816  0.00  0.00    +0.019 A 
ATOM     38  C   UNL     1      28.929  13.575  29.791  0.00  0.00    +0.120 A 
ATOM     39  N   UNL     1      29.320  12.284  29.450  0.00  0.00    -0.263 NA
ATOM     40  C   UNL     1      30.406  11.640  30.062  0.00  0.00    +0.111 A 
ENDBRANCH   4   3
ENDBRANCH  10   9
BRANCH  12  13
ATOM     13  N   UNL     1      24.456  21.787  29.678  0.00  0.00    -0.281 N 
ATOM     14  C   UNL     1      23.749  22.787  29.031  0.00  0.00    +0.248 C 
ATOM     30  O   UNL     1      24.263  23.711  28.419  0.00  0.00    -0.270 OA
ATOM     31  H   UNL     1      23.917  21.193  30.309  0.00  0.00    +0.155 HD
BRANCH  14  15
ATOM     15  C   UNL     1      22.256  22.766  29.083  0.00  0.00    +0.037 A 
ATOM     16  C   UNL     1      21.539  21.813  29.935  0.00  0.00    +0.013 A 
ATOM     17  C   UNL     1      20.098  21.802  29.954  0.00  0.00    +0.005 A 
ATOM     18  C   UNL     1      19.363  22.750  29.119  0.00  0.00    -0.033 A 
ATOM     28  C   UNL     1      20.100  23.687  28.287  0.00  0.00    +0.005 A 
ATOM     29  C   UNL     1      21.512  23.700  28.265  0.00  0.00    +0.013 A 
BRANCH  18  19
ATOM     19  C   UNL     1      17.825  22.795  29.060  0.00  0.00    +0.119 C 
BRANCH  19  20
ATOM     20  N   UNL     1      17.100  23.087  30.333  0.00  0.00    -0.302 NA
ATOM     21  C   UNL     1      15.595  23.258  30.111  0.00  0.00    +0.066 C 
ATOM     22  C   UNL     1      14.850  23.540  31.456  0.00  0.00    -0.064 C 
ATOM     23  N   UNL     1      15.445  24.786  32.113  0.00  0.00    +0.379 N 
ATOM     24  C   UNL     1      14.708  25.088  33.349  0.00  0.00    -0.096 C 
ATOM     25  H   UNL     1      15.296  25.641  31.414  0.00  0.00    -0.082 HD
ATOM     26  C   UNL     1      16.942  24.626  32.335  0.00  0.00    -0.064 C 
ATOM     27  C   UNL     1      17.669  24.317  30.997  0.00  0.00    +0.066 C 
ENDBRANCH  19  20
ENDBRANCH  18  19
ENDBRANCH  14  15
ENDBRANCH  12  13
TORSDOF 6
ENDMDL
