MODEL 1
REMARK VINA RESULT:      -8.7      0.000      0.000
REMARK  Name = C:\Users\Docking\Desktop\test protocol\1iep_ligandH.pdb
REMARK  8 active torsions:
REMARK  status: ('A' for Active; 'I' for Inactive)
REMARK    1  A    between atoms: _5  and  _11
REMARK    2  A    between atoms: _19  and  _21
REMARK    3  A    between atoms: _22  and  _66
REMARK    4  A    between atoms: _27  and  _30
REMARK    5  A    between atoms: _32  and  _33
REMARK    6  A    between atoms: _38  and  _43
REMARK    7  A    between atoms: _43  and  _46
REMARK    8  A    between atoms: _53  and  _55
REMARK                            x       y       z     vdW  Elec       q    Type
REMARK                         _______ _______ _______ _____ _____    ______ ____
ROOT
ATOM     10  C   UNL     1      20.200  30.196  22.185  0.00  0.00    +0.038 A 
ATOM     11  C   UNL     1      20.717  30.314  20.870  0.00  0.00    +0.047 A 
ATOM     12  C   UNL     1      20.139  31.247  19.915  0.00  0.00    +0.035 A 
ATOM     32  C   UNL     1      19.036  32.047  20.334  0.00  0.00    +0.024 A 
ATOM     33  C   UNL     1      18.497  31.939  21.667  0.00  0.00    +0.007 A 
ATOM     34  C   UNL     1      19.062  31.018  22.613  0.00  0.00    -0.029 A 
ATOM     35  C   UNL     1      18.439  30.940  24.026  0.00  0.00    +0.045 C 
ENDROOT
BRANCH  10   9
ATOM      4  C   UNL     1      20.208  26.065  24.629  0.00  0.00    +0.077 A 
ATOM      5  C   UNL     1      18.908  25.705  24.140  0.00  0.00    +0.048 A 
ATOM      6  C   UNL     1      18.268  26.614  23.268  0.00  0.00    +0.116 A 
ATOM      7  N   UNL     1      18.891  27.792  22.917  0.00  0.00    -0.223 NA
ATOM      8  C   UNL     1      20.145  28.109  23.407  0.00  0.00    +0.220 A 
ATOM      9  N   UNL     1      20.794  29.284  23.061  0.00  0.00    -0.283 N 
ATOM     36  H   UNL     1      21.715  29.485  23.449  0.00  0.00    +0.155 HD
ATOM     37  N   UNL     1      20.776  27.259  24.243  0.00  0.00    -0.214 NA
BRANCH   4   3
ATOM      1  C   UNL     1      21.248  23.671  27.542  0.00  0.00    +0.020 A 
ATOM      2  C   UNL     1      20.426  24.486  26.677  0.00  0.00    +0.013 A 
ATOM      3  C   UNL     1      21.013  25.208  25.555  0.00  0.00    +0.019 A 
ATOM     38  C   UNL     1      22.446  25.082  25.333  0.00  0.00    +0.120 A 
ATOM     39  N   UNL     1      23.212  24.290  26.183  0.00  0.00    -0.263 NA
ATOM     40  C   UNL     1      22.659  23.593  27.267  0.00  0.00    +0.111 A 
ENDBRANCH   4   3
ENDBRANCH  10   9
BRANCH  12  13
ATOM     13  N   UNL     1      20.617  31.405  18.563  0.00  0.00    -0.281 N 
ATOM     14  C   UNL     1      21.156  32.539  17.978  0.00  0.00    +0.248 C 
ATOM     30  O   UNL     1      21.112  33.657  18.468  0.00  0.00    -0.270 OA
ATOM     31  H   UNL     1      20.549  30.581  17.966  0.00  0.00    +0.155 HD
BRANCH  14  15
ATOM     15  C   UNL     1      21.828  32.415  16.648  0.00  0.00    +0.037 A 
ATOM     16  C   UNL     1      23.024  33.197  16.326  0.00  0.00    +0.013 A 
ATOM     17  C   UNL     1      23.643  33.071  15.030  0.00  0.00    +0.005 A 
ATOM     18  C   UNL     1      23.067  32.156  14.047  0.00  0.00    -0.033 A 
ATOM     28  C   UNL     1      21.883  31.388  14.396  0.00  0.00    +0.005 A 
ATOM     29  C   UNL     1      21.273  31.510  15.664  0.00  0.00    +0.013 A 
BRANCH  18  19
ATOM     19  C   UNL     1      23.648  31.974  12.633  0.00  0.00    +0.119 C 
BRANCH  19  20
ATOM     20  N   UNL     1      23.351  33.038  11.629  0.00  0.00    -0.302 NA
ATOM     21  C   UNL     1      21.948  32.890  11.032  0.00  0.00    +0.066 C 
ATOM     22  C   UNL     1      21.646  34.025  10.000  0.00  0.00    -0.064 C 
ATOM     23  N   UNL     1      22.707  34.006   8.899  0.00  0.00    +0.379 N 
ATOM     24  C   UNL     1      22.393  35.034   7.897  0.00  0.00    -0.096 C 
ATOM     25  H   UNL     1      22.653  33.013   8.394  0.00  0.00    -0.082 HD
ATOM     26  C   UNL     1      24.105  34.150   9.484  0.00  0.00    -0.064 C 
ATOM     27  C   UNL     1      24.385  33.035  10.530  0.00  0.00    +0.066 C 
ENDBRANCH  19  20
ENDBRANCH  18  19
ENDBRANCH  14  15
ENDBRANCH  12  13
TORSDOF 6
ENDMDL
MODEL 2
REMARK VINA RESULT:      -8.4      2.281      3.080
REMARK  Name = C:\Users\Docking\Desktop\test protocol\1iep_ligandH.pdb
REMARK  8 active torsions:
REMARK  status: ('A' for Active; 'I' for Inactive)
REMARK    1  A    between atoms: _5  and  _11
REMARK    2  A    between atoms: _19  and  _21
REMARK    3  A    between atoms: _22  and  _66
REMARK    4  A    between atoms: _27  and  _30
REMARK    5  A    between atoms: _32  and  _33
REMARK    6  A    between atoms: _38  and  _43
REMARK    7  A    between atoms: _43  and  _46
REMARK    8  A    between atoms: _53  and  _55
REMARK                            x       y       z     vdW  Elec       q    Type
REMARK                         _______ _______ _______ _____ _____    ______ ____
ROOT
ATOM     10  C   UNL     1      20.216  30.355  22.250  0.00  0.00    +0.038 A 
ATOM     11  C   UNL     1      20.482  30.304  20.858  0.00  0.00    +0.047 A 
ATOM     12  C   UNL     1      19.891  31.267  19.943  0.00  0.00    +0.035 A 
ATOM     32  C   UNL     1      19.034  32.272  20.480  0.00  0.00    +0.024 A 
ATOM     33  C   UNL     1      18.752  32.338  21.892  0.00  0.00    +0.007 A 
ATOM     34  C   UNL     1      19.330  31.389  22.800  0.00  0.00    -0.029 A 
ATOM     35  C   UNL     1      18.987  31.504  24.303  0.00  0.00    +0.045 C 
ENDROOT
BRANCH  10   9
ATOM      4  C   UNL     1      20.161  26.190  24.634  0.00  0.00    +0.077 A 
ATOM      5  C   UNL     1      18.825  25.893  24.205  0.00  0.00    +0.048 A 
ATOM      6  C   UNL     1      18.184  26.842  23.377  0.00  0.00    +0.116 A 
ATOM      7  N   UNL     1      18.840  27.998  23.012  0.00  0.00    -0.223 NA
ATOM      8  C   UNL     1      20.128  28.253  23.445  0.00  0.00    +0.220 A 
ATOM      9  N   UNL     1      20.810  29.405  23.084  0.00  0.00    -0.283 N 
ATOM     36  H   UNL     1      21.757  29.560  23.430  0.00  0.00    +0.155 HD
ATOM     37  N   UNL     1      20.762  27.364  24.237  0.00  0.00    -0.214 NA
BRANCH   4   3
ATOM      1  C   UNL     1      21.229  23.688  27.445  0.00  0.00    +0.020 A 
ATOM      2  C   UNL     1      20.403  24.550  26.632  0.00  0.00    +0.013 A 
ATOM      3  C   UNL     1      20.972  25.284  25.509  0.00  0.00    +0.019 A 
ATOM     38  C   UNL     1      22.391  25.122  25.233  0.00  0.00    +0.120 A 
ATOM     39  N   UNL     1      23.163  24.286  26.034  0.00  0.00    -0.263 NA
ATOM     40  C   UNL     1      22.626  23.576  27.119  0.00  0.00    +0.111 A 
ENDBRANCH   4   3
ENDBRANCH  10   9
BRANCH  12  13
ATOM     13  N   UNL     1      20.118  31.259  18.519  0.00  0.00    -0.281 N 
ATOM     14  C   UNL     1      20.950  32.089  17.785  0.00  0.00    +0.248 C 
ATOM     30  O   UNL     1      21.465  33.109  18.217  0.00  0.00    -0.270 OA
ATOM     31  H   UNL     1      19.604  30.556  17.988  0.00  0.00    +0.155 HD
BRANCH  14  15
ATOM     15  C   UNL     1      21.240  31.743  16.360  0.00  0.00    +0.037 A 
ATOM     16  C   UNL     1      20.365  30.844  15.603  0.00  0.00    +0.013 A 
ATOM     17  C   UNL     1      20.677  30.514  14.235  0.00  0.00    +0.005 A 
ATOM     18  C   UNL     1      21.870  31.085  13.614  0.00  0.00    -0.033 A 
ATOM     28  C   UNL     1      22.717  31.979  14.386  0.00  0.00    +0.005 A 
ATOM     29  C   UNL     1      22.415  32.304  15.728  0.00  0.00    +0.013 A 
BRANCH  18  19
ATOM     19  C   UNL     1      22.291  30.771  12.166  0.00  0.00    +0.119 C 
BRANCH  19  20
ATOM     20  N   UNL     1      22.722  29.373  11.868  0.00  0.00    -0.302 NA
ATOM     21  C   UNL     1      23.636  29.303  10.642  0.00  0.00    +0.066 C 
ATOM     22  C   UNL     1      24.096  27.836  10.357  0.00  0.00    -0.064 C 
ATOM     23  N   UNL     1      22.866  26.947  10.166  0.00  0.00    +0.379 N 
ATOM     24  C   UNL     1      23.295  25.579   9.841  0.00  0.00    -0.096 C 
ATOM     25  H   UNL     1      22.297  27.341   9.292  0.00  0.00    -0.082 HD
ATOM     26  C   UNL     1      21.949  27.013  11.380  0.00  0.00    -0.064 C 
ATOM     27  C   UNL     1      21.522  28.479  11.672  0.00  0.00    +0.066 C 
ENDBRANCH  19  20
ENDBRANCH  18  19
ENDBRANCH  14  15
ENDBRANCH  12  13
TORSDOF 6
ENDMDL
MODEL 3
REMARK VINA RESULT:      -8.0      1.633      2.282
REMARK  Name = C:\Users\Docking\Desktop\test protocol\1iep_ligandH.pdb
REMARK  8 active torsions:
REMARK  status: ('A' for Active; 'I' for Inactive)
REMARK    1  A    between atoms: _5  and  _11
REMARK    2  A    between atoms: _19  and  _21
REMARK    3  A    between atoms: _22  and  _66
REMARK    4  A    between atoms: _27  and  _30
REMARK    5  A    between atoms: _32  and  _33
REMARK    6  A    between atoms: _38  and  _43
REMARK    7  A    between atoms: _43  and  _46
REMARK    8  A    between atoms: _53  and  _55
REMARK                            x       y       z     vdW  Elec       q    Type
REMARK                         _______ _______ _______ _____ _____    ______ ____
ROOT
ATOM     10  C   UNL     1      20.203  29.928  22.476  0.00  0.00    +0.038 A 
ATOM     11  C   UNL     1      20.511  29.843  21.094  0.00  0.00    +0.047 A 
ATOM     12  C   UNL     1      19.945  30.781  20.138  0.00  0.00    +0.035 A 
ATOM     32  C   UNL     1      19.072  31.797  20.624  0.00  0.00    +0.024 A 
ATOM     33  C   UNL     1      18.747  31.898  22.026  0.00  0.00    +0.007 A 
ATOM     34  C   UNL     1      19.300  30.973  22.973  0.00  0.00    -0.029 A 
ATOM     35  C   UNL     1      18.912  31.124  24.463  0.00  0.00    +0.045 C 
ENDROOT
BRANCH  10   9
ATOM      4  C   UNL     1      20.101  25.804  24.929  0.00  0.00    +0.077 A 
ATOM      5  C   UNL     1      18.788  25.483  24.450  0.00  0.00    +0.048 A 
ATOM      6  C   UNL     1      18.170  26.409  23.580  0.00  0.00    +0.116 A 
ATOM      7  N   UNL     1      18.827  27.566  23.222  0.00  0.00    -0.223 NA
ATOM      8  C   UNL     1      20.092  27.846  23.703  0.00  0.00    +0.220 A 
ATOM      9  N   UNL     1      20.774  29.000  23.350  0.00  0.00    -0.283 N 
ATOM     36  H   UNL     1      21.704  29.174  23.733  0.00  0.00    +0.155 HD
ATOM     37  N   UNL     1      20.703  26.978  24.537  0.00  0.00    -0.214 NA
BRANCH   4   3
ATOM      1  C   UNL     1      21.111  23.472  27.903  0.00  0.00    +0.020 A 
ATOM      2  C   UNL     1      20.310  24.314  27.045  0.00  0.00    +0.013 A 
ATOM      3  C   UNL     1      20.886  24.924  25.853  0.00  0.00    +0.019 A 
ATOM     38  C   UNL     1      22.285  24.659  25.555  0.00  0.00    +0.120 A 
ATOM     39  N   UNL     1      23.032  23.846  26.401  0.00  0.00    -0.263 NA
ATOM     40  C   UNL     1      22.490  23.254  27.551  0.00  0.00    +0.111 A 
ENDBRANCH   4   3
ENDBRANCH  10   9
BRANCH  12  13
ATOM     13  N   UNL     1      20.215  30.739  18.722  0.00  0.00    -0.281 N 
ATOM     14  C   UNL     1      19.379  30.299  17.709  0.00  0.00    +0.248 C 
ATOM     30  O   UNL     1      18.346  29.673  17.888  0.00  0.00    -0.270 OA
ATOM     31  H   UNL     1      21.134  31.074  18.432  0.00  0.00    +0.155 HD
BRANCH  14  15
ATOM     15  C   UNL     1      19.753  30.584  16.290  0.00  0.00    +0.037 A 
ATOM     16  C   UNL     1      19.445  29.635  15.217  0.00  0.00    +0.013 A 
ATOM     17  C   UNL     1      19.832  29.927  13.860  0.00  0.00    +0.005 A 
ATOM     18  C   UNL     1      20.531  31.175  13.567  0.00  0.00    -0.033 A 
ATOM     28  C   UNL     1      20.820  32.102  14.649  0.00  0.00    +0.005 A 
ATOM     29  C   UNL     1      20.443  31.819  15.981  0.00  0.00    +0.013 A 
BRANCH  18  19
ATOM     19  C   UNL     1      21.000  31.559  12.151  0.00  0.00    +0.119 C 
BRANCH  19  20
ATOM     20  N   UNL     1      22.437  31.928  11.984  0.00  0.00    -0.302 NA
ATOM     21  C   UNL     1      22.676  32.744  10.710  0.00  0.00    +0.066 C 
ATOM     22  C   UNL     1      24.181  33.141  10.562  0.00  0.00    -0.064 C 
ATOM     23  N   UNL     1      25.042  31.877  10.565  0.00  0.00    +0.379 N 
ATOM     24  C   UNL     1      26.452  32.243  10.368  0.00  0.00    -0.096 C 
ATOM     25  H   UNL     1      24.729  31.254   9.695  0.00  0.00    -0.082 HD
ATOM     26  C   UNL     1      24.809  31.058  11.827  0.00  0.00    -0.064 C 
ATOM     27  C   UNL     1      23.305  30.694  11.979  0.00  0.00    +0.066 C 
ENDBRANCH  19  20
ENDBRANCH  18  19
ENDBRANCH  14  15
ENDBRANCH  12  13
TORSDOF 6
ENDMDL
MODEL 4
REMARK VINA RESULT:      -8.0     13.574     17.743
REMARK  Name = C:\Users\Docking\Desktop\test protocol\1iep_ligandH.pdb
REMARK  8 active torsions:
REMARK  status: ('A' for Active; 'I' for Inactive)
REMARK    1  A    between atoms: _5  and  _11
REMARK    2  A    between atoms: _19  and  _21
REMARK    3  A    between atoms: _22  and  _66
REMARK    4  A    between atoms: _27  and  _30
REMARK    5  A    between atoms: _32  and  _33
REMARK    6  A    between atoms: _38  and  _43
REMARK    7  A    between atoms: _43  and  _46
REMARK    8  A    between atoms: _53  and  _55
REMARK                            x       y       z     vdW  Elec       q    Type
REMARK                         _______ _______ _______ _____ _____    ______ ____
ROOT
ATOM     10  C   UNL     1      27.708  19.952  29.311  0.00  0.00    +0.038 A 
ATOM     11  C   UNL     1      26.318  20.204  29.428  0.00  0.00    +0.047 A 
ATOM     12  C   UNL     1      25.808  21.558  29.578  0.00  0.00    +0.035 A 
ATOM     32  C   UNL     1      26.744  22.633  29.602  0.00  0.00    +0.024 A 
ATOM     33  C   UNL     1      28.161  22.395  29.485  0.00  0.00    +0.007 A 
ATOM     34  C   UNL     1      28.670  21.061  29.340  0.00  0.00    -0.029 A 
ATOM     35  C   UNL     1      30.199  20.864  29.226  0.00  0.00    +0.045 C 
ENDROOT
BRANCH  10   9
ATOM      4  C   UNL     1      29.177  15.761  31.131  0.00  0.00    +0.077 A 
ATOM      5  C   UNL     1      29.099  16.250  32.477  0.00  0.00    +0.048 A 
ATOM      6  C   UNL     1      28.684  17.589  32.658  0.00  0.00    +0.116 A 
ATOM      7  N   UNL     1      28.372  18.370  31.566  0.00  0.00    -0.223 NA
ATOM      8  C   UNL     1      28.459  17.867  30.281  0.00  0.00    +0.220 A 
ATOM      9  N   UNL     1      28.142  18.632  29.169  0.00  0.00    -0.283 N 
ATOM     36  H   UNL     1      28.227  18.226  28.238  0.00  0.00    +0.155 HD
ATOM     37  N   UNL     1      28.855  16.592  30.082  0.00  0.00    -0.214 NA
BRANCH   4   3
ATOM      1  C   UNL     1      29.827  11.906  31.282  0.00  0.00    +0.020 A 
ATOM      2  C   UNL     1      29.404  13.232  31.671  0.00  0.00    +0.013 A 
ATOM      3  C   UNL     1      29.597  14.367  30.778  0.00  0.00    +0.019 A 
ATOM     38  C   UNL     1      30.225  14.126  29.488  0.00  0.00    +0.120 A 
ATOM     39  N   UNL     1      30.623  12.839  29.141  0.00  0.00    -0.263 NA
ATOM     40  C   UNL     1      30.444  11.738  29.993  0.00  0.00    +0.111 A 
ENDBRANCH   4   3
ENDBRANCH  10   9
BRANCH  12  13
ATOM     13  N   UNL     1      24.407  21.874  29.709  0.00  0.00    -0.281 N 
ATOM     14  C   UNL     1      23.695  22.871  29.062  0.00  0.00    +0.248 C 
ATOM     30  O   UNL     1      24.204  23.784  28.428  0.00  0.00    -0.270 OA
ATOM     31  H   UNL     1      23.877  21.293  30.357  0.00  0.00    +0.155 HD
BRANCH  14  15
ATOM     15  C   UNL     1      22.203  22.860  29.142  0.00  0.00    +0.037 A 
ATOM     16  C   UNL     1      21.495  21.904  29.997  0.00  0.00    +0.013 A 
ATOM     17  C   UNL     1      20.054  21.904  30.043  0.00  0.00    +0.005 A 
ATOM     18  C   UNL     1      19.311  22.865  29.232  0.00  0.00    -0.033 A 
ATOM     28  C   UNL     1      20.039  23.807  28.397  0.00  0.00    +0.005 A 
ATOM     29  C   UNL     1      21.451  23.809  28.349  0.00  0.00    +0.013 A 
BRANCH  18  19
ATOM     19  C   UNL     1      17.773  22.923  29.203  0.00  0.00    +0.119 C 
BRANCH  19  20
ATOM     20  N   UNL     1      17.076  23.257  30.481  0.00  0.00    -0.302 NA
ATOM     21  C   UNL     1      15.564  23.400  30.291  0.00  0.00    +0.066 C 
ATOM     22  C   UNL     1      14.849  23.727  31.642  0.00  0.00    -0.064 C 
ATOM     23  N   UNL     1      15.444  25.006  32.234  0.00  0.00    +0.379 N 
ATOM     24  C   UNL     1      14.734  25.349  33.476  0.00  0.00    -0.096 C 
ATOM     25  H   UNL     1      15.266  25.831  31.505  0.00  0.00    -0.082 HD
ATOM     26  C   UNL     1      16.948  24.874  32.424  0.00  0.00    -0.064 C 
ATOM     27  C   UNL     1      17.645  24.520  31.081  0.00  0.00    +0.066 C 
ENDBRANCH  19  20
ENDBRANCH  18  19
ENDBRANCH  14  15
ENDBRANCH  12  13
TORSDOF 6
ENDMDL
MODEL 5
REMARK VINA RESULT:      -8.0      4.296     12.537
REMARK  Name = C:\Users\Docking\Desktop\test protocol\1iep_ligandH.pdb
REMARK  8 active torsions:
REMARK  status: ('A' for Active; 'I' for Inactive)
REMARK    1  A    between atoms: _5  and  _11
REMARK    2  A    between atoms: _19  and  _21
REMARK    3  A    between atoms: _22  and  _66
REMARK    4  A    between atoms: _27  and  _30
REMARK    5  A    between atoms: _32  and  _33
REMARK    6  A    between atoms: _38  and  _43
REMARK    7  A    between atoms: _43  and  _46
REMARK    8  A    between atoms: _53  and  _55
REMARK                            x       y       z     vdW  Elec       q    Type
REMARK                         _______ _______ _______ _____ _____    ______ ____
ROOT
ATOM     10  C   UNL     1      22.523  30.687  12.663  0.00  0.00    +0.038 A 
ATOM     11  C   UNL     1      22.001  30.637  13.981  0.00  0.00    +0.047 A 
ATOM     12  C   UNL     1      22.371  31.632  14.976  0.00  0.00    +0.035 A 
ATOM     32  C   UNL     1      23.273  32.666  14.593  0.00  0.00    +0.024 A 
ATOM     33  C   UNL     1      23.815  32.732  13.259  0.00  0.00    +0.007 A 
ATOM     34  C   UNL     1      23.456  31.752  12.274  0.00  0.00    -0.029 A 
ATOM     35  C   UNL     1      24.072  31.869  10.860  0.00  0.00    +0.045 C 
ENDROOT
BRANCH  10   9
ATOM      4  C   UNL     1      23.121  26.448  10.493  0.00  0.00    +0.077 A 
ATOM      5  C   UNL     1      24.325  26.177  11.225  0.00  0.00    +0.048 A 
ATOM      6  C   UNL     1      24.761  27.157  12.145  0.00  0.00    +0.116 A 
ATOM      7  N   UNL     1      24.038  28.318  12.312  0.00  0.00    -0.223 NA
ATOM      8  C   UNL     1      22.882  28.549  11.590  0.00  0.00    +0.220 A 
ATOM      9  N   UNL     1      22.135  29.706  11.748  0.00  0.00    -0.283 N 
ATOM     36  H   UNL     1      21.292  29.843  11.191  0.00  0.00    +0.155 HD
ATOM     37  N   UNL     1      22.446  27.630  10.704  0.00  0.00    -0.214 NA
BRANCH   4   3
ATOM      1  C   UNL     1      22.695  24.001   7.471  0.00  0.00    +0.020 A 
ATOM      2  C   UNL     1      23.313  24.903   8.416  0.00  0.00    +0.013 A 
ATOM      3  C   UNL     1      22.532  25.509   9.488  0.00  0.00    +0.019 A 
ATOM     38  C   UNL     1      21.118  25.178   9.576  0.00  0.00    +0.120 A 
ATOM     39  N   UNL     1      20.550  24.308   8.651  0.00  0.00    -0.263 NA
ATOM     40  C   UNL     1      21.291  23.720   7.615  0.00  0.00    +0.111 A 
ENDBRANCH   4   3
ENDBRANCH  10   9
BRANCH  12  13
ATOM     13  N   UNL     1      21.879  31.627  16.331  0.00  0.00    -0.281 N 
ATOM     14  C   UNL     1      20.859  32.394  16.870  0.00  0.00    +0.248 C 
ATOM     30  O   UNL     1      20.354  33.359  16.316  0.00  0.00    -0.270 OA
ATOM     31  H   UNL     1      22.338  30.979  16.971  0.00  0.00    +0.155 HD
BRANCH  14  15
ATOM     15  C   UNL     1      20.333  32.047  18.225  0.00  0.00    +0.037 A 
ATOM     16  C   UNL     1      20.264  33.049  19.292  0.00  0.00    +0.013 A 
ATOM     17  C   UNL     1      19.769  32.683  20.596  0.00  0.00    +0.005 A 
ATOM     18  C   UNL     1      19.336  31.309  20.838  0.00  0.00    -0.033 A 
ATOM     28  C   UNL     1      19.410  30.337  19.760  0.00  0.00    +0.005 A 
ATOM     29  C   UNL     1      19.897  30.691  18.482  0.00  0.00    +0.013 A 
BRANCH  18  19
ATOM     19  C   UNL     1      18.814  30.825  22.204  0.00  0.00    +0.119 C 
BRANCH  19  20
ATOM     20  N   UNL     1      18.935  29.368  22.506  0.00  0.00    -0.302 NA
ATOM     21  C   UNL     1      17.568  28.692  22.637  0.00  0.00    +0.066 C 
ATOM     22  C   UNL     1      17.714  27.163  22.930  0.00  0.00    -0.064 C 
ATOM     23  N   UNL     1      18.539  26.968  24.203  0.00  0.00    +0.379 N 
ATOM     24  C   UNL     1      18.629  25.533  24.513  0.00  0.00    -0.096 C 
ATOM     25  H   UNL     1      17.992  27.461  25.040  0.00  0.00    -0.082 HD
ATOM     26  C   UNL     1      19.900  27.639  24.082  0.00  0.00    -0.064 C 
ATOM     27  C   UNL     1      19.743  29.151  23.761  0.00  0.00    +0.066 C 
ENDBRANCH  19  20
ENDBRANCH  18  19
ENDBRANCH  14  15
ENDBRANCH  12  13
TORSDOF 6
ENDMDL
