MODEL 1
REMARK VINA RESULT:      -8.7      0.000      0.000
REMARK  Name = C:\Users\Docking\Desktop\test protocol\1iep_ligandH.pdb
REMARK  8 active torsions:
REMARK  status: ('A' for Active; 'I' for Inactive)
REMARK    1  A    between atoms: _5  and  _11
REMARK    2  A    between atoms: _19  and  _21
REMARK    3  A    between atoms: _22  and  _66
REMARK    4  A    between atoms: _27  and  _30
REMARK    5  A    between atoms: _32  and  _33
REMARK    6  A    between atoms: _38  and  _43
REMARK    7  A    between atoms: _43  and  _46
REMARK    8  A    between atoms: _53  and  _55
REMARK                            x       y       z     vdW  Elec       q    Type
REMARK                         _______ _______ _______ _____ _____    ______ ____
ROOT
ATOM     10  C   UNL     1      20.173  30.246  22.116  0.00  0.00    +0.038 A 
ATOM     11  C   UNL     1      20.661  30.295  20.785  0.00  0.00    +0.047 A 
ATOM     12  C   UNL     1      20.067  31.183  19.798  0.00  0.00    +0.035 A 
ATOM     32  C   UNL     1      18.978  32.010  20.201  0.00  0.00    +0.024 A 
ATOM     33  C   UNL     1      18.468  31.972  21.549  0.00  0.00    +0.007 A 
ATOM     34  C   UNL     1      19.049  31.096  22.527  0.00  0.00    -0.029 A 
ATOM     35  C   UNL     1      18.457  31.093  23.955  0.00  0.00    +0.045 C 
ENDROOT
BRANCH  10   9
ATOM      4  C   UNL     1      20.259  26.191  24.681  0.00  0.00    +0.077 A 
ATOM      5  C   UNL     1      18.972  25.785  24.194  0.00  0.00    +0.048 A 
ATOM      6  C   UNL     1      18.318  26.652  23.291  0.00  0.00    +0.116 A 
ATOM      7  N   UNL     1      18.915  27.834  22.909  0.00  0.00    -0.223 NA
ATOM      8  C   UNL     1      20.157  28.195  23.399  0.00  0.00    +0.220 A 
ATOM      9  N   UNL     1      20.780  29.375  23.023  0.00  0.00    -0.283 N 
ATOM     36  H   UNL     1      21.693  29.609  23.412  0.00  0.00    +0.155 HD
ATOM     37  N   UNL     1      20.802  27.385  24.264  0.00  0.00    -0.214 NA
BRANCH   4   3
ATOM      1  C   UNL     1      23.275  24.620  26.614  0.00  0.00    +0.020 A 
ATOM      2  C   UNL     1      22.533  25.422  25.669  0.00  0.00    +0.013 A 
ATOM      3  C   UNL     1      21.076  25.381  25.639  0.00  0.00    +0.019 A 
ATOM     38  C   UNL     1      20.395  24.512  26.587  0.00  0.00    +0.120 A 
ATOM     39  N   UNL     1      21.136  23.750  27.485  0.00  0.00    -0.263 NA
ATOM     40  C   UNL     1      22.538  23.779  27.522  0.00  0.00    +0.111 A 
ENDBRANCH   4   3
ENDBRANCH  10   9
BRANCH  12  13
ATOM     13  N   UNL     1      20.515  31.270  18.430  0.00  0.00    -0.281 N 
ATOM     14  C   UNL     1      21.071  32.362  17.784  0.00  0.00    +0.248 C 
ATOM     30  O   UNL     1      21.070  33.501  18.226  0.00  0.00    -0.270 OA
ATOM     31  H   UNL     1      20.410  30.424  17.870  0.00  0.00    +0.155 HD
BRANCH  14  15
ATOM     15  C   UNL     1      21.706  32.163  16.446  0.00  0.00    +0.037 A 
ATOM     16  C   UNL     1      22.909  32.904  16.058  0.00  0.00    +0.013 A 
ATOM     17  C   UNL     1      23.492  32.706  14.754  0.00  0.00    +0.005 A 
ATOM     18  C   UNL     1      22.873  31.759  13.829  0.00  0.00    -0.033 A 
ATOM     28  C   UNL     1      21.683  31.033  14.242  0.00  0.00    +0.005 A 
ATOM     29  C   UNL     1      21.108  31.226  15.518  0.00  0.00    +0.013 A 
BRANCH  18  19
ATOM     19  C   UNL     1      23.415  31.500  12.411  0.00  0.00    +0.119 C 
BRANCH  19  20
ATOM     20  N   UNL     1      23.283  32.606  11.416  0.00  0.00    -0.302 NA
ATOM     21  C   UNL     1      21.853  33.150  11.348  0.00  0.00    +0.066 C 
ATOM     22  C   UNL     1      21.738  34.321  10.319  0.00  0.00    -0.064 C 
ATOM     23  N   UNL     1      22.198  33.834   8.943  0.00  0.00    +0.379 N 
ATOM     24  C   UNL     1      22.036  34.916   7.961  0.00  0.00    -0.096 C 
ATOM     25  H   UNL     1      21.527  32.997   8.639  0.00  0.00    -0.082 HD
ATOM     26  C   UNL     1      23.618  33.289   9.002  0.00  0.00    -0.064 C 
ATOM     27  C   UNL     1      23.728  32.145  10.050  0.00  0.00    +0.066 C 
ENDBRANCH  19  20
ENDBRANCH  18  19
ENDBRANCH  14  15
ENDBRANCH  12  13
TORSDOF 6
ENDMDL
MODEL 2
REMARK VINA RESULT:      -8.5      2.037      2.908
REMARK  Name = C:\Users\Docking\Desktop\test protocol\1iep_ligandH.pdb
REMARK  8 active torsions:
REMARK  status: ('A' for Active; 'I' for Inactive)
REMARK    1  A    between atoms: _5  and  _11
REMARK    2  A    between atoms: _19  and  _21
REMARK    3  A    between atoms: _22  and  _66
REMARK    4  A    between atoms: _27  and  _30
REMARK    5  A    between atoms: _32  and  _33
REMARK    6  A    between atoms: _38  and  _43
REMARK    7  A    between atoms: _43  and  _46
REMARK    8  A    between atoms: _53  and  _55
REMARK                            x       y       z     vdW  Elec       q    Type
REMARK                         _______ _______ _______ _____ _____    ______ ____
ROOT
ATOM     10  C   UNL     1      20.109  30.007  22.421  0.00  0.00    +0.038 A 
ATOM     11  C   UNL     1      20.488  29.999  21.054  0.00  0.00    +0.047 A 
ATOM     12  C   UNL     1      19.889  30.921  20.102  0.00  0.00    +0.035 A 
ATOM     32  C   UNL     1      18.908  31.840  20.576  0.00  0.00    +0.024 A 
ATOM     33  C   UNL     1      18.510  31.861  21.962  0.00  0.00    +0.007 A 
ATOM     34  C   UNL     1      19.096  30.953  22.905  0.00  0.00    -0.029 A 
ATOM     35  C   UNL     1      18.626  31.016  24.377  0.00  0.00    +0.045 C 
ENDROOT
BRANCH  10   9
ATOM      4  C   UNL     1      20.162  25.884  24.877  0.00  0.00    +0.077 A 
ATOM      5  C   UNL     1      18.857  25.518  24.406  0.00  0.00    +0.048 A 
ATOM      6  C   UNL     1      18.203  26.422  23.539  0.00  0.00    +0.116 A 
ATOM      7  N   UNL     1      18.818  27.601  23.177  0.00  0.00    -0.223 NA
ATOM      8  C   UNL     1      20.076  27.924  23.650  0.00  0.00    +0.220 A 
ATOM      9  N   UNL     1      20.717  29.100  23.292  0.00  0.00    -0.283 N 
ATOM     36  H   UNL     1      21.642  29.306  23.669  0.00  0.00    +0.155 HD
ATOM     37  N   UNL     1      20.721  27.078  24.481  0.00  0.00    -0.214 NA
BRANCH   4   3
ATOM      1  C   UNL     1      21.264  23.575  27.836  0.00  0.00    +0.020 A 
ATOM      2  C   UNL     1      20.429  24.388  26.981  0.00  0.00    +0.013 A 
ATOM      3  C   UNL     1      20.981  25.032  25.797  0.00  0.00    +0.019 A 
ATOM     38  C   UNL     1      22.392  24.832  25.502  0.00  0.00    +0.120 A 
ATOM     39  N   UNL     1      23.171  24.045  26.344  0.00  0.00    -0.263 NA
ATOM     40  C   UNL     1      22.652  23.421  27.488  0.00  0.00    +0.111 A 
ENDBRANCH   4   3
ENDBRANCH  10   9
BRANCH  12  13
ATOM     13  N   UNL     1      20.229  30.954  18.701  0.00  0.00    -0.281 N 
ATOM     14  C   UNL     1      20.814  31.989  17.990  0.00  0.00    +0.248 C 
ATOM     30  O   UNL     1      20.941  33.130  18.409  0.00  0.00    -0.270 OA
ATOM     31  H   UNL     1      20.011  30.112  18.168  0.00  0.00    +0.155 HD
BRANCH  14  15
ATOM     15  C   UNL     1      21.320  31.722  16.609  0.00  0.00    +0.037 A 
ATOM     16  C   UNL     1      22.564  32.325  16.126  0.00  0.00    +0.013 A 
ATOM     17  C   UNL     1      23.020  32.064  14.783  0.00  0.00    +0.005 A 
ATOM     18  C   UNL     1      22.231  31.194  13.915  0.00  0.00    -0.033 A 
ATOM     28  C   UNL     1      21.003  30.604  14.422  0.00  0.00    +0.005 A 
ATOM     29  C   UNL     1      20.552  30.858  15.737  0.00  0.00    +0.013 A 
BRANCH  18  19
ATOM     19  C   UNL     1      22.631  30.877  12.462  0.00  0.00    +0.119 C 
BRANCH  19  20
ATOM     20  N   UNL     1      22.930  29.452  12.130  0.00  0.00    -0.302 NA
ATOM     21  C   UNL     1      23.973  29.329  11.016  0.00  0.00    +0.066 C 
ATOM     22  C   UNL     1      24.291  27.832  10.697  0.00  0.00    -0.064 C 
ATOM     23  N   UNL     1      22.999  27.110  10.311  0.00  0.00    +0.379 N 
ATOM     24  C   UNL     1      23.303  25.716   9.955  0.00  0.00    -0.096 C 
ATOM     25  H   UNL     1      22.590  27.610   9.403  0.00  0.00    -0.082 HD
ATOM     26  C   UNL     1      21.955  27.229  11.413  0.00  0.00    -0.064 C 
ATOM     27  C   UNL     1      21.668  28.721  11.742  0.00  0.00    +0.066 C 
ENDBRANCH  19  20
ENDBRANCH  18  19
ENDBRANCH  14  15
ENDBRANCH  12  13
TORSDOF 6
ENDMDL
MODEL 3
REMARK VINA RESULT:      -7.9     13.376     17.689
REMARK  Name = C:\Users\Docking\Desktop\test protocol\1iep_ligandH.pdb
REMARK  8 active torsions:
REMARK  status: ('A' for Active; 'I' for Inactive)
REMARK    1  A    between atoms: _5  and  _11
REMARK    2  A    between atoms: _19  and  _21
REMARK    3  A    between atoms: _22  and  _66
REMARK    4  A    between atoms: _27  and  _30
REMARK    5  A    between atoms: _32  and  _33
REMARK    6  A    between atoms: _38  and  _43
REMARK    7  A    between atoms: _43  and  _46
REMARK    8  A    between atoms: _53  and  _55
REMARK                            x       y       z     vdW  Elec       q    Type
REMARK                         _______ _______ _______ _____ _____    ______ ____
ROOT
ATOM     10  C   UNL     1      27.941  20.120  29.197  0.00  0.00    +0.038 A 
ATOM     11  C   UNL     1      26.550  20.370  29.308  0.00  0.00    +0.047 A 
ATOM     12  C   UNL     1      26.038  21.724  29.455  0.00  0.00    +0.035 A 
ATOM     32  C   UNL     1      26.972  22.800  29.482  0.00  0.00    +0.024 A 
ATOM     33  C   UNL     1      28.390  22.564  29.371  0.00  0.00    +0.007 A 
ATOM     34  C   UNL     1      28.901  21.231  29.229  0.00  0.00    -0.029 A 
ATOM     35  C   UNL     1      30.431  21.036  29.121  0.00  0.00    +0.045 C 
ENDROOT
BRANCH  10   9
ATOM      4  C   UNL     1      29.414  15.934  31.026  0.00  0.00    +0.077 A 
ATOM      5  C   UNL     1      29.333  16.426  32.371  0.00  0.00    +0.048 A 
ATOM      6  C   UNL     1      28.915  17.764  32.549  0.00  0.00    +0.116 A 
ATOM      7  N   UNL     1      28.603  18.543  31.456  0.00  0.00    -0.223 NA
ATOM      8  C   UNL     1      28.694  18.038  30.171  0.00  0.00    +0.220 A 
ATOM      9  N   UNL     1      28.378  18.801  29.058  0.00  0.00    -0.283 N 
ATOM     36  H   UNL     1      28.465  18.394  28.127  0.00  0.00    +0.155 HD
ATOM     37  N   UNL     1      29.092  16.764  29.975  0.00  0.00    -0.214 NA
BRANCH   4   3
ATOM      1  C   UNL     1      31.084  12.399  31.144  0.00  0.00    +0.020 A 
ATOM      2  C   UNL     1      30.706  13.739  31.528  0.00  0.00    +0.013 A 
ATOM      3  C   UNL     1      29.837  14.541  30.676  0.00  0.00    +0.019 A 
ATOM     38  C   UNL     1      29.364  13.953  29.432  0.00  0.00    +0.120 A 
ATOM     39  N   UNL     1      29.746  12.660  29.087  0.00  0.00    -0.263 NA
ATOM     40  C   UNL     1      30.583  11.879  29.899  0.00  0.00    +0.111 A 
ENDBRANCH   4   3
ENDBRANCH  10   9
BRANCH  12  13
ATOM     13  N   UNL     1      24.636  22.038  29.580  0.00  0.00    -0.281 N 
ATOM     14  C   UNL     1      23.924  23.030  28.926  0.00  0.00    +0.248 C 
ATOM     30  O   UNL     1      24.433  23.940  28.289  0.00  0.00    -0.270 OA
ATOM     31  H   UNL     1      24.104  21.458  30.230  0.00  0.00    +0.155 HD
BRANCH  14  15
ATOM     15  C   UNL     1      22.431  23.017  29.002  0.00  0.00    +0.037 A 
ATOM     16  C   UNL     1      21.619  23.889  28.150  0.00  0.00    +0.013 A 
ATOM     17  C   UNL     1      20.182  23.869  28.255  0.00  0.00    +0.005 A 
ATOM     18  C   UNL     1      19.547  22.970  29.216  0.00  0.00    -0.033 A 
ATOM     28  C   UNL     1      20.376  22.112  30.045  0.00  0.00    +0.005 A 
ATOM     29  C   UNL     1      21.785  22.129  29.946  0.00  0.00    +0.013 A 
BRANCH  18  19
ATOM     19  C   UNL     1      18.021  22.898  29.411  0.00  0.00    +0.119 C 
BRANCH  19  20
ATOM     20  N   UNL     1      17.405  23.873  30.360  0.00  0.00    -0.302 NA
ATOM     21  C   UNL     1      17.665  23.496  31.821  0.00  0.00    +0.066 C 
ATOM     22  C   UNL     1      17.034  24.540  32.799  0.00  0.00    -0.064 C 
ATOM     23  N   UNL     1      15.532  24.647  32.526  0.00  0.00    +0.379 N 
ATOM     24  C   UNL     1      14.926  25.584  33.483  0.00  0.00    -0.096 C 
ATOM     25  H   UNL     1      15.084  23.642  32.706  0.00  0.00    -0.082 HD
ATOM     26  C   UNL     1      15.265  25.019  31.075  0.00  0.00    -0.064 C 
ATOM     27  C   UNL     1      15.922  23.992  30.111  0.00  0.00    +0.066 C 
ENDBRANCH  19  20
ENDBRANCH  18  19
ENDBRANCH  14  15
ENDBRANCH  12  13
TORSDOF 6
ENDMDL
MODEL 4
REMARK VINA RESULT:      -7.8     12.611     15.732
REMARK  Name = C:\Users\Docking\Desktop\test protocol\1iep_ligandH.pdb
REMARK  8 active torsions:
REMARK  status: ('A' for Active; 'I' for Inactive)
REMARK    1  A    between atoms: _5  and  _11
REMARK    2  A    between atoms: _19  and  _21
REMARK    3  A    between atoms: _22  and  _66
REMARK    4  A    between atoms: _27  and  _30
REMARK    5  A    between atoms: _32  and  _33
REMARK    6  A    between atoms: _38  and  _43
REMARK    7  A    between atoms: _43  and  _46
REMARK    8  A    between atoms: _53  and  _55
REMARK                            x       y       z     vdW  Elec       q    Type
REMARK                         _______ _______ _______ _____ _____    ______ ____
ROOT
ATOM     10  C   UNL     1      15.869  23.282  29.533  0.00  0.00    +0.038 A 
ATOM     11  C   UNL     1      17.219  22.895  29.334  0.00  0.00    +0.047 A 
ATOM     12  C   UNL     1      18.307  23.578  30.016  0.00  0.00    +0.035 A 
ATOM     32  C   UNL     1      17.983  24.651  30.897  0.00  0.00    +0.024 A 
ATOM     33  C   UNL     1      16.617  25.059  31.111  0.00  0.00    +0.007 A 
ATOM     34  C   UNL     1      15.540  24.390  30.439  0.00  0.00    -0.029 A 
ATOM     35  C   UNL     1      14.095  24.873  30.701  0.00  0.00    +0.045 C 
ENDROOT
BRANCH  10   9
ATOM      4  C   UNL     1      13.408  22.230  25.549  0.00  0.00    +0.077 A 
ATOM      5  C   UNL     1      14.172  23.155  24.762  0.00  0.00    +0.048 A 
ATOM      6  C   UNL     1      15.184  23.887  25.422  0.00  0.00    +0.116 A 
ATOM      7  N   UNL     1      15.407  23.700  26.769  0.00  0.00    -0.223 NA
ATOM      8  C   UNL     1      14.651  22.801  27.499  0.00  0.00    +0.220 A 
ATOM      9  N   UNL     1      14.864  22.591  28.853  0.00  0.00    -0.283 N 
ATOM     36  H   UNL     1      14.280  21.924  29.357  0.00  0.00    +0.155 HD
ATOM     37  N   UNL     1      13.678  22.091  26.892  0.00  0.00    -0.214 NA
BRANCH   4   3
ATOM      1  C   UNL     1       9.936  20.518  24.987  0.00  0.00    +0.020 A 
ATOM      2  C   UNL     1      10.964  21.356  25.561  0.00  0.00    +0.013 A 
ATOM      3  C   UNL     1      12.307  21.381  24.995  0.00  0.00    +0.019 A 
ATOM     38  C   UNL     1      12.579  20.540  23.839  0.00  0.00    +0.120 A 
ATOM     39  N   UNL     1      11.569  19.742  23.308  0.00  0.00    -0.263 NA
ATOM     40  C   UNL     1      10.274  19.709  23.846  0.00  0.00    +0.111 A 
ENDBRANCH   4   3
ENDBRANCH  10   9
BRANCH  12  13
ATOM     13  N   UNL     1      19.697  23.234  29.846  0.00  0.00    -0.281 N 
ATOM     14  C   UNL     1      20.543  23.597  28.811  0.00  0.00    +0.248 C 
ATOM     30  O   UNL     1      20.174  24.098  27.759  0.00  0.00    -0.270 OA
ATOM     31  H   UNL     1      20.106  22.653  30.577  0.00  0.00    +0.155 HD
BRANCH  14  15
ATOM     15  C   UNL     1      22.011  23.355  28.960  0.00  0.00    +0.037 A 
ATOM     16  C   UNL     1      22.536  22.508  30.035  0.00  0.00    +0.013 A 
ATOM     17  C   UNL     1      23.957  22.305  30.166  0.00  0.00    +0.005 A 
ATOM     18  C   UNL     1      24.863  22.949  29.219  0.00  0.00    -0.033 A 
ATOM     28  C   UNL     1      24.315  23.779  28.159  0.00  0.00    +0.005 A 
ATOM     29  C   UNL     1      22.923  23.981  28.028  0.00  0.00    +0.013 A 
BRANCH  18  19
ATOM     19  C   UNL     1      26.395  22.804  29.296  0.00  0.00    +0.119 C 
BRANCH  19  20
ATOM     20  N   UNL     1      26.934  21.516  29.826  0.00  0.00    -0.302 NA
ATOM     21  C   UNL     1      28.426  21.351  29.524  0.00  0.00    +0.066 C 
ATOM     22  C   UNL     1      28.979  20.009  30.105  0.00  0.00    -0.064 C 
ATOM     23  N   UNL     1      28.178  18.839  29.530  0.00  0.00    +0.379 N 
ATOM     24  C   UNL     1      28.732  17.573  30.030  0.00  0.00    -0.096 C 
ATOM     25  H   UNL     1      28.307  18.853  28.423  0.00  0.00    -0.082 HD
ATOM     26  C   UNL     1      26.692  18.997  29.824  0.00  0.00    -0.064 C 
ATOM     27  C   UNL     1      26.160  20.347  29.268  0.00  0.00    +0.066 C 
ENDBRANCH  19  20
ENDBRANCH  18  19
ENDBRANCH  14  15
ENDBRANCH  12  13
TORSDOF 6
ENDMDL
MODEL 5
REMARK VINA RESULT:      -7.8      1.891     13.070
REMARK  Name = C:\Users\Docking\Desktop\test protocol\1iep_ligandH.pdb
REMARK  8 active torsions:
REMARK  status: ('A' for Active; 'I' for Inactive)
REMARK    1  A    between atoms: _5  and  _11
REMARK    2  A    between atoms: _19  and  _21
REMARK    3  A    between atoms: _22  and  _66
REMARK    4  A    between atoms: _27  and  _30
REMARK    5  A    between atoms: _32  and  _33
REMARK    6  A    between atoms: _38  and  _43
REMARK    7  A    between atoms: _43  and  _46
REMARK    8  A    between atoms: _53  and  _55
REMARK                            x       y       z     vdW  Elec       q    Type
REMARK                         _______ _______ _______ _____ _____    ______ ____
ROOT
ATOM     10  C   UNL     1      20.799  32.935  17.450  0.00  0.00    +0.038 A 
ATOM     11  C   UNL     1      20.975  31.885  18.387  0.00  0.00    +0.047 A 
ATOM     12  C   UNL     1      20.034  31.685  19.478  0.00  0.00    +0.035 A 
ATOM     32  C   UNL     1      18.924  32.572  19.584  0.00  0.00    +0.024 A 
ATOM     33  C   UNL     1      18.731  33.646  18.641  0.00  0.00    +0.007 A 
ATOM     34  C   UNL     1      19.657  33.850  17.564  0.00  0.00    -0.029 A 
ATOM     35  C   UNL     1      19.404  35.021  16.587  0.00  0.00    +0.045 C 
ENDROOT
BRANCH  10   9
ATOM      4  C   UNL     1      22.486  31.878  13.083  0.00  0.00    +0.077 A 
ATOM      5  C   UNL     1      21.432  30.935  12.839  0.00  0.00    +0.048 A 
ATOM      6  C   UNL     1      20.480  30.746  13.866  0.00  0.00    +0.116 A 
ATOM      7  N   UNL     1      20.584  31.453  15.045  0.00  0.00    -0.223 NA
ATOM      8  C   UNL     1      21.614  32.354  15.248  0.00  0.00    +0.220 A 
ATOM      9  N   UNL     1      21.733  33.081  16.422  0.00  0.00    -0.283 N 
ATOM     36  H   UNL     1      22.512  33.730  16.536  0.00  0.00    +0.155 HD
ATOM     37  N   UNL     1      22.536  32.551  14.283  0.00  0.00    -0.214 NA
BRANCH   4   3
ATOM      1  C   UNL     1      25.887  31.898  11.151  0.00  0.00    +0.020 A 
ATOM      2  C   UNL     1      24.880  31.562  12.131  0.00  0.00    +0.013 A 
ATOM      3  C   UNL     1      23.565  32.190  12.093  0.00  0.00    +0.019 A 
ATOM     38  C   UNL     1      23.298  33.159  11.041  0.00  0.00    +0.120 A 
ATOM     39  N   UNL     1      24.288  33.464  10.112  0.00  0.00    -0.263 NA
ATOM     40  C   UNL     1      25.558  32.868  10.140  0.00  0.00    +0.111 A 
ENDBRANCH   4   3
ENDBRANCH  10   9
BRANCH  12  13
ATOM     13  N   UNL     1      20.165  30.641  20.464  0.00  0.00    -0.281 N 
ATOM     14  C   UNL     1      19.931  30.722  21.827  0.00  0.00    +0.248 C 
ATOM     30  O   UNL     1      19.779  31.768  22.441  0.00  0.00    -0.270 OA
ATOM     31  H   UNL     1      20.466  29.731  20.115  0.00  0.00    +0.155 HD
BRANCH  14  15
ATOM     15  C   UNL     1      19.873  29.461  22.627  0.00  0.00    +0.037 A 
ATOM     16  C   UNL     1      19.381  29.458  24.007  0.00  0.00    +0.013 A 
ATOM     17  C   UNL     1      19.351  28.230  24.761  0.00  0.00    +0.005 A 
ATOM     18  C   UNL     1      19.813  26.993  24.135  0.00  0.00    -0.033 A 
ATOM     28  C   UNL     1      20.292  27.024  22.763  0.00  0.00    +0.005 A 
ATOM     29  C   UNL     1      20.323  28.226  22.021  0.00  0.00    +0.013 A 
BRANCH  18  19
ATOM     19  C   UNL     1      19.837  25.641  24.872  0.00  0.00    +0.119 C 
BRANCH  19  20
ATOM     20  N   UNL     1      20.884  25.451  25.920  0.00  0.00    -0.302 NA
ATOM     21  C   UNL     1      22.221  25.008  25.322  0.00  0.00    +0.066 C 
ATOM     22  C   UNL     1      23.311  24.836  26.429  0.00  0.00    -0.064 C 
ATOM     23  N   UNL     1      22.822  23.827  27.470  0.00  0.00    +0.379 N 
ATOM     24  C   UNL     1      23.869  23.619  28.482  0.00  0.00    -0.096 C 
ATOM     25  H   UNL     1      22.659  22.855  26.948  0.00  0.00    -0.082 HD
ATOM     26  C   UNL     1      21.491  24.259  28.068  0.00  0.00    -0.064 C 
ATOM     27  C   UNL     1      20.423  24.456  26.956  0.00  0.00    +0.066 C 
ENDBRANCH  19  20
ENDBRANCH  18  19
ENDBRANCH  14  15
ENDBRANCH  12  13
TORSDOF 6
ENDMDL
