MODEL 1
REMARK VINA RESULT:      -8.6      0.000      0.000
REMARK  Name = C:\Users\Docking\Desktop\test protocol\1iep_ligandH.pdb
REMARK  8 active torsions:
REMARK  status: ('A' for Active; 'I' for Inactive)
REMARK    1  A    between atoms: _5  and  _11
REMARK    2  A    between atoms: _19  and  _21
REMARK    3  A    between atoms: _22  and  _66
REMARK    4  A    between atoms: _27  and  _30
REMARK    5  A    between atoms: _32  and  _33
REMARK    6  A    between atoms: _38  and  _43
REMARK    7  A    between atoms: _43  and  _46
REMARK    8  A    between atoms: _53  and  _55
REMARK                            x       y       z     vdW  Elec       q    Type
REMARK                         _______ _______ _______ _____ _____    ______ ____
ROOT
ATOM     10  C   UNL     1      19.999  29.888  22.188  0.00  0.00    +0.038 A 
ATOM     11  C   UNL     1      20.447  29.939  20.844  0.00  0.00    +0.047 A 
ATOM     12  C   UNL     1      19.804  30.806  19.869  0.00  0.00    +0.035 A 
ATOM     32  C   UNL     1      18.709  31.610  20.299  0.00  0.00    +0.024 A 
ATOM     33  C   UNL     1      18.240  31.570  21.662  0.00  0.00    +0.007 A 
ATOM     34  C   UNL     1      18.868  30.714  22.627  0.00  0.00    -0.029 A 
ATOM     35  C   UNL     1      18.319  30.707  24.073  0.00  0.00    +0.045 C 
ENDROOT
BRANCH  10   9
ATOM      4  C   UNL     1      20.226  25.884  24.825  0.00  0.00    +0.077 A 
ATOM      5  C   UNL     1      18.919  25.464  24.408  0.00  0.00    +0.048 A 
ATOM      6  C   UNL     1      18.219  26.310  23.519  0.00  0.00    +0.116 A 
ATOM      7  N   UNL     1      18.793  27.487  23.087  0.00  0.00    -0.223 NA
ATOM      8  C   UNL     1      20.054  27.863  23.511  0.00  0.00    +0.220 A 
ATOM      9  N   UNL     1      20.653  29.037  23.082  0.00  0.00    -0.283 N 
ATOM     36  H   UNL     1      21.582  29.282  23.424  0.00  0.00    +0.155 HD
ATOM     37  N   UNL     1      20.743  27.072  24.360  0.00  0.00    -0.214 NA
BRANCH   4   3
ATOM      1  C   UNL     1      23.333  24.273  26.572  0.00  0.00    +0.020 A 
ATOM      2  C   UNL     1      22.543  25.049  25.644  0.00  0.00    +0.013 A 
ATOM      3  C   UNL     1      21.091  25.096  25.759  0.00  0.00    +0.019 A 
ATOM     38  C   UNL     1      20.464  24.341  26.834  0.00  0.00    +0.120 A 
ATOM     39  N   UNL     1      21.250  23.601  27.712  0.00  0.00    -0.263 NA
ATOM     40  C   UNL     1      22.649  23.547  27.609  0.00  0.00    +0.111 A 
ENDBRANCH   4   3
ENDBRANCH  10   9
BRANCH  12  13
ATOM     13  N   UNL     1      20.210  30.895  18.488  0.00  0.00    -0.281 N 
ATOM     14  C   UNL     1      20.765  31.981  17.831  0.00  0.00    +0.248 C 
ATOM     30  O   UNL     1      20.799  33.117  18.281  0.00  0.00    -0.270 OA
ATOM     31  H   UNL     1      20.072  30.054  17.927  0.00  0.00    +0.155 HD
BRANCH  14  15
ATOM     15  C   UNL     1      21.354  31.779  16.473  0.00  0.00    +0.037 A 
ATOM     16  C   UNL     1      20.775  30.821  15.528  0.00  0.00    +0.013 A 
ATOM     17  C   UNL     1      21.373  30.634  14.230  0.00  0.00    +0.005 A 
ATOM     18  C   UNL     1      22.557  31.408  13.868  0.00  0.00    -0.033 A 
ATOM     28  C   UNL     1      23.108  32.356  14.823  0.00  0.00    +0.005 A 
ATOM     29  C   UNL     1      22.525  32.542  16.096  0.00  0.00    +0.013 A 
BRANCH  18  19
ATOM     19  C   UNL     1      23.274  31.258  12.513  0.00  0.00    +0.119 C 
BRANCH  19  20
ATOM     20  N   UNL     1      23.134  32.380  11.537  0.00  0.00    -0.302 NA
ATOM     21  C   UNL     1      21.676  32.819  11.372  0.00  0.00    +0.066 C 
ATOM     22  C   UNL     1      21.550  34.008  10.365  0.00  0.00    -0.064 C 
ATOM     23  N   UNL     1      22.148  33.597   9.018  0.00  0.00    +0.379 N 
ATOM     24  C   UNL     1      21.980  34.693   8.052  0.00  0.00    -0.096 C 
ATOM     25  H   UNL     1      21.568  32.723   8.643  0.00  0.00    -0.082 HD
ATOM     26  C   UNL     1      23.597  33.157   9.174  0.00  0.00    -0.064 C 
ATOM     27  C   UNL     1      23.714  31.995  10.199  0.00  0.00    +0.066 C 
ENDBRANCH  19  20
ENDBRANCH  18  19
ENDBRANCH  14  15
ENDBRANCH  12  13
TORSDOF 6
ENDMDL
MODEL 2
REMARK VINA RESULT:      -8.5      1.951      2.960
REMARK  Name = C:\Users\Docking\Desktop\test protocol\1iep_ligandH.pdb
REMARK  8 active torsions:
REMARK  status: ('A' for Active; 'I' for Inactive)
REMARK    1  A    between atoms: _5  and  _11
REMARK    2  A    between atoms: _19  and  _21
REMARK    3  A    between atoms: _22  and  _66
REMARK    4  A    between atoms: _27  and  _30
REMARK    5  A    between atoms: _32  and  _33
REMARK    6  A    between atoms: _38  and  _43
REMARK    7  A    between atoms: _43  and  _46
REMARK    8  A    between atoms: _53  and  _55
REMARK                            x       y       z     vdW  Elec       q    Type
REMARK                         _______ _______ _______ _____ _____    ______ ____
ROOT
ATOM     10  C   UNL     1      20.069  29.892  22.349  0.00  0.00    +0.038 A 
ATOM     11  C   UNL     1      20.445  29.874  20.982  0.00  0.00    +0.047 A 
ATOM     12  C   UNL     1      19.844  30.790  20.024  0.00  0.00    +0.035 A 
ATOM     32  C   UNL     1      18.864  31.712  20.495  0.00  0.00    +0.024 A 
ATOM     33  C   UNL     1      18.469  31.742  21.881  0.00  0.00    +0.007 A 
ATOM     34  C   UNL     1      19.056  30.840  22.829  0.00  0.00    -0.029 A 
ATOM     35  C   UNL     1      18.589  30.913  24.302  0.00  0.00    +0.045 C 
ENDROOT
BRANCH  10   9
ATOM      4  C   UNL     1      20.115  25.798  24.855  0.00  0.00    +0.077 A 
ATOM      5  C   UNL     1      18.803  25.437  24.402  0.00  0.00    +0.048 A 
ATOM      6  C   UNL     1      18.147  26.335  23.530  0.00  0.00    +0.116 A 
ATOM      7  N   UNL     1      18.767  27.504  23.147  0.00  0.00    -0.223 NA
ATOM      8  C   UNL     1      20.033  27.824  23.604  0.00  0.00    +0.220 A 
ATOM      9  N   UNL     1      20.678  28.991  23.225  0.00  0.00    -0.283 N 
ATOM     36  H   UNL     1      21.609  29.193  23.590  0.00  0.00    +0.155 HD
ATOM     37  N   UNL     1      20.679  26.983  24.438  0.00  0.00    -0.214 NA
BRANCH   4   3
ATOM      1  C   UNL     1      21.223  23.492  27.814  0.00  0.00    +0.020 A 
ATOM      2  C   UNL     1      20.386  24.300  26.958  0.00  0.00    +0.013 A 
ATOM      3  C   UNL     1      20.937  24.951  25.776  0.00  0.00    +0.019 A 
ATOM     38  C   UNL     1      22.351  24.763  25.487  0.00  0.00    +0.120 A 
ATOM     39  N   UNL     1      23.133  23.980  26.331  0.00  0.00    -0.263 NA
ATOM     40  C   UNL     1      22.613  23.350  27.472  0.00  0.00    +0.111 A 
ENDBRANCH   4   3
ENDBRANCH  10   9
BRANCH  12  13
ATOM     13  N   UNL     1      20.181  30.813  18.623  0.00  0.00    -0.281 N 
ATOM     14  C   UNL     1      20.731  31.857  17.896  0.00  0.00    +0.248 C 
ATOM     30  O   UNL     1      20.820  33.007  18.298  0.00  0.00    -0.270 OA
ATOM     31  H   UNL     1      19.991  29.956  18.103  0.00  0.00    +0.155 HD
BRANCH  14  15
ATOM     15  C   UNL     1      21.243  31.586  16.519  0.00  0.00    +0.037 A 
ATOM     16  C   UNL     1      22.462  32.230  16.021  0.00  0.00    +0.013 A 
ATOM     17  C   UNL     1      22.925  31.964  14.682  0.00  0.00    +0.005 A 
ATOM     18  C   UNL     1      22.169  31.048  13.831  0.00  0.00    -0.033 A 
ATOM     28  C   UNL     1      20.966  30.419  14.352  0.00  0.00    +0.005 A 
ATOM     29  C   UNL     1      20.509  30.678  15.663  0.00  0.00    +0.013 A 
BRANCH  18  19
ATOM     19  C   UNL     1      22.577  30.723  12.382  0.00  0.00    +0.119 C 
BRANCH  19  20
ATOM     20  N   UNL     1      23.044  29.333  12.099  0.00  0.00    -0.302 NA
ATOM     21  C   UNL     1      24.349  29.318  11.297  0.00  0.00    +0.066 C 
ATOM     22  C   UNL     1      24.835  27.856  11.029  0.00  0.00    -0.064 C 
ATOM     23  N   UNL     1      23.738  27.083  10.294  0.00  0.00    +0.379 N 
ATOM     24  C   UNL     1      24.214  25.726   9.990  0.00  0.00    -0.096 C 
ATOM     25  H   UNL     1      23.551  27.602   9.325  0.00  0.00    -0.082 HD
ATOM     26  C   UNL     1      22.437  27.096  11.083  0.00  0.00    -0.064 C 
ATOM     27  C   UNL     1      21.978  28.553  11.370  0.00  0.00    +0.066 C 
ENDBRANCH  19  20
ENDBRANCH  18  19
ENDBRANCH  14  15
ENDBRANCH  12  13
TORSDOF 6
ENDMDL
MODEL 3
REMARK VINA RESULT:      -8.1      4.122     12.691
REMARK  Name = C:\Users\Docking\Desktop\test protocol\1iep_ligandH.pdb
REMARK  8 active torsions:
REMARK  status: ('A' for Active; 'I' for Inactive)
REMARK    1  A    between atoms: _5  and  _11
REMARK    2  A    between atoms: _19  and  _21
REMARK    3  A    between atoms: _22  and  _66
REMARK    4  A    between atoms: _27  and  _30
REMARK    5  A    between atoms: _32  and  _33
REMARK    6  A    between atoms: _38  and  _43
REMARK    7  A    between atoms: _43  and  _46
REMARK    8  A    between atoms: _53  and  _55
REMARK                            x       y       z     vdW  Elec       q    Type
REMARK                         _______ _______ _______ _____ _____    ______ ____
ROOT
ATOM     10  C   UNL     1      22.753  30.352  12.322  0.00  0.00    +0.038 A 
ATOM     11  C   UNL     1      22.129  30.351  13.595  0.00  0.00    +0.047 A 
ATOM     12  C   UNL     1      22.424  31.382  14.578  0.00  0.00    +0.035 A 
ATOM     32  C   UNL     1      23.357  32.401  14.229  0.00  0.00    +0.024 A 
ATOM     33  C   UNL     1      24.002  32.417  12.939  0.00  0.00    +0.007 A 
ATOM     34  C   UNL     1      23.717  31.401  11.967  0.00  0.00    -0.029 A 
ATOM     35  C   UNL     1      24.442  31.464  10.602  0.00  0.00    +0.045 C 
ENDROOT
BRANCH  10   9
ATOM      4  C   UNL     1      23.573  26.085  10.282  0.00  0.00    +0.077 A 
ATOM      5  C   UNL     1      24.754  25.870  11.068  0.00  0.00    +0.048 A 
ATOM      6  C   UNL     1      25.120  26.885  11.980  0.00  0.00    +0.116 A 
ATOM      7  N   UNL     1      24.354  28.026  12.090  0.00  0.00    -0.223 NA
ATOM      8  C   UNL     1      23.222  28.202  11.316  0.00  0.00    +0.220 A 
ATOM      9  N   UNL     1      22.433  29.338  11.416  0.00  0.00    -0.283 N 
ATOM     36  H   UNL     1      21.610  29.433  10.823  0.00  0.00    +0.155 HD
ATOM     37  N   UNL     1      22.852  27.248  10.437  0.00  0.00    -0.214 NA
BRANCH   4   3
ATOM      1  C   UNL     1      23.376  23.320   7.522  0.00  0.00    +0.020 A 
ATOM      2  C   UNL     1      23.927  24.252   8.479  0.00  0.00    +0.013 A 
ATOM      3  C   UNL     1      23.055  25.104   9.277  0.00  0.00    +0.019 A 
ATOM     38  C   UNL     1      21.617  24.986   9.083  0.00  0.00    +0.120 A 
ATOM     39  N   UNL     1      21.115  24.081   8.153  0.00  0.00    -0.263 NA
ATOM     40  C   UNL     1      21.946  23.257   7.378  0.00  0.00    +0.111 A 
ENDBRANCH   4   3
ENDBRANCH  10   9
BRANCH  12  13
ATOM     13  N   UNL     1      21.828  31.428  15.890  0.00  0.00    -0.281 N 
ATOM     14  C   UNL     1      20.514  31.721  16.219  0.00  0.00    +0.248 C 
ATOM     30  O   UNL     1      19.698  32.199  15.445  0.00  0.00    -0.270 OA
ATOM     31  H   UNL     1      22.450  31.220  16.672  0.00  0.00    +0.155 HD
BRANCH  14  15
ATOM     15  C   UNL     1      20.043  31.458  17.613  0.00  0.00    +0.037 A 
ATOM     16  C   UNL     1      20.312  32.406  18.698  0.00  0.00    +0.013 A 
ATOM     17  C   UNL     1      19.861  32.119  20.036  0.00  0.00    +0.005 A 
ATOM     18  C   UNL     1      19.134  30.879  20.297  0.00  0.00    -0.033 A 
ATOM     28  C   UNL     1      18.877  29.959  19.202  0.00  0.00    +0.005 A 
ATOM     29  C   UNL     1      19.318  30.236  17.889  0.00  0.00    +0.013 A 
BRANCH  18  19
ATOM     19  C   UNL     1      18.634  30.482  21.699  0.00  0.00    +0.119 C 
BRANCH  19  20
ATOM     20  N   UNL     1      18.913  29.087  22.154  0.00  0.00    -0.302 NA
ATOM     21  C   UNL     1      17.629  28.265  22.306  0.00  0.00    +0.066 C 
ATOM     22  C   UNL     1      17.941  26.803  22.762  0.00  0.00    -0.064 C 
ATOM     23  N   UNL     1      18.722  26.836  24.077  0.00  0.00    +0.379 N 
ATOM     24  C   UNL     1      18.966  25.461  24.538  0.00  0.00    -0.096 C 
ATOM     25  H   UNL     1      18.081  27.339  24.838  0.00  0.00    -0.082 HD
ATOM     26  C   UNL     1      19.998  27.653  23.935  0.00  0.00    -0.064 C 
ATOM     27  C   UNL     1      19.679  29.096  23.454  0.00  0.00    +0.066 C 
ENDBRANCH  19  20
ENDBRANCH  18  19
ENDBRANCH  14  15
ENDBRANCH  12  13
TORSDOF 6
ENDMDL
MODEL 4
REMARK VINA RESULT:      -8.1      5.388      8.676
REMARK  Name = C:\Users\Docking\Desktop\test protocol\1iep_ligandH.pdb
REMARK  8 active torsions:
REMARK  status: ('A' for Active; 'I' for Inactive)
REMARK    1  A    between atoms: _5  and  _11
REMARK    2  A    between atoms: _19  and  _21
REMARK    3  A    between atoms: _22  and  _66
REMARK    4  A    between atoms: _27  and  _30
REMARK    5  A    between atoms: _32  and  _33
REMARK    6  A    between atoms: _38  and  _43
REMARK    7  A    between atoms: _43  and  _46
REMARK    8  A    between atoms: _53  and  _55
REMARK                            x       y       z     vdW  Elec       q    Type
REMARK                         _______ _______ _______ _____ _____    ______ ____
ROOT
ATOM     10  C   UNL     1      21.988  31.964  14.909  0.00  0.00    +0.038 A 
ATOM     11  C   UNL     1      22.484  30.770  14.326  0.00  0.00    +0.047 A 
ATOM     12  C   UNL     1      22.576  30.619  12.882  0.00  0.00    +0.035 A 
ATOM     32  C   UNL     1      22.155  31.706  12.061  0.00  0.00    +0.024 A 
ATOM     33  C   UNL     1      21.647  32.926  12.637  0.00  0.00    +0.007 A 
ATOM     34  C   UNL     1      21.552  33.080  14.060  0.00  0.00    -0.029 A 
ATOM     35  C   UNL     1      20.993  34.408  14.622  0.00  0.00    +0.045 C 
ENDROOT
BRANCH  10   9
ATOM      4  C   UNL     1      19.767  31.222  19.098  0.00  0.00    +0.077 A 
ATOM      5  C   UNL     1      18.630  30.626  18.458  0.00  0.00    +0.048 A 
ATOM      6  C   UNL     1      18.652  30.537  17.048  0.00  0.00    +0.116 A 
ATOM      7  N   UNL     1      19.737  31.010  16.342  0.00  0.00    -0.223 NA
ATOM      8  C   UNL     1      20.817  31.580  16.991  0.00  0.00    +0.220 A 
ATOM      9  N   UNL     1      21.922  32.055  16.301  0.00  0.00    -0.283 N 
ATOM     36  H   UNL     1      22.695  32.475  16.816  0.00  0.00    +0.155 HD
ATOM     37  N   UNL     1      20.819  31.678  18.336  0.00  0.00    -0.214 NA
BRANCH   4   3
ATOM      1  C   UNL     1      20.434  30.519  22.888  0.00  0.00    +0.020 A 
ATOM      2  C   UNL     1      20.329  30.309  21.463  0.00  0.00    +0.013 A 
ATOM      3  C   UNL     1      19.892  31.385  20.581  0.00  0.00    +0.019 A 
ATOM     38  C   UNL     1      19.568  32.671  21.179  0.00  0.00    +0.120 A 
ATOM     39  N   UNL     1      19.677  32.844  22.556  0.00  0.00    -0.263 NA
ATOM     40  C   UNL     1      20.094  31.815  23.414  0.00  0.00    +0.111 A 
ENDBRANCH   4   3
ENDBRANCH  10   9
BRANCH  12  13
ATOM     13  N   UNL     1      23.064  29.427  12.233  0.00  0.00    -0.281 N 
ATOM     14  C   UNL     1      22.518  28.155  12.267  0.00  0.00    +0.248 C 
ATOM     30  O   UNL     1      21.639  27.800  13.039  0.00  0.00    -0.270 OA
ATOM     31  H   UNL     1      23.916  29.535  11.682  0.00  0.00    +0.155 HD
BRANCH  14  15
ATOM     15  C   UNL     1      23.032  27.123  11.315  0.00  0.00    +0.037 A 
ATOM     16  C   UNL     1      24.361  27.241  10.712  0.00  0.00    +0.013 A 
ATOM     17  C   UNL     1      24.826  26.241   9.783  0.00  0.00    +0.005 A 
ATOM     18  C   UNL     1      23.959  25.112   9.455  0.00  0.00    -0.033 A 
ATOM     28  C   UNL     1      22.647  25.016  10.072  0.00  0.00    +0.005 A 
ATOM     29  C   UNL     1      22.188  25.996  10.981  0.00  0.00    +0.013 A 
BRANCH  18  19
ATOM     19  C   UNL     1      24.364  24.009   8.459  0.00  0.00    +0.119 C 
BRANCH  19  20
ATOM     20  N   UNL     1      24.520  24.404   7.027  0.00  0.00    -0.302 NA
ATOM     21  C   UNL     1      23.173  24.491   6.305  0.00  0.00    +0.066 C 
ATOM     22  C   UNL     1      23.354  24.928   4.814  0.00  0.00    -0.064 C 
ATOM     23  N   UNL     1      24.285  23.942   4.106  0.00  0.00    +0.379 N 
ATOM     24  C   UNL     1      24.411  24.317   2.690  0.00  0.00    -0.096 C 
ATOM     25  H   UNL     1      23.808  22.936   4.149  0.00  0.00    -0.082 HD
ATOM     26  C   UNL     1      25.626  23.848   4.820  0.00  0.00    -0.064 C 
ATOM     27  C   UNL     1      25.433  23.442   6.308  0.00  0.00    +0.066 C 
ENDBRANCH  19  20
ENDBRANCH  18  19
ENDBRANCH  14  15
ENDBRANCH  12  13
TORSDOF 6
ENDMDL
MODEL 5
REMARK VINA RESULT:      -7.9     13.311     17.482
REMARK  Name = C:\Users\Docking\Desktop\test protocol\1iep_ligandH.pdb
REMARK  8 active torsions:
REMARK  status: ('A' for Active; 'I' for Inactive)
REMARK    1  A    between atoms: _5  and  _11
REMARK    2  A    between atoms: _19  and  _21
REMARK    3  A    between atoms: _22  and  _66
REMARK    4  A    between atoms: _27  and  _30
REMARK    5  A    between atoms: _32  and  _33
REMARK    6  A    between atoms: _38  and  _43
REMARK    7  A    between atoms: _43  and  _46
REMARK    8  A    between atoms: _53  and  _55
REMARK                            x       y       z     vdW  Elec       q    Type
REMARK                         _______ _______ _______ _____ _____    ______ ____
ROOT
ATOM     10  C   UNL     1      27.709  20.009  29.243  0.00  0.00    +0.038 A 
ATOM     11  C   UNL     1      26.316  20.250  29.359  0.00  0.00    +0.047 A 
ATOM     12  C   UNL     1      25.796  21.601  29.509  0.00  0.00    +0.035 A 
ATOM     32  C   UNL     1      26.724  22.682  29.534  0.00  0.00    +0.024 A 
ATOM     33  C   UNL     1      28.143  22.455  29.418  0.00  0.00    +0.007 A 
ATOM     34  C   UNL     1      28.662  21.125  29.272  0.00  0.00    -0.029 A 
ATOM     35  C   UNL     1      30.193  20.939  29.159  0.00  0.00    +0.045 C 
ENDROOT
BRANCH  10   9
ATOM      4  C   UNL     1      29.195  15.823  31.063  0.00  0.00    +0.077 A 
ATOM      5  C   UNL     1      29.105  16.310  32.409  0.00  0.00    +0.048 A 
ATOM      6  C   UNL     1      28.679  17.645  32.590  0.00  0.00    +0.116 A 
ATOM      7  N   UNL     1      28.369  18.426  31.498  0.00  0.00    -0.223 NA
ATOM      8  C   UNL     1      28.467  17.927  30.213  0.00  0.00    +0.220 A 
ATOM      9  N   UNL     1      28.152  18.692  29.101  0.00  0.00    -0.283 N 
ATOM     36  H   UNL     1      28.246  18.289  28.168  0.00  0.00    +0.155 HD
ATOM     37  N   UNL     1      28.873  16.655  30.013  0.00  0.00    -0.214 NA
BRANCH   4   3
ATOM      1  C   UNL     1      30.808  12.768  29.228  0.00  0.00    +0.020 A 
ATOM      2  C   UNL     1      30.417  14.127  29.524  0.00  0.00    +0.013 A 
ATOM      3  C   UNL     1      29.626  14.434  30.709  0.00  0.00    +0.019 A 
ATOM     38  C   UNL     1      29.245  13.334  31.582  0.00  0.00    +0.120 A 
ATOM     39  N   UNL     1      29.634  12.035  31.271  0.00  0.00    -0.263 NA
ATOM     40  C   UNL     1      30.394  11.727  30.133  0.00  0.00    +0.111 A 
ENDBRANCH   4   3
ENDBRANCH  10   9
BRANCH  12  13
ATOM     13  N   UNL     1      24.393  21.906  29.639  0.00  0.00    -0.281 N 
ATOM     14  C   UNL     1      23.671  22.887  28.980  0.00  0.00    +0.248 C 
ATOM     30  O   UNL     1      24.170  23.796  28.332  0.00  0.00    -0.270 OA
ATOM     31  H   UNL     1      23.869  21.330  30.297  0.00  0.00    +0.155 HD
BRANCH  14  15
ATOM     15  C   UNL     1      22.179  22.865  29.065  0.00  0.00    +0.037 A 
ATOM     16  C   UNL     1      21.480  21.898  29.916  0.00  0.00    +0.013 A 
ATOM     17  C   UNL     1      20.040  21.887  29.966  0.00  0.00    +0.005 A 
ATOM     18  C   UNL     1      19.288  22.847  29.162  0.00  0.00    -0.033 A 
ATOM     28  C   UNL     1      20.006  23.799  28.331  0.00  0.00    +0.005 A 
ATOM     29  C   UNL     1      21.418  23.812  28.278  0.00  0.00    +0.013 A 
BRANCH  18  19
ATOM     19  C   UNL     1      17.748  22.893  29.138  0.00  0.00    +0.119 C 
BRANCH  19  20
ATOM     20  N   UNL     1      17.053  23.196  30.424  0.00  0.00    -0.302 NA
ATOM     21  C   UNL     1      15.537  23.317  30.243  0.00  0.00    +0.066 C 
ATOM     22  C   UNL     1      14.823  23.611  31.603  0.00  0.00    -0.064 C 
ATOM     23  N   UNL     1      15.399  24.890  32.212  0.00  0.00    +0.379 N 
ATOM     24  C   UNL     1      14.690  25.201  33.461  0.00  0.00    -0.096 C 
ATOM     25  H   UNL     1      15.205  25.722  31.496  0.00  0.00    -0.082 HD
ATOM     26  C   UNL     1      16.906  24.780  32.393  0.00  0.00    -0.064 C 
ATOM     27  C   UNL     1      17.603  24.458  31.041  0.00  0.00    +0.066 C 
ENDBRANCH  19  20
ENDBRANCH  18  19
ENDBRANCH  14  15
ENDBRANCH  12  13
TORSDOF 6
ENDMDL
