MODEL 1
REMARK VINA RESULT:      -7.8      0.000      0.000
REMARK  Name = C:\Users\Docking\Desktop\test protocol\1iep_ligandH.pdb
REMARK  8 active torsions:
REMARK  status: ('A' for Active; 'I' for Inactive)
REMARK    1  A    between atoms: _5  and  _11
REMARK    2  A    between atoms: _19  and  _21
REMARK    3  A    between atoms: _22  and  _66
REMARK    4  A    between atoms: _27  and  _30
REMARK    5  A    between atoms: _32  and  _33
REMARK    6  A    between atoms: _38  and  _43
REMARK    7  A    between atoms: _43  and  _46
REMARK    8  A    between atoms: _53  and  _55
REMARK                            x       y       z     vdW  Elec       q    Type
REMARK                         _______ _______ _______ _____ _____    ______ ____
ROOT
ATOM     10  C   UNL     1      -9.231  17.419  -4.016  0.00  0.00    +0.038 A 
ATOM     11  C   UNL     1     -10.573  17.470  -4.474  0.00  0.00    +0.047 A 
ATOM     12  C   UNL     1     -11.302  18.728  -4.525  0.00  0.00    +0.035 A 
ATOM     32  C   UNL     1     -10.634  19.914  -4.105  0.00  0.00    +0.024 A 
ATOM     33  C   UNL     1      -9.271  19.880  -3.636  0.00  0.00    +0.007 A 
ATOM     34  C   UNL     1      -8.547  18.642  -3.581  0.00  0.00    -0.029 A 
ATOM     35  C   UNL     1      -7.090  18.663  -3.063  0.00  0.00    +0.045 C 
ENDROOT
BRANCH  10   9
ATOM      4  C   UNL     1      -7.892  13.389  -1.778  0.00  0.00    +0.077 A 
ATOM      5  C   UNL     1      -8.523  13.790  -0.554  0.00  0.00    +0.048 A 
ATOM      6  C   UNL     1      -9.176  15.043  -0.539  0.00  0.00    +0.116 A 
ATOM      7  N   UNL     1      -9.190  15.829  -1.671  0.00  0.00    -0.223 NA
ATOM      8  C   UNL     1      -8.570  15.413  -2.835  0.00  0.00    +0.220 A 
ATOM      9  N   UNL     1      -8.579  16.184  -3.988  0.00  0.00    -0.283 N 
ATOM     36  H   UNL     1      -8.103  15.846  -4.824  0.00  0.00    +0.155 HD
ATOM     37  N   UNL     1      -7.939  14.222  -2.874  0.00  0.00    -0.214 NA
BRANCH   4   3
ATOM      1  C   UNL     1      -5.829  10.142  -1.069  0.00  0.00    +0.020 A 
ATOM      2  C   UNL     1      -6.518  11.393  -0.848  0.00  0.00    +0.013 A 
ATOM      3  C   UNL     1      -7.165  12.092  -1.951  0.00  0.00    +0.019 A 
ATOM     38  C   UNL     1      -7.098  11.493  -3.276  0.00  0.00    +0.120 A 
ATOM     39  N   UNL     1      -6.427  10.288  -3.459  0.00  0.00    -0.263 NA
ATOM     40  C   UNL     1      -5.798   9.608  -2.405  0.00  0.00    +0.111 A 
ENDBRANCH   4   3
ENDBRANCH  10   9
BRANCH  12  13
ATOM     13  N   UNL     1     -12.668  18.841  -4.973  0.00  0.00    -0.281 N 
ATOM     14  C   UNL     1     -13.812  18.950  -4.199  0.00  0.00    +0.248 C 
ATOM     30  O   UNL     1     -13.852  18.751  -2.994  0.00  0.00    -0.270 OA
ATOM     31  H   UNL     1     -12.809  18.841  -5.984  0.00  0.00    +0.155 HD
BRANCH  14  15
ATOM     15  C   UNL     1     -15.100  19.319  -4.862  0.00  0.00    +0.037 A 
ATOM     16  C   UNL     1     -16.325  18.553  -4.621  0.00  0.00    +0.013 A 
ATOM     17  C   UNL     1     -17.550  18.921  -5.286  0.00  0.00    +0.005 A 
ATOM     18  C   UNL     1     -17.555  20.062  -6.198  0.00  0.00    -0.033 A 
ATOM     28  C   UNL     1     -16.327  20.807  -6.415  0.00  0.00    +0.005 A 
ATOM     29  C   UNL     1     -15.124  20.449  -5.766  0.00  0.00    +0.013 A 
BRANCH  18  19
ATOM     19  C   UNL     1     -18.812  20.512  -6.967  0.00  0.00    +0.119 C 
BRANCH  19  20
ATOM     20  N   UNL     1     -18.602  21.294  -8.222  0.00  0.00    -0.302 NA
ATOM     21  C   UNL     1     -19.742  22.282  -8.481  0.00  0.00    +0.066 C 
ATOM     22  C   UNL     1     -19.495  23.107  -9.786  0.00  0.00    -0.064 C 
ATOM     23  N   UNL     1     -19.329  22.150 -10.968  0.00  0.00    +0.379 N 
ATOM     24  C   UNL     1     -19.154  22.924 -12.205  0.00  0.00    -0.096 C 
ATOM     25  H   UNL     1     -20.273  21.565 -11.065  0.00  0.00    -0.082 HD
ATOM     26  C   UNL     1     -18.198  21.162 -10.717  0.00  0.00    -0.064 C 
ATOM     27  C   UNL     1     -18.439  20.368  -9.403  0.00  0.00    +0.066 C 
ENDBRANCH  19  20
ENDBRANCH  18  19
ENDBRANCH  14  15
ENDBRANCH  12  13
TORSDOF 6
ENDMDL
MODEL 2
REMARK VINA RESULT:      -7.7      3.660     12.549
REMARK  Name = C:\Users\Docking\Desktop\test protocol\1iep_ligandH.pdb
REMARK  8 active torsions:
REMARK  status: ('A' for Active; 'I' for Inactive)
REMARK    1  A    between atoms: _5  and  _11
REMARK    2  A    between atoms: _19  and  _21
REMARK    3  A    between atoms: _22  and  _66
REMARK    4  A    between atoms: _27  and  _30
REMARK    5  A    between atoms: _32  and  _33
REMARK    6  A    between atoms: _38  and  _43
REMARK    7  A    between atoms: _43  and  _46
REMARK    8  A    between atoms: _53  and  _55
REMARK                            x       y       z     vdW  Elec       q    Type
REMARK                         _______ _______ _______ _____ _____    ______ ____
ROOT
ATOM     10  C   UNL     1     -16.552  20.071  -7.785  0.00  0.00    +0.038 A 
ATOM     11  C   UNL     1     -15.354  19.670  -7.141  0.00  0.00    +0.047 A 
ATOM     12  C   UNL     1     -14.060  20.167  -7.582  0.00  0.00    +0.035 A 
ATOM     32  C   UNL     1     -14.023  21.074  -8.681  0.00  0.00    +0.024 A 
ATOM     33  C   UNL     1     -15.232  21.491  -9.348  0.00  0.00    +0.007 A 
ATOM     34  C   UNL     1     -16.511  21.002  -8.919  0.00  0.00    -0.029 A 
ATOM     35  C   UNL     1     -17.773  21.478  -9.676  0.00  0.00    +0.045 C 
ENDROOT
BRANCH  10   9
ATOM      4  C   UNL     1     -20.009  16.741  -7.747  0.00  0.00    +0.077 A 
ATOM      5  C   UNL     1     -19.353  15.963  -8.757  0.00  0.00    +0.048 A 
ATOM      6  C   UNL     1     -18.131  16.458  -9.266  0.00  0.00    +0.116 A 
ATOM      7  N   UNL     1     -17.613  17.644  -8.792  0.00  0.00    -0.223 NA
ATOM      8  C   UNL     1     -18.273  18.371  -7.818  0.00  0.00    +0.220 A 
ATOM      9  N   UNL     1     -17.767  19.562  -7.321  0.00  0.00    -0.283 N 
ATOM     36  H   UNL     1     -18.288  20.072  -6.608  0.00  0.00    +0.155 HD
ATOM     37  N   UNL     1     -19.442  17.920  -7.317  0.00  0.00    -0.214 NA
BRANCH   4   3
ATOM      1  C   UNL     1     -23.617  15.340  -7.179  0.00  0.00    +0.020 A 
ATOM      2  C   UNL     1     -22.385  15.699  -7.843  0.00  0.00    +0.013 A 
ATOM      3  C   UNL     1     -21.306  16.349  -7.109  0.00  0.00    +0.019 A 
ATOM     38  C   UNL     1     -21.507  16.623  -5.694  0.00  0.00    +0.120 A 
ATOM     39  N   UNL     1     -22.705  16.267  -5.082  0.00  0.00    -0.263 NA
ATOM     40  C   UNL     1     -23.751  15.643  -5.778  0.00  0.00    +0.111 A 
ENDBRANCH   4   3
ENDBRANCH  10   9
BRANCH  12  13
ATOM     13  N   UNL     1     -12.809  19.789  -6.971  0.00  0.00    -0.281 N 
ATOM     14  C   UNL     1     -12.167  20.393  -5.903  0.00  0.00    +0.248 C 
ATOM     30  O   UNL     1     -12.466  21.485  -5.443  0.00  0.00    -0.270 OA
ATOM     31  H   UNL     1     -12.341  18.979  -7.376  0.00  0.00    +0.155 HD
BRANCH  14  15
ATOM     15  C   UNL     1     -11.016  19.688  -5.261  0.00  0.00    +0.037 A 
ATOM     16  C   UNL     1     -11.194  18.399  -4.586  0.00  0.00    +0.013 A 
ATOM     17  C   UNL     1     -10.070  17.749  -3.961  0.00  0.00    +0.005 A 
ATOM     18  C   UNL     1      -8.756  18.386  -4.009  0.00  0.00    -0.033 A 
ATOM     28  C   UNL     1      -8.606  19.661  -4.689  0.00  0.00    +0.005 A 
ATOM     29  C   UNL     1      -9.706  20.302  -5.303  0.00  0.00    +0.013 A 
BRANCH  18  19
ATOM     19  C   UNL     1      -7.506  17.774  -3.350  0.00  0.00    +0.119 C 
BRANCH  19  20
ATOM     20  N   UNL     1      -7.051  18.371  -2.059  0.00  0.00    -0.302 NA
ATOM     21  C   UNL     1      -5.766  19.188  -2.224  0.00  0.00    +0.066 C 
ATOM     22  C   UNL     1      -5.318  19.824  -0.868  0.00  0.00    -0.064 C 
ATOM     23  N   UNL     1      -5.127  18.719   0.172  0.00  0.00    +0.379 N 
ATOM     24  C   UNL     1      -4.649  19.308   1.431  0.00  0.00    -0.096 C 
ATOM     25  H   UNL     1      -4.332  18.034  -0.205  0.00  0.00    -0.082 HD
ATOM     26  C   UNL     1      -6.399  17.900   0.341  0.00  0.00    -0.064 C 
ATOM     27  C   UNL     1      -6.852  17.297  -1.018  0.00  0.00    +0.066 C 
ENDBRANCH  19  20
ENDBRANCH  18  19
ENDBRANCH  14  15
ENDBRANCH  12  13
TORSDOF 6
ENDMDL
MODEL 3
REMARK VINA RESULT:      -7.7      7.849     12.045
REMARK  Name = C:\Users\Docking\Desktop\test protocol\1iep_ligandH.pdb
REMARK  8 active torsions:
REMARK  status: ('A' for Active; 'I' for Inactive)
REMARK    1  A    between atoms: _5  and  _11
REMARK    2  A    between atoms: _19  and  _21
REMARK    3  A    between atoms: _22  and  _66
REMARK    4  A    between atoms: _27  and  _30
REMARK    5  A    between atoms: _32  and  _33
REMARK    6  A    between atoms: _38  and  _43
REMARK    7  A    between atoms: _43  and  _46
REMARK    8  A    between atoms: _53  and  _55
REMARK                            x       y       z     vdW  Elec       q    Type
REMARK                         _______ _______ _______ _____ _____    ______ ____
ROOT
ATOM     10  C   UNL     1     -14.170  22.170  -7.456  0.00  0.00    +0.038 A 
ATOM     11  C   UNL     1     -13.020  21.963  -8.261  0.00  0.00    +0.047 A 
ATOM     12  C   UNL     1     -12.102  23.052  -8.556  0.00  0.00    +0.035 A 
ATOM     32  C   UNL     1     -12.384  24.340  -8.013  0.00  0.00    +0.024 A 
ATOM     33  C   UNL     1     -13.549  24.568  -7.194  0.00  0.00    +0.007 A 
ATOM     34  C   UNL     1     -14.459  23.498  -6.901  0.00  0.00    -0.029 A 
ATOM     35  C   UNL     1     -15.695  23.803  -6.023  0.00  0.00    +0.045 C 
ENDROOT
BRANCH  10   9
ATOM      4  C   UNL     1     -17.699  19.175  -8.722  0.00  0.00    +0.077 A 
ATOM      5  C   UNL     1     -17.889  19.836  -9.981  0.00  0.00    +0.048 A 
ATOM      6  C   UNL     1     -17.063  20.948 -10.261  0.00  0.00    +0.116 A 
ATOM      7  N   UNL     1     -16.120  21.358  -9.344  0.00  0.00    -0.223 NA
ATOM      8  C   UNL     1     -15.964  20.699  -8.138  0.00  0.00    +0.220 A 
ATOM      9  N   UNL     1     -15.017  21.089  -7.204  0.00  0.00    -0.283 N 
ATOM     36  H   UNL     1     -14.938  20.581  -6.324  0.00  0.00    +0.155 HD
ATOM     37  N   UNL     1     -16.742  19.635  -7.847  0.00  0.00    -0.214 NA
BRANCH   4   3
ATOM      1  C   UNL     1     -19.603  15.758  -8.704  0.00  0.00    +0.020 A 
ATOM      2  C   UNL     1     -18.835  16.886  -9.179  0.00  0.00    +0.013 A 
ATOM      3  C   UNL     1     -18.493  17.983  -8.283  0.00  0.00    +0.019 A 
ATOM     38  C   UNL     1     -18.946  17.908  -6.902  0.00  0.00    +0.120 A 
ATOM     39  N   UNL     1     -19.685  16.811  -6.474  0.00  0.00    -0.263 NA
ATOM     40  C   UNL     1     -20.022  15.749  -7.327  0.00  0.00    +0.111 A 
ENDBRANCH   4   3
ENDBRANCH  10   9
BRANCH  12  13
ATOM     13  N   UNL     1     -10.923  22.904  -9.373  0.00  0.00    -0.281 N 
ATOM     14  C   UNL     1      -9.739  22.263  -9.050  0.00  0.00    +0.248 C 
ATOM     30  O   UNL     1      -9.433  21.902  -7.924  0.00  0.00    -0.270 OA
ATOM     31  H   UNL     1     -10.968  23.322 -10.303  0.00  0.00    +0.155 HD
BRANCH  14  15
ATOM     15  C   UNL     1      -8.743  21.997 -10.133  0.00  0.00    +0.037 A 
ATOM     16  C   UNL     1      -7.866  20.824 -10.088  0.00  0.00    +0.013 A 
ATOM     17  C   UNL     1      -6.903  20.600 -11.137  0.00  0.00    +0.005 A 
ATOM     18  C   UNL     1      -6.814  21.552 -12.242  0.00  0.00    -0.033 A 
ATOM     28  C   UNL     1      -7.700  22.703 -12.265  0.00  0.00    +0.005 A 
ATOM     29  C   UNL     1      -8.644  22.927 -11.238  0.00  0.00    +0.013 A 
BRANCH  18  19
ATOM     19  C   UNL     1      -5.801  21.403 -13.393  0.00  0.00    +0.119 C 
BRANCH  19  20
ATOM     20  N   UNL     1      -6.293  20.786 -14.661  0.00  0.00    -0.302 NA
ATOM     21  C   UNL     1      -6.489  19.273 -14.525  0.00  0.00    +0.066 C 
ATOM     22  C   UNL     1      -7.025  18.647 -15.853  0.00  0.00    -0.064 C 
ATOM     23  N   UNL     1      -6.056  18.968 -16.993  0.00  0.00    +0.379 N 
ATOM     24  C   UNL     1      -6.527  18.332 -18.231  0.00  0.00    -0.096 C 
ATOM     25  H   UNL     1      -5.070  18.517 -16.735  0.00  0.00    -0.082 HD
ATOM     26  C   UNL     1      -5.854  20.470 -17.133  0.00  0.00    -0.064 C 
ATOM     27  C   UNL     1      -5.349  21.087 -15.799  0.00  0.00    +0.066 C 
ENDBRANCH  19  20
ENDBRANCH  18  19
ENDBRANCH  14  15
ENDBRANCH  12  13
TORSDOF 6
ENDMDL
MODEL 4
REMARK VINA RESULT:      -7.7      4.972     13.877
REMARK  Name = C:\Users\Docking\Desktop\test protocol\1iep_ligandH.pdb
REMARK  8 active torsions:
REMARK  status: ('A' for Active; 'I' for Inactive)
REMARK    1  A    between atoms: _5  and  _11
REMARK    2  A    between atoms: _19  and  _21
REMARK    3  A    between atoms: _22  and  _66
REMARK    4  A    between atoms: _27  and  _30
REMARK    5  A    between atoms: _32  and  _33
REMARK    6  A    between atoms: _38  and  _43
REMARK    7  A    between atoms: _43  and  _46
REMARK    8  A    between atoms: _53  and  _55
REMARK                            x       y       z     vdW  Elec       q    Type
REMARK                         _______ _______ _______ _____ _____    ______ ____
ROOT
ATOM     10  C   UNL     1      -9.610  16.264  -1.458  0.00  0.00    +0.038 A 
ATOM     11  C   UNL     1      -8.932  15.066  -1.800  0.00  0.00    +0.047 A 
ATOM     12  C   UNL     1      -8.466  14.146  -0.774  0.00  0.00    +0.035 A 
ATOM     32  C   UNL     1      -8.710  14.477   0.591  0.00  0.00    +0.024 A 
ATOM     33  C   UNL     1      -9.397  15.691   0.956  0.00  0.00    +0.007 A 
ATOM     34  C   UNL     1      -9.856  16.604  -0.052  0.00  0.00    -0.029 A 
ATOM     35  C   UNL     1     -10.581  17.894   0.398  0.00  0.00    +0.045 C 
ENDROOT
BRANCH  10   9
ATOM      4  C   UNL     1      -8.846  19.782  -4.633  0.00  0.00    +0.077 A 
ATOM      5  C   UNL     1      -7.493  19.967  -4.192  0.00  0.00    +0.048 A 
ATOM      6  C   UNL     1      -7.035  19.141  -3.141  0.00  0.00    +0.116 A 
ATOM      7  N   UNL     1      -7.875  18.204  -2.581  0.00  0.00    -0.223 NA
ATOM      8  C   UNL     1      -9.175  18.053  -3.028  0.00  0.00    +0.220 A 
ATOM      9  N   UNL     1     -10.035  17.111  -2.484  0.00  0.00    -0.283 N 
ATOM     36  H   UNL     1     -10.989  17.036  -2.837  0.00  0.00    +0.155 HD
ATOM     37  N   UNL     1      -9.637  18.830  -4.030  0.00  0.00    -0.214 NA
BRANCH   4   3
ATOM      1  C   UNL     1      -9.354  22.051  -7.779  0.00  0.00    +0.020 A 
ATOM      2  C   UNL     1      -8.697  21.299  -6.734  0.00  0.00    +0.013 A 
ATOM      3  C   UNL     1      -9.475  20.576  -5.736  0.00  0.00    +0.019 A 
ATOM     38  C   UNL     1     -10.926  20.633  -5.824  0.00  0.00    +0.120 A 
ATOM     39  N   UNL     1     -11.531  21.366  -6.841  0.00  0.00    -0.263 NA
ATOM     40  C   UNL     1     -10.793  22.067  -7.806  0.00  0.00    +0.111 A 
ENDBRANCH   4   3
ENDBRANCH  10   9
BRANCH  12  13
ATOM     13  N   UNL     1      -7.766  12.919  -1.060  0.00  0.00    -0.281 N 
ATOM     14  C   UNL     1      -7.805  12.167  -2.222  0.00  0.00    +0.248 C 
ATOM     30  O   UNL     1      -8.620  12.324  -3.119  0.00  0.00    -0.270 OA
ATOM     31  H   UNL     1      -7.167  12.562  -0.315  0.00  0.00    +0.155 HD
BRANCH  14  15
ATOM     15  C   UNL     1      -6.804  11.073  -2.409  0.00  0.00    +0.037 A 
ATOM     16  C   UNL     1      -5.918  11.045  -3.576  0.00  0.00    +0.013 A 
ATOM     17  C   UNL     1      -4.973   9.969  -3.740  0.00  0.00    +0.005 A 
ATOM     18  C   UNL     1      -4.908   8.912  -2.734  0.00  0.00    -0.033 A 
ATOM     28  C   UNL     1      -5.795   8.968  -1.584  0.00  0.00    +0.005 A 
ATOM     29  C   UNL     1      -6.724  10.020  -1.420  0.00  0.00    +0.013 A 
BRANCH  18  19
ATOM     19  C   UNL     1      -3.945   7.715  -2.839  0.00  0.00    +0.119 C 
BRANCH  19  20
ATOM     20  N   UNL     1      -4.532   6.397  -3.224  0.00  0.00    -0.302 NA
ATOM     21  C   UNL     1      -4.313   5.333  -2.145  0.00  0.00    +0.066 C 
ATOM     22  C   UNL     1      -4.953   3.967  -2.554  0.00  0.00    -0.064 C 
ATOM     23  N   UNL     1      -4.366   3.511  -3.891  0.00  0.00    +0.379 N 
ATOM     24  C   UNL     1      -4.923   2.199  -4.250  0.00  0.00    -0.096 C 
ATOM     25  H   UNL     1      -3.267   3.386  -3.752  0.00  0.00    -0.082 HD
ATOM     26  C   UNL     1      -4.577   4.565  -4.969  0.00  0.00    -0.064 C 
ATOM     27  C   UNL     1      -3.963   5.926  -4.540  0.00  0.00    +0.066 C 
ENDBRANCH  19  20
ENDBRANCH  18  19
ENDBRANCH  14  15
ENDBRANCH  12  13
TORSDOF 6
ENDMDL
MODEL 5
REMARK VINA RESULT:      -7.6      3.271     12.241
REMARK  Name = C:\Users\Docking\Desktop\test protocol\1iep_ligandH.pdb
REMARK  8 active torsions:
REMARK  status: ('A' for Active; 'I' for Inactive)
REMARK    1  A    between atoms: _5  and  _11
REMARK    2  A    between atoms: _19  and  _21
REMARK    3  A    between atoms: _22  and  _66
REMARK    4  A    between atoms: _27  and  _30
REMARK    5  A    between atoms: _32  and  _33
REMARK    6  A    between atoms: _38  and  _43
REMARK    7  A    between atoms: _43  and  _46
REMARK    8  A    between atoms: _53  and  _55
REMARK                            x       y       z     vdW  Elec       q    Type
REMARK                         _______ _______ _______ _____ _____    ______ ____
ROOT
ATOM     10  C   UNL     1     -16.316  20.021  -7.592  0.00  0.00    +0.038 A 
ATOM     11  C   UNL     1     -15.145  19.574  -6.928  0.00  0.00    +0.047 A 
ATOM     12  C   UNL     1     -13.827  20.039  -7.332  0.00  0.00    +0.035 A 
ATOM     32  C   UNL     1     -13.739  20.962  -8.415  0.00  0.00    +0.024 A 
ATOM     33  C   UNL     1     -14.919  21.426  -9.102  0.00  0.00    +0.007 A 
ATOM     34  C   UNL     1     -16.221  20.969  -8.709  0.00  0.00    -0.029 A 
ATOM     35  C   UNL     1     -17.451  21.495  -9.485  0.00  0.00    +0.045 C 
ENDROOT
BRANCH  10   9
ATOM      4  C   UNL     1     -19.886  16.815  -7.708  0.00  0.00    +0.077 A 
ATOM      5  C   UNL     1     -19.239  16.044  -8.730  0.00  0.00    +0.048 A 
ATOM      6  C   UNL     1     -17.992  16.510  -9.204  0.00  0.00    +0.116 A 
ATOM      7  N   UNL     1     -17.443  17.663  -8.686  0.00  0.00    -0.223 NA
ATOM      8  C   UNL     1     -18.094  18.384  -7.703  0.00  0.00    +0.220 A 
ATOM      9  N   UNL     1     -17.556  19.542  -7.163  0.00  0.00    -0.283 N 
ATOM     36  H   UNL     1     -18.071  20.050  -6.444  0.00  0.00    +0.155 HD
ATOM     37  N   UNL     1     -19.286  17.961  -7.235  0.00  0.00    -0.214 NA
BRANCH   4   3
ATOM      1  C   UNL     1     -23.556  15.542  -7.244  0.00  0.00    +0.020 A 
ATOM      2  C   UNL     1     -22.301  15.878  -7.877  0.00  0.00    +0.013 A 
ATOM      3  C   UNL     1     -21.206  16.450  -7.103  0.00  0.00    +0.019 A 
ATOM     38  C   UNL     1     -21.415  16.672  -5.681  0.00  0.00    +0.120 A 
ATOM     39  N   UNL     1     -22.635  16.341  -5.099  0.00  0.00    -0.263 NA
ATOM     40  C   UNL     1     -23.696  15.791  -5.834  0.00  0.00    +0.111 A 
ENDBRANCH   4   3
ENDBRANCH  10   9
BRANCH  12  13
ATOM     13  N   UNL     1     -12.602  19.614  -6.701  0.00  0.00    -0.281 N 
ATOM     14  C   UNL     1     -11.948  20.201  -5.631  0.00  0.00    +0.248 C 
ATOM     30  O   UNL     1     -12.205  21.310  -5.187  0.00  0.00    -0.270 OA
ATOM     31  H   UNL     1     -12.165  18.779  -7.091  0.00  0.00    +0.155 HD
BRANCH  14  15
ATOM     15  C   UNL     1     -10.837  19.454  -4.966  0.00  0.00    +0.037 A 
ATOM     16  C   UNL     1      -9.688  20.156  -4.388  0.00  0.00    +0.013 A 
ATOM     17  C   UNL     1      -8.622  19.409  -3.767  0.00  0.00    +0.005 A 
ATOM     18  C   UNL     1      -8.701  17.951  -3.721  0.00  0.00    -0.033 A 
ATOM     28  C   UNL     1      -9.855  17.281  -4.298  0.00  0.00    +0.005 A 
ATOM     29  C   UNL     1     -10.901  18.009  -4.907  0.00  0.00    +0.013 A 
BRANCH  18  19
ATOM     19  C   UNL     1      -7.600  17.074  -3.098  0.00  0.00    +0.119 C 
BRANCH  19  20
ATOM     20  N   UNL     1      -7.874  16.486  -1.752  0.00  0.00    -0.302 NA
ATOM     21  C   UNL     1      -8.337  15.029  -1.846  0.00  0.00    +0.066 C 
ATOM     22  C   UNL     1      -8.597  14.423  -0.428  0.00  0.00    -0.064 C 
ATOM     23  N   UNL     1      -9.634  15.275   0.306  0.00  0.00    +0.379 N 
ATOM     24  C   UNL     1      -9.923  14.675   1.616  0.00  0.00    -0.096 C 
ATOM     25  H   UNL     1     -10.574  15.252  -0.293  0.00  0.00    -0.082 HD
ATOM     26  C   UNL     1      -9.182  16.725   0.400  0.00  0.00    -0.064 C 
ATOM     27  C   UNL     1      -8.898  17.309  -1.012  0.00  0.00    +0.066 C 
ENDBRANCH  19  20
ENDBRANCH  18  19
ENDBRANCH  14  15
ENDBRANCH  12  13
TORSDOF 6
ENDMDL
