MODEL 1
REMARK VINA RESULT:      -8.1      0.000      0.000
REMARK  Name = C:\Users\Docking\Desktop\test protocol\1iep_ligandH.pdb
REMARK  8 active torsions:
REMARK  status: ('A' for Active; 'I' for Inactive)
REMARK    1  A    between atoms: _5  and  _11
REMARK    2  A    between atoms: _19  and  _21
REMARK    3  A    between atoms: _22  and  _66
REMARK    4  A    between atoms: _27  and  _30
REMARK    5  A    between atoms: _32  and  _33
REMARK    6  A    between atoms: _38  and  _43
REMARK    7  A    between atoms: _43  and  _46
REMARK    8  A    between atoms: _53  and  _55
REMARK                            x       y       z     vdW  Elec       q    Type
REMARK                         _______ _______ _______ _____ _____    ______ ____
ROOT
ATOM     10  C   UNL     1      -9.139  17.506  -4.166  0.00  0.00    +0.038 A 
ATOM     11  C   UNL     1     -10.478  17.672  -4.603  0.00  0.00    +0.047 A 
ATOM     12  C   UNL     1     -11.077  18.994  -4.706  0.00  0.00    +0.035 A 
ATOM     32  C   UNL     1     -10.282  20.125  -4.359  0.00  0.00    +0.024 A 
ATOM     33  C   UNL     1      -8.920  19.974  -3.912  0.00  0.00    +0.007 A 
ATOM     34  C   UNL     1      -8.324  18.672  -3.806  0.00  0.00    -0.029 A 
ATOM     35  C   UNL     1      -6.862  18.569  -3.315  0.00  0.00    +0.045 C 
ENDROOT
BRANCH  10   9
ATOM      4  C   UNL     1      -8.064  13.519  -1.719  0.00  0.00    +0.077 A 
ATOM      5  C   UNL     1      -8.565  14.066  -0.491  0.00  0.00    +0.048 A 
ATOM      6  C   UNL     1      -9.085  15.380  -0.531  0.00  0.00    +0.116 A 
ATOM      7  N   UNL     1      -9.098  16.084  -1.715  0.00  0.00    -0.223 NA
ATOM      8  C   UNL     1      -8.605  15.527  -2.881  0.00  0.00    +0.220 A 
ATOM      9  N   UNL     1      -8.615  16.214  -4.085  0.00  0.00    -0.283 N 
ATOM     36  H   UNL     1      -8.235  15.771  -4.922  0.00  0.00    +0.155 HD
ATOM     37  N   UNL     1      -8.102  14.275  -2.869  0.00  0.00    -0.214 NA
BRANCH   4   3
ATOM      1  C   UNL     1      -6.100  10.217  -0.982  0.00  0.00    +0.020 A 
ATOM      2  C   UNL     1      -6.632  11.550  -0.818  0.00  0.00    +0.013 A 
ATOM      3  C   UNL     1      -7.487  12.143  -1.839  0.00  0.00    +0.019 A 
ATOM     38  C   UNL     1      -7.787  11.353  -3.024  0.00  0.00    +0.120 A 
ATOM     39  N   UNL     1      -7.260  10.072  -3.155  0.00  0.00    -0.263 NA
ATOM     40  C   UNL     1      -6.435   9.493  -2.180  0.00  0.00    +0.111 A 
ENDBRANCH   4   3
ENDBRANCH  10   9
BRANCH  12  13
ATOM     13  N   UNL     1     -12.434  19.224  -5.136  0.00  0.00    -0.281 N 
ATOM     14  C   UNL     1     -12.866  19.844  -6.297  0.00  0.00    +0.248 C 
ATOM     30  O   UNL     1     -12.147  20.488  -7.046  0.00  0.00    -0.270 OA
ATOM     31  H   UNL     1     -13.165  18.890  -4.508  0.00  0.00    +0.155 HD
BRANCH  14  15
ATOM     15  C   UNL     1     -14.309  19.746  -6.674  0.00  0.00    +0.037 A 
ATOM     16  C   UNL     1     -15.367  19.845  -5.664  0.00  0.00    +0.013 A 
ATOM     17  C   UNL     1     -16.750  19.730  -6.052  0.00  0.00    +0.005 A 
ATOM     18  C   UNL     1     -17.084  19.516  -7.458  0.00  0.00    -0.033 A 
ATOM     28  C   UNL     1     -16.016  19.427  -8.440  0.00  0.00    +0.005 A 
ATOM     29  C   UNL     1     -14.658  19.538  -8.063  0.00  0.00    +0.013 A 
BRANCH  18  19
ATOM     19  C   UNL     1     -18.532  19.361  -7.960  0.00  0.00    +0.119 C 
BRANCH  19  20
ATOM     20  N   UNL     1     -19.001  20.320  -9.004  0.00  0.00    -0.302 NA
ATOM     21  C   UNL     1     -19.028  21.762  -8.489  0.00  0.00    +0.066 C 
ATOM     22  C   UNL     1     -19.499  22.755  -9.601  0.00  0.00    -0.064 C 
ATOM     23  N   UNL     1     -20.880  22.334 -10.105  0.00  0.00    +0.379 N 
ATOM     24  C   UNL     1     -21.351  23.299 -11.109  0.00  0.00    -0.096 C 
ATOM     25  H   UNL     1     -21.582  22.376  -9.240  0.00  0.00    -0.082 HD
ATOM     26  C   UNL     1     -20.863  20.900 -10.616  0.00  0.00    -0.064 C 
ATOM     27  C   UNL     1     -20.365  19.926  -9.513  0.00  0.00    +0.066 C 
ENDBRANCH  19  20
ENDBRANCH  18  19
ENDBRANCH  14  15
ENDBRANCH  12  13
TORSDOF 6
ENDMDL
MODEL 2
REMARK VINA RESULT:      -8.0      1.529      2.442
REMARK  Name = C:\Users\Docking\Desktop\test protocol\1iep_ligandH.pdb
REMARK  8 active torsions:
REMARK  status: ('A' for Active; 'I' for Inactive)
REMARK    1  A    between atoms: _5  and  _11
REMARK    2  A    between atoms: _19  and  _21
REMARK    3  A    between atoms: _22  and  _66
REMARK    4  A    between atoms: _27  and  _30
REMARK    5  A    between atoms: _32  and  _33
REMARK    6  A    between atoms: _38  and  _43
REMARK    7  A    between atoms: _43  and  _46
REMARK    8  A    between atoms: _53  and  _55
REMARK                            x       y       z     vdW  Elec       q    Type
REMARK                         _______ _______ _______ _____ _____    ______ ____
ROOT
ATOM     10  C   UNL     1      -9.123  17.545  -4.212  0.00  0.00    +0.038 A 
ATOM     11  C   UNL     1     -10.367  17.732  -4.867  0.00  0.00    +0.047 A 
ATOM     12  C   UNL     1     -10.967  19.052  -4.980  0.00  0.00    +0.035 A 
ATOM     32  C   UNL     1     -10.271  20.161  -4.416  0.00  0.00    +0.024 A 
ATOM     33  C   UNL     1      -9.006  19.989  -3.746  0.00  0.00    +0.007 A 
ATOM     34  C   UNL     1      -8.411  18.688  -3.629  0.00  0.00    -0.029 A 
ATOM     35  C   UNL     1      -7.056  18.562  -2.895  0.00  0.00    +0.045 C 
ENDROOT
BRANCH  10   9
ATOM      4  C   UNL     1      -8.132  13.516  -1.798  0.00  0.00    +0.077 A 
ATOM      5  C   UNL     1      -8.695  14.035  -0.585  0.00  0.00    +0.048 A 
ATOM      6  C   UNL     1      -9.222  15.345  -0.622  0.00  0.00    +0.116 A 
ATOM      7  N   UNL     1      -9.185  16.073  -1.791  0.00  0.00    -0.223 NA
ATOM      8  C   UNL     1      -8.633  15.544  -2.944  0.00  0.00    +0.220 A 
ATOM      9  N   UNL     1      -8.592  16.255  -4.133  0.00  0.00    -0.283 N 
ATOM     36  H   UNL     1      -8.170  15.832  -4.959  0.00  0.00    +0.155 HD
ATOM     37  N   UNL     1      -8.122  14.295  -2.933  0.00  0.00    -0.214 NA
BRANCH   4   3
ATOM      1  C   UNL     1      -6.125  10.240  -1.065  0.00  0.00    +0.020 A 
ATOM      2  C   UNL     1      -6.672  11.567  -0.900  0.00  0.00    +0.013 A 
ATOM      3  C   UNL     1      -7.538  12.147  -1.918  0.00  0.00    +0.019 A 
ATOM     38  C   UNL     1      -7.835  11.352  -3.100  0.00  0.00    +0.120 A 
ATOM     39  N   UNL     1      -7.292  10.077  -3.232  0.00  0.00    -0.263 NA
ATOM     40  C   UNL     1      -6.456   9.509  -2.260  0.00  0.00    +0.111 A 
ENDBRANCH   4   3
ENDBRANCH  10   9
BRANCH  12  13
ATOM     13  N   UNL     1     -12.232  19.301  -5.626  0.00  0.00    -0.281 N 
ATOM     14  C   UNL     1     -12.478  20.087  -6.740  0.00  0.00    +0.248 C 
ATOM     30  O   UNL     1     -11.675  20.870  -7.225  0.00  0.00    -0.270 OA
ATOM     31  H   UNL     1     -13.044  18.843  -5.212  0.00  0.00    +0.155 HD
BRANCH  14  15
ATOM     15  C   UNL     1     -13.815  20.001  -7.402  0.00  0.00    +0.037 A 
ATOM     16  C   UNL     1     -14.052  20.604  -8.717  0.00  0.00    +0.013 A 
ATOM     17  C   UNL     1     -15.356  20.522  -9.326  0.00  0.00    +0.005 A 
ATOM     18  C   UNL     1     -16.434  19.832  -8.620  0.00  0.00    -0.033 A 
ATOM     28  C   UNL     1     -16.170  19.238  -7.320  0.00  0.00    +0.005 A 
ATOM     29  C   UNL     1     -14.893  19.318  -6.719  0.00  0.00    +0.013 A 
BRANCH  18  19
ATOM     19  C   UNL     1     -17.862  19.714  -9.185  0.00  0.00    +0.119 C 
BRANCH  19  20
ATOM     20  N   UNL     1     -18.741  18.655  -8.605  0.00  0.00    -0.302 NA
ATOM     21  C   UNL     1     -18.565  17.309  -9.314  0.00  0.00    +0.066 C 
ATOM     22  C   UNL     1     -19.476  16.208  -8.680  0.00  0.00    -0.064 C 
ATOM     23  N   UNL     1     -20.935  16.663  -8.736  0.00  0.00    +0.379 N 
ATOM     24  C   UNL     1     -21.800  15.605  -8.193  0.00  0.00    -0.096 C 
ATOM     25  H   UNL     1     -21.205  16.803  -9.809  0.00  0.00    -0.082 HD
ATOM     26  C   UNL     1     -21.119  18.001  -8.035  0.00  0.00    -0.064 C 
ATOM     27  C   UNL     1     -20.188  19.081  -8.654  0.00  0.00    +0.066 C 
ENDBRANCH  19  20
ENDBRANCH  18  19
ENDBRANCH  14  15
ENDBRANCH  12  13
TORSDOF 6
ENDMDL
MODEL 3
REMARK VINA RESULT:      -7.9      3.562     12.577
REMARK  Name = C:\Users\Docking\Desktop\test protocol\1iep_ligandH.pdb
REMARK  8 active torsions:
REMARK  status: ('A' for Active; 'I' for Inactive)
REMARK    1  A    between atoms: _5  and  _11
REMARK    2  A    between atoms: _19  and  _21
REMARK    3  A    between atoms: _22  and  _66
REMARK    4  A    between atoms: _27  and  _30
REMARK    5  A    between atoms: _32  and  _33
REMARK    6  A    between atoms: _38  and  _43
REMARK    7  A    between atoms: _43  and  _46
REMARK    8  A    between atoms: _53  and  _55
REMARK                            x       y       z     vdW  Elec       q    Type
REMARK                         _______ _______ _______ _____ _____    ______ ____
ROOT
ATOM     10  C   UNL     1     -16.273  19.950  -8.263  0.00  0.00    +0.038 A 
ATOM     11  C   UNL     1     -15.160  19.534  -7.488  0.00  0.00    +0.047 A 
ATOM     12  C   UNL     1     -13.810  19.968  -7.816  0.00  0.00    +0.035 A 
ATOM     32  C   UNL     1     -13.631  20.828  -8.939  0.00  0.00    +0.024 A 
ATOM     33  C   UNL     1     -14.751  21.259  -9.738  0.00  0.00    +0.007 A 
ATOM     34  C   UNL     1     -16.084  20.832  -9.421  0.00  0.00    -0.029 A 
ATOM     35  C   UNL     1     -17.246  21.321 -10.316  0.00  0.00    +0.045 C 
ENDROOT
BRANCH  10   9
ATOM      4  C   UNL     1     -19.722  16.613  -8.185  0.00  0.00    +0.077 A 
ATOM      5  C   UNL     1     -18.931  15.692  -8.949  0.00  0.00    +0.048 A 
ATOM      6  C   UNL     1     -17.644  16.118  -9.348  0.00  0.00    +0.116 A 
ATOM      7  N   UNL     1     -17.193  17.374  -9.004  0.00  0.00    -0.223 NA
ATOM      8  C   UNL     1     -17.983  18.238  -8.268  0.00  0.00    +0.220 A 
ATOM      9  N   UNL     1     -17.546  19.503  -7.903  0.00  0.00    -0.283 N 
ATOM     36  H   UNL     1     -18.161  20.113  -7.366  0.00  0.00    +0.155 HD
ATOM     37  N   UNL     1     -19.215  17.856  -7.876  0.00  0.00    -0.214 NA
BRANCH   4   3
ATOM      1  C   UNL     1     -23.485  16.950  -7.172  0.00  0.00    +0.020 A 
ATOM      2  C   UNL     1     -22.171  17.296  -7.662  0.00  0.00    +0.013 A 
ATOM      3  C   UNL     1     -21.101  16.308  -7.687  0.00  0.00    +0.019 A 
ATOM     38  C   UNL     1     -21.395  14.967  -7.205  0.00  0.00    +0.120 A 
ATOM     39  N   UNL     1     -22.669  14.662  -6.737  0.00  0.00    -0.263 NA
ATOM     40  C   UNL     1     -23.707  15.606  -6.707  0.00  0.00    +0.111 A 
ENDBRANCH   4   3
ENDBRANCH  10   9
BRANCH  12  13
ATOM     13  N   UNL     1     -12.641  19.571  -7.071  0.00  0.00    -0.281 N 
ATOM     14  C   UNL     1     -12.131  20.146  -5.918  0.00  0.00    +0.248 C 
ATOM     30  O   UNL     1     -12.484  21.226  -5.470  0.00  0.00    -0.270 OA
ATOM     31  H   UNL     1     -12.127  18.770  -7.438  0.00  0.00    +0.155 HD
BRANCH  14  15
ATOM     15  C   UNL     1     -11.064  19.422  -5.162  0.00  0.00    +0.037 A 
ATOM     16  C   UNL     1     -11.387  18.296  -4.282  0.00  0.00    +0.013 A 
ATOM     17  C   UNL     1     -10.341  17.626  -3.551  0.00  0.00    +0.005 A 
ATOM     18  C   UNL     1      -8.960  18.081  -3.699  0.00  0.00    -0.033 A 
ATOM     28  C   UNL     1      -8.667  19.197  -4.583  0.00  0.00    +0.005 A 
ATOM     29  C   UNL     1      -9.690  19.856  -5.300  0.00  0.00    +0.013 A 
BRANCH  18  19
ATOM     19  C   UNL     1      -7.783  17.439  -2.941  0.00  0.00    +0.119 C 
BRANCH  19  20
ATOM     20  N   UNL     1      -7.254  18.171  -1.752  0.00  0.00    -0.302 NA
ATOM     21  C   UNL     1      -5.989  18.968  -2.085  0.00  0.00    +0.066 C 
ATOM     22  C   UNL     1      -5.462  19.746  -0.835  0.00  0.00    -0.064 C 
ATOM     23  N   UNL     1      -5.197  18.759   0.303  0.00  0.00    +0.379 N 
ATOM     24  C   UNL     1      -4.646  19.480   1.460  0.00  0.00    -0.096 C 
ATOM     25  H   UNL     1      -4.421  18.040  -0.048  0.00  0.00    -0.082 HD
ATOM     26  C   UNL     1      -6.448  17.960   0.638  0.00  0.00    -0.064 C 
ATOM     27  C   UNL     1      -6.981  17.215  -0.618  0.00  0.00    +0.066 C 
ENDBRANCH  19  20
ENDBRANCH  18  19
ENDBRANCH  14  15
ENDBRANCH  12  13
TORSDOF 6
ENDMDL
MODEL 4
REMARK VINA RESULT:      -7.9      1.753      2.210
REMARK  Name = C:\Users\Docking\Desktop\test protocol\1iep_ligandH.pdb
REMARK  8 active torsions:
REMARK  status: ('A' for Active; 'I' for Inactive)
REMARK    1  A    between atoms: _5  and  _11
REMARK    2  A    between atoms: _19  and  _21
REMARK    3  A    between atoms: _22  and  _66
REMARK    4  A    between atoms: _27  and  _30
REMARK    5  A    between atoms: _32  and  _33
REMARK    6  A    between atoms: _38  and  _43
REMARK    7  A    between atoms: _43  and  _46
REMARK    8  A    between atoms: _53  and  _55
REMARK                            x       y       z     vdW  Elec       q    Type
REMARK                         _______ _______ _______ _____ _____    ______ ____
ROOT
ATOM     10  C   UNL     1      -9.168  17.015  -3.634  0.00  0.00    +0.038 A 
ATOM     11  C   UNL     1     -10.554  17.044  -3.935  0.00  0.00    +0.047 A 
ATOM     12  C   UNL     1     -11.317  18.279  -3.849  0.00  0.00    +0.035 A 
ATOM     32  C   UNL     1     -10.636  19.468  -3.454  0.00  0.00    +0.024 A 
ATOM     33  C   UNL     1      -9.228  19.456  -3.143  0.00  0.00    +0.007 A 
ATOM     34  C   UNL     1      -8.471  18.240  -3.225  0.00  0.00    -0.029 A 
ATOM     35  C   UNL     1      -6.965  18.285  -2.874  0.00  0.00    +0.045 C 
ENDROOT
BRANCH  10   9
ATOM      4  C   UNL     1      -7.585  12.883  -1.773  0.00  0.00    +0.077 A 
ATOM      5  C   UNL     1      -8.145  13.180  -0.486  0.00  0.00    +0.048 A 
ATOM      6  C   UNL     1      -8.826  14.410  -0.343  0.00  0.00    +0.116 A 
ATOM      7  N   UNL     1      -8.934  15.270  -1.413  0.00  0.00    -0.223 NA
ATOM      8  C   UNL     1      -8.381  14.954  -2.641  0.00  0.00    +0.220 A 
ATOM      9  N   UNL     1      -8.484  15.801  -3.734  0.00  0.00    -0.283 N 
ATOM     36  H   UNL     1      -8.057  15.535  -4.620  0.00  0.00    +0.155 HD
ATOM     37  N   UNL     1      -7.724  13.787  -2.803  0.00  0.00    -0.214 NA
BRANCH   4   3
ATOM      1  C   UNL     1      -5.987   9.863  -3.677  0.00  0.00    +0.020 A 
ATOM      2  C   UNL     1      -6.719  11.084  -3.432  0.00  0.00    +0.013 A 
ATOM      3  C   UNL     1      -6.839  11.623  -2.083  0.00  0.00    +0.019 A 
ATOM     38  C   UNL     1      -6.201  10.896  -0.996  0.00  0.00    +0.120 A 
ATOM     39  N   UNL     1      -5.504   9.721  -1.262  0.00  0.00    -0.263 NA
ATOM     40  C   UNL     1      -5.383   9.193  -2.556  0.00  0.00    +0.111 A 
ENDBRANCH   4   3
ENDBRANCH  10   9
BRANCH  12  13
ATOM     13  N   UNL     1     -12.727  18.368  -4.134  0.00  0.00    -0.281 N 
ATOM     14  C   UNL     1     -13.778  18.414  -3.233  0.00  0.00    +0.248 C 
ATOM     30  O   UNL     1     -13.676  18.168  -2.040  0.00  0.00    -0.270 OA
ATOM     31  H   UNL     1     -12.982  18.402  -5.122  0.00  0.00    +0.155 HD
BRANCH  14  15
ATOM     15  C   UNL     1     -15.142  18.769  -3.730  0.00  0.00    +0.037 A 
ATOM     16  C   UNL     1     -16.347  18.263  -3.069  0.00  0.00    +0.013 A 
ATOM     17  C   UNL     1     -17.651  18.607  -3.580  0.00  0.00    +0.005 A 
ATOM     18  C   UNL     1     -17.755  19.464  -4.758  0.00  0.00    -0.033 A 
ATOM     28  C   UNL     1     -16.542  19.957  -5.391  0.00  0.00    +0.005 A 
ATOM     29  C   UNL     1     -15.263  19.620  -4.894  0.00  0.00    +0.013 A 
BRANCH  18  19
ATOM     19  C   UNL     1     -19.103  19.866  -5.384  0.00  0.00    +0.119 C 
BRANCH  19  20
ATOM     20  N   UNL     1     -19.153  20.004  -6.870  0.00  0.00    -0.302 NA
ATOM     21  C   UNL     1     -19.409  21.450  -7.305  0.00  0.00    +0.066 C 
ATOM     22  C   UNL     1     -19.435  21.580  -8.862  0.00  0.00    -0.064 C 
ATOM     23  N   UNL     1     -20.505  20.647  -9.431  0.00  0.00    +0.379 N 
ATOM     24  C   UNL     1     -20.573  20.810 -10.891  0.00  0.00    -0.096 C 
ATOM     25  H   UNL     1     -21.488  20.962  -9.010  0.00  0.00    -0.082 HD
ATOM     26  C   UNL     1     -20.260  19.207  -9.002  0.00  0.00    -0.064 C 
ATOM     27  C   UNL     1     -20.206  19.094  -7.453  0.00  0.00    +0.066 C 
ENDBRANCH  19  20
ENDBRANCH  18  19
ENDBRANCH  14  15
ENDBRANCH  12  13
TORSDOF 6
ENDMDL
MODEL 5
REMARK VINA RESULT:      -7.8      4.413      7.866
REMARK  Name = C:\Users\Docking\Desktop\test protocol\1iep_ligandH.pdb
REMARK  8 active torsions:
REMARK  status: ('A' for Active; 'I' for Inactive)
REMARK    1  A    between atoms: _5  and  _11
REMARK    2  A    between atoms: _19  and  _21
REMARK    3  A    between atoms: _22  and  _66
REMARK    4  A    between atoms: _27  and  _30
REMARK    5  A    between atoms: _32  and  _33
REMARK    6  A    between atoms: _38  and  _43
REMARK    7  A    between atoms: _43  and  _46
REMARK    8  A    between atoms: _53  and  _55
REMARK                            x       y       z     vdW  Elec       q    Type
REMARK                         _______ _______ _______ _____ _____    ______ ____
ROOT
ATOM     10  C   UNL     1     -14.420  20.045  -8.397  0.00  0.00    +0.038 A 
ATOM     11  C   UNL     1     -15.610  19.292  -8.233  0.00  0.00    +0.047 A 
ATOM     12  C   UNL     1     -16.862  19.721  -8.836  0.00  0.00    +0.035 A 
ATOM     32  C   UNL     1     -16.865  20.923  -9.602  0.00  0.00    +0.024 A 
ATOM     33  C   UNL     1     -15.665  21.702  -9.778  0.00  0.00    +0.007 A 
ATOM     34  C   UNL     1     -14.428  21.285  -9.183  0.00  0.00    -0.029 A 
ATOM     35  C   UNL     1     -13.173  22.163  -9.400  0.00  0.00    +0.045 C 
ENDROOT
BRANCH  10   9
ATOM      4  C   UNL     1     -11.347  19.849  -4.715  0.00  0.00    +0.077 A 
ATOM      5  C   UNL     1     -12.133  20.759  -3.933  0.00  0.00    +0.048 A 
ATOM      6  C   UNL     1     -13.318  21.261  -4.518  0.00  0.00    +0.116 A 
ATOM      7  N   UNL     1     -13.680  20.874  -5.790  0.00  0.00    -0.223 NA
ATOM      8  C   UNL     1     -12.898  19.995  -6.517  0.00  0.00    +0.220 A 
ATOM      9  N   UNL     1     -13.246  19.586  -7.795  0.00  0.00    -0.283 N 
ATOM     36  H   UNL     1     -12.639  18.942  -8.302  0.00  0.00    +0.155 HD
ATOM     37  N   UNL     1     -11.761  19.503  -5.982  0.00  0.00    -0.214 NA
BRANCH   4   3
ATOM      1  C   UNL     1      -7.620  18.688  -4.476  0.00  0.00    +0.020 A 
ATOM      2  C   UNL     1      -8.824  19.302  -4.985  0.00  0.00    +0.013 A 
ATOM      3  C   UNL     1     -10.071  19.231  -4.234  0.00  0.00    +0.019 A 
ATOM     38  C   UNL     1     -10.065  18.527  -2.960  0.00  0.00    +0.120 A 
ATOM     39  N   UNL     1      -8.890  17.944  -2.496  0.00  0.00    -0.263 NA
ATOM     40  C   UNL     1      -7.685  18.004  -3.211  0.00  0.00    +0.111 A 
ENDBRANCH   4   3
ENDBRANCH  10   9
BRANCH  12  13
ATOM     13  N   UNL     1     -18.104  19.002  -8.698  0.00  0.00    -0.281 N 
ATOM     14  C   UNL     1     -18.363  17.680  -9.022  0.00  0.00    +0.248 C 
ATOM     30  O   UNL     1     -17.618  16.972  -9.684  0.00  0.00    -0.270 OA
ATOM     31  H   UNL     1     -18.887  19.531  -8.314  0.00  0.00    +0.155 HD
BRANCH  14  15
ATOM     15  C   UNL     1     -19.640  17.059  -8.557  0.00  0.00    +0.037 A 
ATOM     16  C   UNL     1     -20.835  17.872  -8.311  0.00  0.00    +0.013 A 
ATOM     17  C   UNL     1     -22.049  17.250  -7.846  0.00  0.00    +0.005 A 
ATOM     18  C   UNL     1     -22.075  15.806  -7.626  0.00  0.00    -0.033 A 
ATOM     28  C   UNL     1     -20.878  15.023  -7.882  0.00  0.00    +0.005 A 
ATOM     29  C   UNL     1     -19.685  15.629  -8.337  0.00  0.00    +0.013 A 
BRANCH  18  19
ATOM     19  C   UNL     1     -23.321  15.061  -7.110  0.00  0.00    +0.119 C 
BRANCH  19  20
ATOM     20  N   UNL     1     -24.650  15.524  -7.610  0.00  0.00    -0.302 NA
ATOM     21  C   UNL     1     -25.356  16.436  -6.602  0.00  0.00    +0.066 C 
ATOM     22  C   UNL     1     -26.735  16.930  -7.150  0.00  0.00    -0.064 C 
ATOM     23  N   UNL     1     -27.608  15.721  -7.491  0.00  0.00    +0.379 N 
ATOM     24  C   UNL     1     -28.926  16.182  -7.951  0.00  0.00    -0.096 C 
ATOM     25  H   UNL     1     -27.761  15.140  -6.552  0.00  0.00    -0.082 HD
ATOM     26  C   UNL     1     -26.912  14.808  -8.490  0.00  0.00    -0.064 C 
ATOM     27  C   UNL     1     -25.530  14.346  -7.948  0.00  0.00    +0.066 C 
ENDBRANCH  19  20
ENDBRANCH  18  19
ENDBRANCH  14  15
ENDBRANCH  12  13
TORSDOF 6
ENDMDL
