MODEL 1
REMARK VINA RESULT:      -8.3      0.000      0.000
REMARK  Name = C:\Users\Docking\Desktop\test protocol\1iep_ligandH.pdb
REMARK  8 active torsions:
REMARK  status: ('A' for Active; 'I' for Inactive)
REMARK    1  A    between atoms: _5  and  _11
REMARK    2  A    between atoms: _19  and  _21
REMARK    3  A    between atoms: _22  and  _66
REMARK    4  A    between atoms: _27  and  _30
REMARK    5  A    between atoms: _32  and  _33
REMARK    6  A    between atoms: _38  and  _43
REMARK    7  A    between atoms: _43  and  _46
REMARK    8  A    between atoms: _53  and  _55
REMARK                            x       y       z     vdW  Elec       q    Type
REMARK                         _______ _______ _______ _____ _____    ______ ____
ROOT
ATOM     10  C   UNL     1       0.290 -23.575  55.952  0.00  0.00    +0.038 A 
ATOM     11  C   UNL     1      -0.309 -23.387  57.224  0.00  0.00    +0.047 A 
ATOM     12  C   UNL     1      -1.424 -22.471  57.402  0.00  0.00    +0.035 A 
ATOM     32  C   UNL     1      -1.907 -21.763  56.262  0.00  0.00    +0.024 A 
ATOM     33  C   UNL     1      -1.309 -21.942  54.962  0.00  0.00    +0.007 A 
ATOM     34  C   UNL     1      -0.207 -22.843  54.781  0.00  0.00    -0.029 A 
ATOM     35  C   UNL     1       0.399 -22.989  53.366  0.00  0.00    +0.045 C 
ENDROOT
BRANCH  10   9
ATOM      4  C   UNL     1       2.109 -28.017  55.915  0.00  0.00    +0.077 A 
ATOM      5  C   UNL     1       0.827 -28.608  56.171  0.00  0.00    +0.048 A 
ATOM      6  C   UNL     1      -0.274 -27.733  56.313  0.00  0.00    +0.116 A 
ATOM      7  N   UNL     1      -0.094 -26.371  56.205  0.00  0.00    -0.223 NA
ATOM      8  C   UNL     1       1.156 -25.834  55.959  0.00  0.00    +0.220 A 
ATOM      9  N   UNL     1       1.358 -24.468  55.838  0.00  0.00    -0.283 N 
ATOM     36  H   UNL     1       2.297 -24.111  55.664  0.00  0.00    +0.155 HD
ATOM     37  N   UNL     1       2.223 -26.648  55.821  0.00  0.00    -0.214 NA
BRANCH   4   3
ATOM      1  C   UNL     1       5.771 -29.055  55.013  0.00  0.00    +0.020 A 
ATOM      2  C   UNL     1       4.582 -28.247  55.162  0.00  0.00    +0.013 A 
ATOM      3  C   UNL     1       3.367 -28.809  55.738  0.00  0.00    +0.019 A 
ATOM     38  C   UNL     1       3.388 -30.202  56.157  0.00  0.00    +0.120 A 
ATOM     39  N   UNL     1       4.547 -30.956  56.000  0.00  0.00    -0.263 NA
ATOM     40  C   UNL     1       5.721 -30.427  55.446  0.00  0.00    +0.111 A 
ENDBRANCH   4   3
ENDBRANCH  10   9
BRANCH  12  13
ATOM     13  N   UNL     1      -2.067 -22.233  58.671  0.00  0.00    -0.281 N 
ATOM     14  C   UNL     1      -1.850 -21.187  59.553  0.00  0.00    +0.248 C 
ATOM     30  O   UNL     1      -0.912 -20.407  59.483  0.00  0.00    -0.270 OA
ATOM     31  H   UNL     1      -2.768 -22.919  58.953  0.00  0.00    +0.155 HD
BRANCH  14  15
ATOM     15  C   UNL     1      -2.806 -20.986  60.684  0.00  0.00    +0.037 A 
ATOM     16  C   UNL     1      -4.253 -21.094  60.484  0.00  0.00    +0.013 A 
ATOM     17  C   UNL     1      -5.154 -20.879  61.589  0.00  0.00    +0.005 A 
ATOM     18  C   UNL     1      -4.608 -20.555  62.905  0.00  0.00    -0.033 A 
ATOM     28  C   UNL     1      -3.168 -20.460  63.076  0.00  0.00    +0.005 A 
ATOM     29  C   UNL     1      -2.282 -20.669  61.996  0.00  0.00    +0.013 A 
BRANCH  18  19
ATOM     19  C   UNL     1      -5.495 -20.289  64.136  0.00  0.00    +0.119 C 
BRANCH  19  20
ATOM     20  N   UNL     1      -6.083 -18.923  64.273  0.00  0.00    -0.302 NA
ATOM     21  C   UNL     1      -7.510 -18.853  63.721  0.00  0.00    +0.066 C 
ATOM     22  C   UNL     1      -8.117 -17.423  63.893  0.00  0.00    -0.064 C 
ATOM     23  N   UNL     1      -7.217 -16.402  63.195  0.00  0.00    +0.379 N 
ATOM     24  C   UNL     1      -7.815 -15.064  63.305  0.00  0.00    -0.096 C 
ATOM     25  H   UNL     1      -7.179 -16.669  62.113  0.00  0.00    -0.082 HD
ATOM     26  C   UNL     1      -5.795 -16.466  63.735  0.00  0.00    -0.064 C 
ATOM     27  C   UNL     1      -5.212 -17.899  63.587  0.00  0.00    +0.066 C 
ENDBRANCH  19  20
ENDBRANCH  18  19
ENDBRANCH  14  15
ENDBRANCH  12  13
TORSDOF 6
ENDMDL
MODEL 2
REMARK VINA RESULT:      -8.3      3.122     13.538
REMARK  Name = C:\Users\Docking\Desktop\test protocol\1iep_ligandH.pdb
REMARK  8 active torsions:
REMARK  status: ('A' for Active; 'I' for Inactive)
REMARK    1  A    between atoms: _5  and  _11
REMARK    2  A    between atoms: _19  and  _21
REMARK    3  A    between atoms: _22  and  _66
REMARK    4  A    between atoms: _27  and  _30
REMARK    5  A    between atoms: _32  and  _33
REMARK    6  A    between atoms: _38  and  _43
REMARK    7  A    between atoms: _43  and  _46
REMARK    8  A    between atoms: _53  and  _55
REMARK                            x       y       z     vdW  Elec       q    Type
REMARK                         _______ _______ _______ _____ _____    ______ ____
ROOT
ATOM     10  C   UNL     1      -0.931 -23.828  56.291  0.00  0.00    +0.038 A 
ATOM     11  C   UNL     1       0.022 -24.864  56.468  0.00  0.00    +0.047 A 
ATOM     12  C   UNL     1       1.096 -25.070  55.509  0.00  0.00    +0.035 A 
ATOM     32  C   UNL     1       1.173 -24.199  54.383  0.00  0.00    +0.024 A 
ATOM     33  C   UNL     1       0.213 -23.141  54.188  0.00  0.00    +0.007 A 
ATOM     34  C   UNL     1      -0.851 -22.935  55.129  0.00  0.00    -0.029 A 
ATOM     35  C   UNL     1      -1.855 -21.789  54.866  0.00  0.00    +0.045 C 
ENDROOT
BRANCH  10   9
ATOM      4  C   UNL     1      -2.896 -21.599  60.060  0.00  0.00    +0.077 A 
ATOM      5  C   UNL     1      -1.803 -20.675  60.159  0.00  0.00    +0.048 A 
ATOM      6  C   UNL     1      -0.751 -20.812  59.226  0.00  0.00    +0.116 A 
ATOM      7  N   UNL     1      -0.800 -21.803  58.269  0.00  0.00    -0.223 NA
ATOM      8  C   UNL     1      -1.868 -22.678  58.202  0.00  0.00    +0.220 A 
ATOM      9  N   UNL     1      -1.942 -23.676  57.243  0.00  0.00    -0.283 N 
ATOM     36  H   UNL     1      -2.743 -24.307  57.231  0.00  0.00    +0.155 HD
ATOM     37  N   UNL     1      -2.884 -22.569  59.083  0.00  0.00    -0.214 NA
BRANCH   4   3
ATOM      1  C   UNL     1      -5.770 -20.391  62.423  0.00  0.00    +0.020 A 
ATOM      2  C   UNL     1      -4.620 -20.354  61.549  0.00  0.00    +0.013 A 
ATOM      3  C   UNL     1      -4.083 -21.580  60.972  0.00  0.00    +0.019 A 
ATOM     38  C   UNL     1      -4.738 -22.837  61.303  0.00  0.00    +0.120 A 
ATOM     39  N   UNL     1      -5.842 -22.842  62.150  0.00  0.00    -0.263 NA
ATOM     40  C   UNL     1      -6.367 -21.668  62.712  0.00  0.00    +0.111 A 
ENDBRANCH   4   3
ENDBRANCH  10   9
BRANCH  12  13
ATOM     13  N   UNL     1       2.087 -26.110  55.631  0.00  0.00    -0.281 N 
ATOM     14  C   UNL     1       2.459 -27.048  54.682  0.00  0.00    +0.248 C 
ATOM     30  O   UNL     1       1.840 -27.271  53.652  0.00  0.00    -0.270 OA
ATOM     31  H   UNL     1       2.574 -26.161  56.526  0.00  0.00    +0.155 HD
BRANCH  14  15
ATOM     15  C   UNL     1       3.686 -27.867  54.918  0.00  0.00    +0.037 A 
ATOM     16  C   UNL     1       3.642 -29.086  55.729  0.00  0.00    +0.013 A 
ATOM     17  C   UNL     1       4.844 -29.849  55.956  0.00  0.00    +0.005 A 
ATOM     18  C   UNL     1       6.102 -29.394  55.367  0.00  0.00    -0.033 A 
ATOM     28  C   UNL     1       6.116 -28.184  54.562  0.00  0.00    +0.005 A 
ATOM     29  C   UNL     1       4.940 -27.434  54.339  0.00  0.00    +0.013 A 
BRANCH  18  19
ATOM     19  C   UNL     1       7.437 -30.133  55.574  0.00  0.00    +0.119 C 
BRANCH  19  20
ATOM     20  N   UNL     1       8.688 -29.323  55.486  0.00  0.00    -0.302 NA
ATOM     21  C   UNL     1       9.836 -30.105  54.843  0.00  0.00    +0.066 C 
ATOM     22  C   UNL     1      11.131 -29.235  54.739  0.00  0.00    -0.064 C 
ATOM     23  N   UNL     1      11.525 -28.743  56.133  0.00  0.00    +0.379 N 
ATOM     24  C   UNL     1      12.774 -27.972  56.047  0.00  0.00    -0.096 C 
ATOM     25  H   UNL     1      11.723 -29.640  56.764  0.00  0.00    -0.082 HD
ATOM     26  C   UNL     1      10.387 -27.966  56.781  0.00  0.00    -0.064 C 
ATOM     27  C   UNL     1       9.098 -28.830  56.853  0.00  0.00    +0.066 C 
ENDBRANCH  19  20
ENDBRANCH  18  19
ENDBRANCH  14  15
ENDBRANCH  12  13
TORSDOF 6
ENDMDL
MODEL 3
REMARK VINA RESULT:      -8.0     40.344     42.932
REMARK  Name = C:\Users\Docking\Desktop\test protocol\1iep_ligandH.pdb
REMARK  8 active torsions:
REMARK  status: ('A' for Active; 'I' for Inactive)
REMARK    1  A    between atoms: _5  and  _11
REMARK    2  A    between atoms: _19  and  _21
REMARK    3  A    between atoms: _22  and  _66
REMARK    4  A    between atoms: _27  and  _30
REMARK    5  A    between atoms: _32  and  _33
REMARK    6  A    between atoms: _38  and  _43
REMARK    7  A    between atoms: _43  and  _46
REMARK    8  A    between atoms: _53  and  _55
REMARK                            x       y       z     vdW  Elec       q    Type
REMARK                         _______ _______ _______ _____ _____    ______ ____
ROOT
ATOM     10  C   UNL     1      14.757  11.868  38.609  0.00  0.00    +0.038 A 
ATOM     11  C   UNL     1      14.386  11.520  39.933  0.00  0.00    +0.047 A 
ATOM     12  C   UNL     1      14.285  10.128  40.345  0.00  0.00    +0.035 A 
ATOM     32  C   UNL     1      14.572   9.116  39.383  0.00  0.00    +0.024 A 
ATOM     33  C   UNL     1      14.950   9.452  38.033  0.00  0.00    +0.007 A 
ATOM     34  C   UNL     1      15.049  10.823  37.620  0.00  0.00    -0.029 A 
ATOM     35  C   UNL     1      15.452  11.125  36.158  0.00  0.00    +0.045 C 
ENDROOT
BRANCH  10   9
ATOM      4  C   UNL     1      17.204  15.967  38.108  0.00  0.00    +0.077 A 
ATOM      5  C   UNL     1      18.415  15.372  38.593  0.00  0.00    +0.048 A 
ATOM      6  C   UNL     1      18.365  14.010  38.968  0.00  0.00    +0.116 A 
ATOM      7  N   UNL     1      17.185  13.306  38.861  0.00  0.00    -0.223 NA
ATOM      8  C   UNL     1      16.034  13.911  38.391  0.00  0.00    +0.220 A 
ATOM      9  N   UNL     1      14.839  13.220  38.268  0.00  0.00    -0.283 N 
ATOM     36  H   UNL     1      14.010  13.704  37.924  0.00  0.00    +0.155 HD
ATOM     37  N   UNL     1      16.056  15.210  38.028  0.00  0.00    -0.214 NA
BRANCH   4   3
ATOM      1  C   UNL     1      16.430  19.800  38.032  0.00  0.00    +0.020 A 
ATOM      2  C   UNL     1      16.507  18.436  38.502  0.00  0.00    +0.013 A 
ATOM      3  C   UNL     1      17.098  17.395  37.670  0.00  0.00    +0.019 A 
ATOM     38  C   UNL     1      17.605  17.769  36.359  0.00  0.00    +0.120 A 
ATOM     39  N   UNL     1      17.515  19.091  35.933  0.00  0.00    -0.263 NA
ATOM     40  C   UNL     1      16.948  20.102  36.723  0.00  0.00    +0.111 A 
ENDBRANCH   4   3
ENDBRANCH  10   9
BRANCH  12  13
ATOM     13  N   UNL     1      13.904   9.715  41.673  0.00  0.00    -0.281 N 
ATOM     14  C   UNL     1      14.708   9.615  42.796  0.00  0.00    +0.248 C 
ATOM     30  O   UNL     1      15.929   9.662  42.779  0.00  0.00    -0.270 OA
ATOM     31  H   UNL     1      12.923   9.465  41.800  0.00  0.00    +0.155 HD
BRANCH  14  15
ATOM     15  C   UNL     1      14.063   9.419  44.131  0.00  0.00    +0.037 A 
ATOM     16  C   UNL     1      14.865   9.254  45.345  0.00  0.00    +0.013 A 
ATOM     17  C   UNL     1      14.218   9.050  46.617  0.00  0.00    +0.005 A 
ATOM     18  C   UNL     1      12.759   9.012  46.680  0.00  0.00    -0.033 A 
ATOM     28  C   UNL     1      11.987   9.184  45.460  0.00  0.00    +0.005 A 
ATOM     29  C   UNL     1      12.618   9.383  44.212  0.00  0.00    +0.013 A 
BRANCH  18  19
ATOM     19  C   UNL     1      11.984   8.778  47.991  0.00  0.00    +0.119 C 
BRANCH  19  20
ATOM     20  N   UNL     1      12.649   9.192  49.262  0.00  0.00    -0.302 NA
ATOM     21  C   UNL     1      12.026   8.513  50.484  0.00  0.00    +0.066 C 
ATOM     22  C   UNL     1      12.749   8.940  51.803  0.00  0.00    -0.064 C 
ATOM     23  N   UNL     1      12.693  10.462  51.942  0.00  0.00    +0.379 N 
ATOM     24  C   UNL     1      13.321  10.863  53.210  0.00  0.00    -0.096 C 
ATOM     25  H   UNL     1      11.619  10.758  51.988  0.00  0.00    -0.082 HD
ATOM     26  C   UNL     1      13.308  11.146  50.729  0.00  0.00    -0.064 C 
ATOM     27  C   UNL     1      12.602  10.692  49.421  0.00  0.00    +0.066 C 
ENDBRANCH  19  20
ENDBRANCH  18  19
ENDBRANCH  14  15
ENDBRANCH  12  13
TORSDOF 6
ENDMDL
MODEL 4
REMARK VINA RESULT:      -7.8     33.520     39.197
REMARK  Name = C:\Users\Docking\Desktop\test protocol\1iep_ligandH.pdb
REMARK  8 active torsions:
REMARK  status: ('A' for Active; 'I' for Inactive)
REMARK    1  A    between atoms: _5  and  _11
REMARK    2  A    between atoms: _19  and  _21
REMARK    3  A    between atoms: _22  and  _66
REMARK    4  A    between atoms: _27  and  _30
REMARK    5  A    between atoms: _32  and  _33
REMARK    6  A    between atoms: _38  and  _43
REMARK    7  A    between atoms: _43  and  _46
REMARK    8  A    between atoms: _53  and  _55
REMARK                            x       y       z     vdW  Elec       q    Type
REMARK                         _______ _______ _______ _____ _____    ______ ____
ROOT
ATOM     10  C   UNL     1      -6.129   8.624  45.850  0.00  0.00    +0.038 A 
ATOM     11  C   UNL     1      -6.498   9.552  44.844  0.00  0.00    +0.047 A 
ATOM     12  C   UNL     1      -6.159   9.323  43.448  0.00  0.00    +0.035 A 
ATOM     32  C   UNL     1      -5.446   8.135  43.112  0.00  0.00    +0.024 A 
ATOM     33  C   UNL     1      -5.062   7.181  44.122  0.00  0.00    +0.007 A 
ATOM     34  C   UNL     1      -5.392   7.403  45.501  0.00  0.00    -0.029 A 
ATOM     35  C   UNL     1      -4.950   6.349  46.543  0.00  0.00    +0.045 C 
ENDROOT
BRANCH  10   9
ATOM      4  C   UNL     1      -9.263   8.605  49.486  0.00  0.00    +0.077 A 
ATOM      5  C   UNL     1     -10.295   8.034  48.671  0.00  0.00    +0.048 A 
ATOM      6  C   UNL     1      -9.982   7.766  47.320  0.00  0.00    +0.116 A 
ATOM      7  N   UNL     1      -8.726   8.052  46.831  0.00  0.00    -0.223 NA
ATOM      8  C   UNL     1      -7.753   8.605  47.643  0.00  0.00    +0.220 A 
ATOM      9  N   UNL     1      -6.481   8.894  47.175  0.00  0.00    -0.283 N 
ATOM     36  H   UNL     1      -5.794   9.308  47.804  0.00  0.00    +0.155 HD
ATOM     37  N   UNL     1      -8.028   8.871  48.937  0.00  0.00    -0.214 NA
BRANCH   4   3
ATOM      1  C   UNL     1      -8.802   8.753  53.368  0.00  0.00    +0.020 A 
ATOM      2  C   UNL     1      -8.589   8.395  51.984  0.00  0.00    +0.013 A 
ATOM      3  C   UNL     1      -9.439   8.942  50.934  0.00  0.00    +0.019 A 
ATOM     38  C   UNL     1     -10.504   9.856  51.321  0.00  0.00    +0.120 A 
ATOM     39  N   UNL     1     -10.686  10.181  52.661  0.00  0.00    -0.263 NA
ATOM     40  C   UNL     1      -9.875   9.660  53.680  0.00  0.00    +0.111 A 
ENDBRANCH   4   3
ENDBRANCH  10   9
BRANCH  12  13
ATOM     13  N   UNL     1      -6.499  10.234  42.383  0.00  0.00    -0.281 N 
ATOM     14  C   UNL     1      -7.735  10.422  41.786  0.00  0.00    +0.248 C 
ATOM     30  O   UNL     1      -8.694   9.678  41.932  0.00  0.00    -0.270 OA
ATOM     31  H   UNL     1      -5.737  10.811  42.027  0.00  0.00    +0.155 HD
BRANCH  14  15
ATOM     15  C   UNL     1      -7.930  11.598  40.884  0.00  0.00    +0.037 A 
ATOM     16  C   UNL     1      -7.524  11.552  39.477  0.00  0.00    +0.013 A 
ATOM     17  C   UNL     1      -7.707  12.706  38.633  0.00  0.00    +0.005 A 
ATOM     18  C   UNL     1      -8.302  13.917  39.195  0.00  0.00    -0.033 A 
ATOM     28  C   UNL     1      -8.700  13.933  40.593  0.00  0.00    +0.005 A 
ATOM     29  C   UNL     1      -8.521  12.804  41.423  0.00  0.00    +0.013 A 
BRANCH  18  19
ATOM     19  C   UNL     1      -8.516  15.202  38.374  0.00  0.00    +0.119 C 
BRANCH  19  20
ATOM     20  N   UNL     1      -7.299  15.981  37.994  0.00  0.00    -0.302 NA
ATOM     21  C   UNL     1      -7.614  17.462  37.767  0.00  0.00    +0.066 C 
ATOM     22  C   UNL     1      -6.326  18.266  37.392  0.00  0.00    -0.064 C 
ATOM     23  N   UNL     1      -5.689  17.651  36.145  0.00  0.00    +0.379 N 
ATOM     24  C   UNL     1      -4.511  18.439  35.756  0.00  0.00    -0.096 C 
ATOM     25  H   UNL     1      -6.431  17.720  35.317  0.00  0.00    -0.082 HD
ATOM     26  C   UNL     1      -5.376  16.177  36.361  0.00  0.00    -0.064 C 
ATOM     27  C   UNL     1      -6.656  15.393  36.762  0.00  0.00    +0.066 C 
ENDBRANCH  19  20
ENDBRANCH  18  19
ENDBRANCH  14  15
ENDBRANCH  12  13
TORSDOF 6
ENDMDL
MODEL 5
REMARK VINA RESULT:      -7.8     40.855     44.293
REMARK  Name = C:\Users\Docking\Desktop\test protocol\1iep_ligandH.pdb
REMARK  8 active torsions:
REMARK  status: ('A' for Active; 'I' for Inactive)
REMARK    1  A    between atoms: _5  and  _11
REMARK    2  A    between atoms: _19  and  _21
REMARK    3  A    between atoms: _22  and  _66
REMARK    4  A    between atoms: _27  and  _30
REMARK    5  A    between atoms: _32  and  _33
REMARK    6  A    between atoms: _38  and  _43
REMARK    7  A    between atoms: _43  and  _46
REMARK    8  A    between atoms: _53  and  _55
REMARK                            x       y       z     vdW  Elec       q    Type
REMARK                         _______ _______ _______ _____ _____    ______ ____
ROOT
ATOM     10  C   UNL     1      11.918  16.347  58.296  0.00  0.00    +0.038 A 
ATOM     11  C   UNL     1      11.104  17.391  58.804  0.00  0.00    +0.047 A 
ATOM     12  C   UNL     1      10.489  17.295  60.119  0.00  0.00    +0.035 A 
ATOM     32  C   UNL     1      10.728  16.122  60.892  0.00  0.00    +0.024 A 
ATOM     33  C   UNL     1      11.553  15.050  60.391  0.00  0.00    +0.007 A 
ATOM     34  C   UNL     1      12.159  15.138  59.094  0.00  0.00    -0.029 A 
ATOM     35  C   UNL     1      13.029  13.956  58.606  0.00  0.00    +0.045 C 
ENDROOT
BRANCH  10   9
ATOM      4  C   UNL     1      15.338  17.973  55.346  0.00  0.00    +0.077 A 
ATOM      5  C   UNL     1      16.044  18.610  56.420  0.00  0.00    +0.048 A 
ATOM      6  C   UNL     1      15.490  18.502  57.716  0.00  0.00    +0.116 A 
ATOM      7  N   UNL     1      14.317  17.805  57.911  0.00  0.00    -0.223 NA
ATOM      8  C   UNL     1      13.660  17.204  56.853  0.00  0.00    +0.220 A 
ATOM      9  N   UNL     1      12.484  16.492  57.027  0.00  0.00    -0.283 N 
ATOM     36  H   UNL     1      12.026  16.069  56.220  0.00  0.00    +0.155 HD
ATOM     37  N   UNL     1      14.168  17.294  55.606  0.00  0.00    -0.214 NA
BRANCH   4   3
ATOM      1  C   UNL     1      17.178  18.939  52.033  0.00  0.00    +0.020 A 
ATOM      2  C   UNL     1      16.767  18.960  53.418  0.00  0.00    +0.013 A 
ATOM      3  C   UNL     1      15.798  17.995  53.922  0.00  0.00    +0.019 A 
ATOM     38  C   UNL     1      15.262  17.013  52.992  0.00  0.00    +0.120 A 
ATOM     39  N   UNL     1      15.676  17.017  51.664  0.00  0.00    -0.263 NA
ATOM     40  C   UNL     1      16.606  17.942  51.167  0.00  0.00    +0.111 A 
ENDBRANCH   4   3
ENDBRANCH  10   9
BRANCH  12  13
ATOM     13  N   UNL     1       9.646  18.320  60.683  0.00  0.00    -0.281 N 
ATOM     14  C   UNL     1      10.008  19.595  61.085  0.00  0.00    +0.248 C 
ATOM     30  O   UNL     1      11.161  19.976  61.219  0.00  0.00    -0.270 OA
ATOM     31  H   UNL     1       8.662  18.075  60.800  0.00  0.00    +0.155 HD
BRANCH  14  15
ATOM     15  C   UNL     1       8.934  20.586  61.397  0.00  0.00    +0.037 A 
ATOM     16  C   UNL     1       7.918  20.310  62.417  0.00  0.00    +0.013 A 
ATOM     17  C   UNL     1       6.883  21.276  62.686  0.00  0.00    +0.005 A 
ATOM     18  C   UNL     1       6.859  22.529  61.935  0.00  0.00    -0.033 A 
ATOM     28  C   UNL     1       7.881  22.779  60.932  0.00  0.00    +0.005 A 
ATOM     29  C   UNL     1       8.897  21.834  60.665  0.00  0.00    +0.013 A 
BRANCH  18  19
ATOM     19  C   UNL     1       5.779  23.607  62.141  0.00  0.00    +0.119 C 
BRANCH  19  20
ATOM     20  N   UNL     1       4.717  23.327  63.153  0.00  0.00    -0.302 NA
ATOM     21  C   UNL     1       3.508  22.620  62.535  0.00  0.00    +0.066 C 
ATOM     22  C   UNL     1       2.416  22.314  63.612  0.00  0.00    -0.064 C 
ATOM     23  N   UNL     1       1.993  23.618  64.290  0.00  0.00    +0.379 N 
ATOM     24  C   UNL     1       0.925  23.341  65.262  0.00  0.00    -0.096 C 
ATOM     25  H   UNL     1       1.570  24.286  63.504  0.00  0.00    -0.082 HD
ATOM     26  C   UNL     1       3.190  24.329  64.905  0.00  0.00    -0.064 C 
ATOM     27  C   UNL     1       4.281  24.602  63.832  0.00  0.00    +0.066 C 
ENDBRANCH  19  20
ENDBRANCH  18  19
ENDBRANCH  14  15
ENDBRANCH  12  13
TORSDOF 6
ENDMDL
