MODEL 1
REMARK VINA RESULT:      -8.3      0.000      0.000
REMARK  Name = C:\Users\Docking\Desktop\test protocol\1iep_ligandH.pdb
REMARK  8 active torsions:
REMARK  status: ('A' for Active; 'I' for Inactive)
REMARK    1  A    between atoms: _5  and  _11
REMARK    2  A    between atoms: _19  and  _21
REMARK    3  A    between atoms: _22  and  _66
REMARK    4  A    between atoms: _27  and  _30
REMARK    5  A    between atoms: _32  and  _33
REMARK    6  A    between atoms: _38  and  _43
REMARK    7  A    between atoms: _43  and  _46
REMARK    8  A    between atoms: _53  and  _55
REMARK                            x       y       z     vdW  Elec       q    Type
REMARK                         _______ _______ _______ _____ _____    ______ ____
ROOT
ATOM     10  C   UNL     1     -22.438 -51.033 -54.882  0.00  0.00    +0.038 A 
ATOM     11  C   UNL     1     -22.934 -49.784 -54.428  0.00  0.00    +0.047 A 
ATOM     12  C   UNL     1     -22.119 -48.906 -53.603  0.00  0.00    +0.035 A 
ATOM     32  C   UNL     1     -20.802 -49.330 -53.261  0.00  0.00    +0.024 A 
ATOM     33  C   UNL     1     -20.282 -50.597 -53.713  0.00  0.00    +0.007 A 
ATOM     34  C   UNL     1     -21.082 -51.468 -54.525  0.00  0.00    -0.029 A 
ATOM     35  C   UNL     1     -20.475 -52.818 -54.976  0.00  0.00    +0.045 C 
ENDROOT
BRANCH  10   9
ATOM      4  C   UNL     1     -23.960 -52.642 -59.140  0.00  0.00    +0.077 A 
ATOM      5  C   UNL     1     -23.052 -51.789 -59.853  0.00  0.00    +0.048 A 
ATOM      6  C   UNL     1     -22.216 -50.947 -59.087  0.00  0.00    +0.116 A 
ATOM      7  N   UNL     1     -22.290 -50.964 -57.711  0.00  0.00    -0.223 NA
ATOM      8  C   UNL     1     -23.177 -51.797 -57.055  0.00  0.00    +0.220 A 
ATOM      9  N   UNL     1     -23.263 -51.837 -55.672  0.00  0.00    -0.283 N 
ATOM     36  H   UNL     1     -23.936 -52.460 -55.226  0.00  0.00    +0.155 HD
ATOM     37  N   UNL     1     -23.988 -52.610 -57.764  0.00  0.00    -0.214 NA
BRANCH   4   3
ATOM      1  C   UNL     1     -25.552 -55.157 -61.678  0.00  0.00    +0.020 A 
ATOM      2  C   UNL     1     -24.604 -54.248 -61.075  0.00  0.00    +0.013 A 
ATOM      3  C   UNL     1     -24.905 -53.591 -59.809  0.00  0.00    +0.019 A 
ATOM     38  C   UNL     1     -26.183 -53.878 -59.174  0.00  0.00    +0.120 A 
ATOM     39  N   UNL     1     -27.076 -54.756 -59.780  0.00  0.00    -0.263 NA
ATOM     40  C   UNL     1     -26.798 -55.393 -60.998  0.00  0.00    +0.111 A 
ENDBRANCH   4   3
ENDBRANCH  10   9
BRANCH  12  13
ATOM     13  N   UNL     1     -22.572 -47.630 -53.106  0.00  0.00    -0.281 N 
ATOM     14  C   UNL     1     -22.642 -47.205 -51.790  0.00  0.00    +0.248 C 
ATOM     30  O   UNL     1     -22.525 -47.939 -50.820  0.00  0.00    -0.270 OA
ATOM     31  H   UNL     1     -22.878 -46.959 -53.811  0.00  0.00    +0.155 HD
BRANCH  14  15
ATOM     15  C   UNL     1     -22.891 -45.758 -51.510  0.00  0.00    +0.037 A 
ATOM     16  C   UNL     1     -23.343 -44.848 -52.566  0.00  0.00    +0.013 A 
ATOM     17  C   UNL     1     -23.560 -43.453 -52.273  0.00  0.00    +0.005 A 
ATOM     18  C   UNL     1     -23.327 -42.961 -50.917  0.00  0.00    -0.033 A 
ATOM     28  C   UNL     1     -22.884 -43.887 -49.889  0.00  0.00    +0.005 A 
ATOM     29  C   UNL     1     -22.669 -45.255 -50.172  0.00  0.00    +0.013 A 
BRANCH  18  19
ATOM     19  C   UNL     1     -23.512 -41.484 -50.520  0.00  0.00    +0.119 C 
BRANCH  19  20
ATOM     20  N   UNL     1     -23.114 -40.451 -51.523  0.00  0.00    -0.302 NA
ATOM     21  C   UNL     1     -22.152 -39.417 -50.931  0.00  0.00    +0.066 C 
ATOM     22  C   UNL     1     -21.729 -38.357 -51.999  0.00  0.00    -0.064 C 
ATOM     23  N   UNL     1     -22.978 -37.676 -52.561  0.00  0.00    +0.379 N 
ATOM     24  C   UNL     1     -22.580 -36.638 -53.524  0.00  0.00    -0.096 C 
ATOM     25  H   UNL     1     -23.497 -37.170 -51.714  0.00  0.00    -0.082 HD
ATOM     26  C   UNL     1     -23.941 -38.697 -53.149  0.00  0.00    -0.064 C 
ATOM     27  C   UNL     1     -24.333 -39.763 -52.087  0.00  0.00    +0.066 C 
ENDBRANCH  19  20
ENDBRANCH  18  19
ENDBRANCH  14  15
ENDBRANCH  12  13
TORSDOF 6
ENDMDL
MODEL 2
REMARK VINA RESULT:      -8.2      4.433      8.184
REMARK  Name = C:\Users\Docking\Desktop\test protocol\1iep_ligandH.pdb
REMARK  8 active torsions:
REMARK  status: ('A' for Active; 'I' for Inactive)
REMARK    1  A    between atoms: _5  and  _11
REMARK    2  A    between atoms: _19  and  _21
REMARK    3  A    between atoms: _22  and  _66
REMARK    4  A    between atoms: _27  and  _30
REMARK    5  A    between atoms: _32  and  _33
REMARK    6  A    between atoms: _38  and  _43
REMARK    7  A    between atoms: _43  and  _46
REMARK    8  A    between atoms: _53  and  _55
REMARK                            x       y       z     vdW  Elec       q    Type
REMARK                         _______ _______ _______ _____ _____    ______ ____
ROOT
ATOM     10  C   UNL     1     -25.148 -54.124 -61.149  0.00  0.00    +0.038 A 
ATOM     11  C   UNL     1     -24.420 -53.285 -60.267  0.00  0.00    +0.047 A 
ATOM     12  C   UNL     1     -24.878 -53.044 -58.908  0.00  0.00    +0.035 A 
ATOM     32  C   UNL     1     -26.082 -53.675 -58.479  0.00  0.00    +0.024 A 
ATOM     33  C   UNL     1     -26.836 -54.529 -59.363  0.00  0.00    +0.007 A 
ATOM     34  C   UNL     1     -26.389 -54.769 -60.705  0.00  0.00    -0.029 A 
ATOM     35  C   UNL     1     -27.240 -55.689 -61.611  0.00  0.00    +0.045 C 
ENDROOT
BRANCH  10   9
ATOM      4  C   UNL     1     -22.452 -56.482 -64.344  0.00  0.00    +0.077 A 
ATOM      5  C   UNL     1     -21.949 -57.381 -63.345  0.00  0.00    +0.048 A 
ATOM      6  C   UNL     1     -22.404 -57.198 -62.020  0.00  0.00    +0.116 A 
ATOM      7  N   UNL     1     -23.295 -56.188 -61.727  0.00  0.00    -0.223 NA
ATOM      8  C   UNL     1     -23.759 -55.338 -62.714  0.00  0.00    +0.220 A 
ATOM      9  N   UNL     1     -24.661 -54.321 -62.443  0.00  0.00    -0.283 N 
ATOM     36  H   UNL     1     -24.973 -53.710 -63.198  0.00  0.00    +0.155 HD
ATOM     37  N   UNL     1     -23.338 -55.491 -63.987  0.00  0.00    -0.214 NA
BRANCH   4   3
ATOM      1  C   UNL     1     -21.098 -57.738 -67.792  0.00  0.00    +0.020 A 
ATOM      2  C   UNL     1     -21.449 -57.725 -66.391  0.00  0.00    +0.013 A 
ATOM      3  C   UNL     1     -22.068 -56.550 -65.789  0.00  0.00    +0.019 A 
ATOM     38  C   UNL     1     -22.320 -55.397 -66.640  0.00  0.00    +0.120 A 
ATOM     39  N   UNL     1     -21.969 -55.438 -67.986  0.00  0.00    -0.263 NA
ATOM     40  C   UNL     1     -21.372 -56.563 -68.576  0.00  0.00    +0.111 A 
ENDBRANCH   4   3
ENDBRANCH  10   9
BRANCH  12  13
ATOM     13  N   UNL     1     -24.185 -52.196 -57.970  0.00  0.00    -0.281 N 
ATOM     14  C   UNL     1     -22.940 -52.398 -57.397  0.00  0.00    +0.248 C 
ATOM     30  O   UNL     1     -22.322 -53.452 -57.442  0.00  0.00    -0.270 OA
ATOM     31  H   UNL     1     -24.672 -51.342 -57.695  0.00  0.00    +0.155 HD
BRANCH  14  15
ATOM     15  C   UNL     1     -22.295 -51.273 -56.656  0.00  0.00    +0.037 A 
ATOM     16  C   UNL     1     -21.584 -50.205 -57.364  0.00  0.00    +0.013 A 
ATOM     17  C   UNL     1     -20.955 -49.140 -56.623  0.00  0.00    +0.005 A 
ATOM     18  C   UNL     1     -21.036 -49.137 -55.165  0.00  0.00    -0.033 A 
ATOM     28  C   UNL     1     -21.753 -50.206 -54.488  0.00  0.00    +0.005 A 
ATOM     29  C   UNL     1     -22.369 -51.252 -55.211  0.00  0.00    +0.013 A 
BRANCH  18  19
ATOM     19  C   UNL     1     -20.378 -48.052 -54.293  0.00  0.00    +0.119 C 
BRANCH  19  20
ATOM     20  N   UNL     1     -20.731 -48.032 -52.842  0.00  0.00    -0.302 NA
ATOM     21  C   UNL     1     -21.496 -46.764 -52.454  0.00  0.00    +0.066 C 
ATOM     22  C   UNL     1     -21.878 -46.770 -50.938  0.00  0.00    -0.064 C 
ATOM     23  N   UNL     1     -20.609 -46.917 -50.096  0.00  0.00    +0.379 N 
ATOM     24  C   UNL     1     -20.959 -46.865 -48.669  0.00  0.00    -0.096 C 
ATOM     25  H   UNL     1     -19.955 -46.042 -50.316  0.00  0.00    -0.082 HD
ATOM     26  C   UNL     1     -19.841 -48.175 -50.477  0.00  0.00    -0.064 C 
ATOM     27  C   UNL     1     -19.493 -48.172 -51.992  0.00  0.00    +0.066 C 
ENDBRANCH  19  20
ENDBRANCH  18  19
ENDBRANCH  14  15
ENDBRANCH  12  13
TORSDOF 6
ENDMDL
MODEL 3
REMARK VINA RESULT:      -8.1      1.514      2.157
REMARK  Name = C:\Users\Docking\Desktop\test protocol\1iep_ligandH.pdb
REMARK  8 active torsions:
REMARK  status: ('A' for Active; 'I' for Inactive)
REMARK    1  A    between atoms: _5  and  _11
REMARK    2  A    between atoms: _19  and  _21
REMARK    3  A    between atoms: _22  and  _66
REMARK    4  A    between atoms: _27  and  _30
REMARK    5  A    between atoms: _32  and  _33
REMARK    6  A    between atoms: _38  and  _43
REMARK    7  A    between atoms: _43  and  _46
REMARK    8  A    between atoms: _53  and  _55
REMARK                            x       y       z     vdW  Elec       q    Type
REMARK                         _______ _______ _______ _____ _____    ______ ____
ROOT
ATOM     10  C   UNL     1     -22.349 -50.996 -54.989  0.00  0.00    +0.038 A 
ATOM     11  C   UNL     1     -22.775 -49.707 -54.579  0.00  0.00    +0.047 A 
ATOM     12  C   UNL     1     -21.913 -48.846 -53.785  0.00  0.00    +0.035 A 
ATOM     32  C   UNL     1     -20.620 -49.330 -53.427  0.00  0.00    +0.024 A 
ATOM     33  C   UNL     1     -20.171 -50.638 -53.834  0.00  0.00    +0.007 A 
ATOM     34  C   UNL     1     -21.019 -51.492 -54.616  0.00  0.00    -0.029 A 
ATOM     35  C   UNL     1     -20.488 -52.888 -55.019  0.00  0.00    +0.045 C 
ENDROOT
BRANCH  10   9
ATOM      4  C   UNL     1     -23.960 -52.669 -59.189  0.00  0.00    +0.077 A 
ATOM      5  C   UNL     1     -23.006 -51.894 -59.931  0.00  0.00    +0.048 A 
ATOM      6  C   UNL     1     -22.124 -51.073 -59.194  0.00  0.00    +0.116 A 
ATOM      7  N   UNL     1     -22.198 -51.037 -57.818  0.00  0.00    -0.223 NA
ATOM      8  C   UNL     1     -23.131 -51.795 -57.134  0.00  0.00    +0.220 A 
ATOM      9  N   UNL     1     -23.218 -51.780 -55.751  0.00  0.00    -0.283 N 
ATOM     36  H   UNL     1     -23.925 -52.348 -55.284  0.00  0.00    +0.155 HD
ATOM     37  N   UNL     1     -23.985 -52.586 -57.815  0.00  0.00    -0.214 NA
BRANCH   4   3
ATOM      1  C   UNL     1     -25.727 -55.109 -61.684  0.00  0.00    +0.020 A 
ATOM      2  C   UNL     1     -24.732 -54.230 -61.114  0.00  0.00    +0.013 A 
ATOM      3  C   UNL     1     -24.957 -53.587 -59.825  0.00  0.00    +0.019 A 
ATOM     38  C   UNL     1     -26.208 -53.857 -59.133  0.00  0.00    +0.120 A 
ATOM     39  N   UNL     1     -27.148 -54.706 -59.707  0.00  0.00    -0.263 NA
ATOM     40  C   UNL     1     -26.944 -55.330 -60.948  0.00  0.00    +0.111 A 
ENDBRANCH   4   3
ENDBRANCH  10   9
BRANCH  12  13
ATOM     13  N   UNL     1     -22.294 -47.531 -53.333  0.00  0.00    -0.281 N 
ATOM     14  C   UNL     1     -22.606 -47.131 -52.044  0.00  0.00    +0.248 C 
ATOM     30  O   UNL     1     -22.813 -47.896 -51.114  0.00  0.00    -0.270 OA
ATOM     31  H   UNL     1     -22.339 -46.807 -54.050  0.00  0.00    +0.155 HD
BRANCH  14  15
ATOM     15  C   UNL     1     -22.720 -45.670 -51.749  0.00  0.00    +0.037 A 
ATOM     16  C   UNL     1     -23.448 -44.768 -52.645  0.00  0.00    +0.013 A 
ATOM     17  C   UNL     1     -23.527 -43.360 -52.346  0.00  0.00    +0.005 A 
ATOM     18  C   UNL     1     -22.877 -42.846 -51.143  0.00  0.00    -0.033 A 
ATOM     28  C   UNL     1     -22.166 -43.764 -50.269  0.00  0.00    +0.005 A 
ATOM     29  C   UNL     1     -22.085 -45.144 -50.559  0.00  0.00    +0.013 A 
BRANCH  18  19
ATOM     19  C   UNL     1     -22.892 -41.355 -50.756  0.00  0.00    +0.119 C 
BRANCH  19  20
ATOM     20  N   UNL     1     -23.948 -40.907 -49.800  0.00  0.00    -0.302 NA
ATOM     21  C   UNL     1     -24.869 -39.850 -50.414  0.00  0.00    +0.066 C 
ATOM     22  C   UNL     1     -25.981 -39.409 -49.408  0.00  0.00    -0.064 C 
ATOM     23  N   UNL     1     -25.328 -38.882 -48.129  0.00  0.00    +0.379 N 
ATOM     24  C   UNL     1     -26.370 -38.413 -47.204  0.00  0.00    -0.096 C 
ATOM     25  H   UNL     1     -24.702 -38.002 -48.408  0.00  0.00    -0.082 HD
ATOM     26  C   UNL     1     -24.409 -39.926 -47.513  0.00  0.00    -0.064 C 
ATOM     27  C   UNL     1     -23.325 -40.379 -48.531  0.00  0.00    +0.066 C 
ENDBRANCH  19  20
ENDBRANCH  18  19
ENDBRANCH  14  15
ENDBRANCH  12  13
TORSDOF 6
ENDMDL
MODEL 4
REMARK VINA RESULT:      -8.0     24.779     32.318
REMARK  Name = C:\Users\Docking\Desktop\test protocol\1iep_ligandH.pdb
REMARK  8 active torsions:
REMARK  status: ('A' for Active; 'I' for Inactive)
REMARK    1  A    between atoms: _5  and  _11
REMARK    2  A    between atoms: _19  and  _21
REMARK    3  A    between atoms: _22  and  _66
REMARK    4  A    between atoms: _27  and  _30
REMARK    5  A    between atoms: _32  and  _33
REMARK    6  A    between atoms: _38  and  _43
REMARK    7  A    between atoms: _43  and  _46
REMARK    8  A    between atoms: _53  and  _55
REMARK                            x       y       z     vdW  Elec       q    Type
REMARK                         _______ _______ _______ _____ _____    ______ ____
ROOT
ATOM     10  C   UNL     1     -42.387 -50.610 -75.625  0.00  0.00    +0.038 A 
ATOM     11  C   UNL     1     -43.649 -51.201 -75.358  0.00  0.00    +0.047 A 
ATOM     12  C   UNL     1     -44.860 -50.711 -75.998  0.00  0.00    +0.035 A 
ATOM     32  C   UNL     1     -44.749 -49.620 -76.909  0.00  0.00    +0.024 A 
ATOM     33  C   UNL     1     -43.474 -49.007 -77.191  0.00  0.00    +0.007 A 
ATOM     34  C   UNL     1     -42.277 -49.484 -76.560  0.00  0.00    -0.029 A 
ATOM     35  C   UNL     1     -40.939 -48.785 -76.896  0.00  0.00    +0.045 C 
ENDROOT
BRANCH  10   9
ATOM      4  C   UNL     1     -38.905 -53.878 -75.144  0.00  0.00    +0.077 A 
ATOM      5  C   UNL     1     -39.394 -54.648 -76.250  0.00  0.00    +0.048 A 
ATOM      6  C   UNL     1     -40.548 -54.173 -76.912  0.00  0.00    +0.116 A 
ATOM      7  N   UNL     1     -41.160 -53.013 -76.490  0.00  0.00    -0.223 NA
ATOM      8  C   UNL     1     -40.663 -52.294 -75.418  0.00  0.00    +0.220 A 
ATOM      9  N   UNL     1     -41.257 -51.120 -74.982  0.00  0.00    -0.283 N 
ATOM     36  H   UNL     1     -40.865 -50.623 -74.183  0.00  0.00    +0.155 HD
ATOM     37  N   UNL     1     -39.563 -52.728 -74.769  0.00  0.00    -0.214 NA
BRANCH   4   3
ATOM      1  C   UNL     1     -35.200 -54.332 -73.975  0.00  0.00    +0.020 A 
ATOM      2  C   UNL     1     -36.335 -53.953 -74.784  0.00  0.00    +0.013 A 
ATOM      3  C   UNL     1     -37.693 -54.248 -74.346  0.00  0.00    +0.019 A 
ATOM     38  C   UNL     1     -37.870 -54.932 -73.073  0.00  0.00    +0.120 A 
ATOM     39  N   UNL     1     -36.757 -55.286 -72.316  0.00  0.00    -0.263 NA
ATOM     40  C   UNL     1     -35.445 -55.009 -72.729  0.00  0.00    +0.111 A 
ENDBRANCH   4   3
ENDBRANCH  10   9
BRANCH  12  13
ATOM     13  N   UNL     1     -46.169 -51.265 -75.760  0.00  0.00    -0.281 N 
ATOM     14  C   UNL     1     -47.216 -50.702 -75.049  0.00  0.00    +0.248 C 
ATOM     30  O   UNL     1     -47.112 -49.722 -74.325  0.00  0.00    -0.270 OA
ATOM     31  H   UNL     1     -46.346 -52.185 -76.164  0.00  0.00    +0.155 HD
BRANCH  14  15
ATOM     15  C   UNL     1     -48.572 -51.324 -75.143  0.00  0.00    +0.037 A 
ATOM     16  C   UNL     1     -48.774 -52.602 -75.831  0.00  0.00    +0.013 A 
ATOM     17  C   UNL     1     -50.095 -53.172 -75.923  0.00  0.00    +0.005 A 
ATOM     18  C   UNL     1     -51.224 -52.464 -75.323  0.00  0.00    -0.033 A 
ATOM     28  C   UNL     1     -50.993 -51.201 -74.642  0.00  0.00    +0.005 A 
ATOM     29  C   UNL     1     -49.700 -50.639 -74.551  0.00  0.00    +0.013 A 
BRANCH  18  19
ATOM     19  C   UNL     1     -52.671 -52.988 -75.391  0.00  0.00    +0.119 C 
BRANCH  19  20
ATOM     20  N   UNL     1     -52.868 -54.395 -75.852  0.00  0.00    -0.302 NA
ATOM     21  C   UNL     1     -54.243 -54.602 -76.493  0.00  0.00    +0.066 C 
ATOM     22  C   UNL     1     -54.423 -56.074 -76.989  0.00  0.00    -0.064 C 
ATOM     23  N   UNL     1     -54.224 -57.033 -75.815  0.00  0.00    +0.379 N 
ATOM     24  C   UNL     1     -54.450 -58.414 -76.266  0.00  0.00    -0.096 C 
ATOM     25  H   UNL     1     -54.998 -56.796 -75.049  0.00  0.00    -0.082 HD
ATOM     26  C   UNL     1     -52.860 -56.832 -75.169  0.00  0.00    -0.064 C 
ATOM     27  C   UNL     1     -52.679 -55.359 -74.706  0.00  0.00    +0.066 C 
ENDBRANCH  19  20
ENDBRANCH  18  19
ENDBRANCH  14  15
ENDBRANCH  12  13
TORSDOF 6
ENDMDL
MODEL 5
REMARK VINA RESULT:      -8.0      2.537      3.342
REMARK  Name = C:\Users\Docking\Desktop\test protocol\1iep_ligandH.pdb
REMARK  8 active torsions:
REMARK  status: ('A' for Active; 'I' for Inactive)
REMARK    1  A    between atoms: _5  and  _11
REMARK    2  A    between atoms: _19  and  _21
REMARK    3  A    between atoms: _22  and  _66
REMARK    4  A    between atoms: _27  and  _30
REMARK    5  A    between atoms: _32  and  _33
REMARK    6  A    between atoms: _38  and  _43
REMARK    7  A    between atoms: _43  and  _46
REMARK    8  A    between atoms: _53  and  _55
REMARK                            x       y       z     vdW  Elec       q    Type
REMARK                         _______ _______ _______ _____ _____    ______ ____
ROOT
ATOM     10  C   UNL     1     -23.575 -49.718 -53.530  0.00  0.00    +0.038 A 
ATOM     11  C   UNL     1     -23.591 -48.314 -53.730  0.00  0.00    +0.047 A 
ATOM     12  C   UNL     1     -23.165 -47.399 -52.683  0.00  0.00    +0.035 A 
ATOM     32  C   UNL     1     -22.724 -47.949 -51.444  0.00  0.00    +0.024 A 
ATOM     33  C   UNL     1     -22.702 -49.373 -51.222  0.00  0.00    +0.007 A 
ATOM     34  C   UNL     1     -23.124 -50.280 -52.251  0.00  0.00    -0.029 A 
ATOM     35  C   UNL     1     -23.086 -51.798 -51.956  0.00  0.00    +0.045 C 
ENDROOT
BRANCH  10   9
ATOM      4  C   UNL     1     -23.161 -51.470 -57.979  0.00  0.00    +0.077 A 
ATOM      5  C   UNL     1     -22.028 -50.638 -58.265  0.00  0.00    +0.048 A 
ATOM      6  C   UNL     1     -21.587 -49.768 -57.243  0.00  0.00    +0.116 A 
ATOM      7  N   UNL     1     -22.239 -49.740 -56.029  0.00  0.00    -0.223 NA
ATOM      8  C   UNL     1     -23.330 -50.555 -55.786  0.00  0.00    +0.220 A 
ATOM      9  N   UNL     1     -23.995 -50.550 -54.570  0.00  0.00    -0.283 N 
ATOM     36  H   UNL     1     -24.800 -51.160 -54.433  0.00  0.00    +0.155 HD
ATOM     37  N   UNL     1     -23.771 -51.393 -56.747  0.00  0.00    -0.214 NA
BRANCH   4   3
ATOM      1  C   UNL     1     -23.592 -53.937 -60.984  0.00  0.00    +0.020 A 
ATOM      2  C   UNL     1     -22.983 -52.999 -60.069  0.00  0.00    +0.013 A 
ATOM      3  C   UNL     1     -23.743 -52.443 -58.956  0.00  0.00    +0.019 A 
ATOM     38  C   UNL     1     -25.128 -52.861 -58.796  0.00  0.00    +0.120 A 
ATOM     39  N   UNL     1     -25.688 -53.764 -59.694  0.00  0.00    -0.263 NA
ATOM     40  C   UNL     1     -24.967 -54.304 -60.769  0.00  0.00    +0.111 A 
ENDBRANCH   4   3
ENDBRANCH  10   9
BRANCH  12  13
ATOM     13  N   UNL     1     -23.167 -45.964 -52.826  0.00  0.00    -0.281 N 
ATOM     14  C   UNL     1     -22.083 -45.126 -53.029  0.00  0.00    +0.248 C 
ATOM     30  O   UNL     1     -20.915 -45.465 -52.905  0.00  0.00    -0.270 OA
ATOM     31  H   UNL     1     -24.079 -45.511 -52.771  0.00  0.00    +0.155 HD
BRANCH  14  15
ATOM     15  C   UNL     1     -22.331 -43.703 -53.411  0.00  0.00    +0.037 A 
ATOM     16  C   UNL     1     -21.606 -43.076 -54.519  0.00  0.00    +0.013 A 
ATOM     17  C   UNL     1     -21.852 -41.697 -54.856  0.00  0.00    +0.005 A 
ATOM     18  C   UNL     1     -22.831 -40.935 -54.085  0.00  0.00    -0.033 A 
ATOM     28  C   UNL     1     -23.540 -41.583 -52.994  0.00  0.00    +0.005 A 
ATOM     29  C   UNL     1     -23.301 -42.935 -52.660  0.00  0.00    +0.013 A 
BRANCH  18  19
ATOM     19  C   UNL     1     -23.142 -39.452 -54.361  0.00  0.00    +0.119 C 
BRANCH  19  20
ATOM     20  N   UNL     1     -24.053 -39.146 -55.504  0.00  0.00    -0.302 NA
ATOM     21  C   UNL     1     -23.431 -38.144 -56.481  0.00  0.00    +0.066 C 
ATOM     22  C   UNL     1     -24.388 -37.852 -57.683  0.00  0.00    -0.064 C 
ATOM     23  N   UNL     1     -25.725 -37.332 -57.152  0.00  0.00    +0.379 N 
ATOM     24  C   UNL     1     -26.607 -37.002 -58.281  0.00  0.00    -0.096 C 
ATOM     25  H   UNL     1     -25.523 -36.389 -56.594  0.00  0.00    -0.082 HD
ATOM     26  C   UNL     1     -26.349 -38.321 -56.177  0.00  0.00    -0.064 C 
ATOM     27  C   UNL     1     -25.378 -38.626 -55.002  0.00  0.00    +0.066 C 
ENDBRANCH  19  20
ENDBRANCH  18  19
ENDBRANCH  14  15
ENDBRANCH  12  13
TORSDOF 6
ENDMDL
