MODEL 1
REMARK VINA RESULT:      -7.4      0.000      0.000
REMARK  Name = C:\Users\Docking\Desktop\test protocol\1iep_ligandH.pdb
REMARK  8 active torsions:
REMARK  status: ('A' for Active; 'I' for Inactive)
REMARK    1  A    between atoms: _5  and  _11
REMARK    2  A    between atoms: _19  and  _21
REMARK    3  A    between atoms: _22  and  _66
REMARK    4  A    between atoms: _27  and  _30
REMARK    5  A    between atoms: _32  and  _33
REMARK    6  A    between atoms: _38  and  _43
REMARK    7  A    between atoms: _43  and  _46
REMARK    8  A    between atoms: _53  and  _55
REMARK                            x       y       z     vdW  Elec       q    Type
REMARK                         _______ _______ _______ _____ _____    ______ ____
ROOT
ATOM     10  C   UNL     1      27.970   4.125  19.452  0.00  0.00    +0.038 A 
ATOM     11  C   UNL     1      28.027   3.603  20.770  0.00  0.00    +0.047 A 
ATOM     12  C   UNL     1      28.428   4.437  21.892  0.00  0.00    +0.035 A 
ATOM     32  C   UNL     1      28.761   5.799  21.637  0.00  0.00    +0.024 A 
ATOM     33  C   UNL     1      28.710   6.345  20.303  0.00  0.00    +0.007 A 
ATOM     34  C   UNL     1      28.317   5.527  19.192  0.00  0.00    -0.029 A 
ATOM     35  C   UNL     1      28.286   6.164  17.783  0.00  0.00    +0.045 C 
ENDROOT
BRANCH  10   9
ATOM      4  C   UNL     1      24.612   2.014  16.749  0.00  0.00    +0.077 A 
ATOM      5  C   UNL     1      23.547   2.627  17.489  0.00  0.00    +0.048 A 
ATOM      6  C   UNL     1      23.905   3.473  18.562  0.00  0.00    +0.116 A 
ATOM      7  N   UNL     1      25.233   3.683  18.864  0.00  0.00    -0.223 NA
ATOM      8  C   UNL     1      26.236   3.075  18.131  0.00  0.00    +0.220 A 
ATOM      9  N   UNL     1      27.578   3.279  18.412  0.00  0.00    -0.283 N 
ATOM     36  H   UNL     1      28.288   2.806  17.852  0.00  0.00    +0.155 HD
ATOM     37  N   UNL     1      25.920   2.262  17.102  0.00  0.00    -0.214 NA
BRANCH   4   3
ATOM      1  C   UNL     1      24.453   0.558  13.122  0.00  0.00    +0.020 A 
ATOM      2  C   UNL     1      24.682   1.482  14.209  0.00  0.00    +0.013 A 
ATOM      3  C   UNL     1      24.393   1.098  15.585  0.00  0.00    +0.019 A 
ATOM     38  C   UNL     1      23.872  -0.239  15.829  0.00  0.00    +0.120 A 
ATOM     39  N   UNL     1      23.660  -1.106  14.761  0.00  0.00    -0.263 NA
ATOM     40  C   UNL     1      23.933  -0.747  13.433  0.00  0.00    +0.111 A 
ENDBRANCH   4   3
ENDBRANCH  10   9
BRANCH  12  13
ATOM     13  N   UNL     1      28.512   3.961  23.251  0.00  0.00    -0.281 N 
ATOM     14  C   UNL     1      29.153   2.825  23.717  0.00  0.00    +0.248 C 
ATOM     30  O   UNL     1      29.573   1.927  23.003  0.00  0.00    -0.270 OA
ATOM     31  H   UNL     1      28.042   4.531  23.954  0.00  0.00    +0.155 HD
BRANCH  14  15
ATOM     15  C   UNL     1      29.342   2.656  25.190  0.00  0.00    +0.037 A 
ATOM     16  C   UNL     1      28.416   3.262  26.150  0.00  0.00    +0.013 A 
ATOM     17  C   UNL     1      28.631   3.097  27.565  0.00  0.00    +0.005 A 
ATOM     18  C   UNL     1      29.777   2.320  28.030  0.00  0.00    -0.033 A 
ATOM     28  C   UNL     1      30.677   1.725  27.056  0.00  0.00    +0.005 A 
ATOM     29  C   UNL     1      30.470   1.885  25.667  0.00  0.00    +0.013 A 
BRANCH  18  19
ATOM     19  C   UNL     1      30.096   2.110  29.522  0.00  0.00    +0.119 C 
BRANCH  19  20
ATOM     20  N   UNL     1      30.335   0.709  29.979  0.00  0.00    -0.302 NA
ATOM     21  C   UNL     1      29.575   0.388  31.269  0.00  0.00    +0.066 C 
ATOM     22  C   UNL     1      29.818  -1.089  31.721  0.00  0.00    -0.064 C 
ATOM     23  N   UNL     1      31.319  -1.322  31.905  0.00  0.00    +0.379 N 
ATOM     24  C   UNL     1      31.547  -2.693  32.386  0.00  0.00    -0.096 C 
ATOM     25  H   UNL     1      31.675  -0.622  32.696  0.00  0.00    -0.082 HD
ATOM     26  C   UNL     1      32.083  -1.003  30.628  0.00  0.00    -0.064 C 
ATOM     27  C   UNL     1      31.811   0.458  30.171  0.00  0.00    +0.066 C 
ENDBRANCH  19  20
ENDBRANCH  18  19
ENDBRANCH  14  15
ENDBRANCH  12  13
TORSDOF 6
ENDMDL
MODEL 2
REMARK VINA RESULT:      -7.3      4.141     13.907
REMARK  Name = C:\Users\Docking\Desktop\test protocol\1iep_ligandH.pdb
REMARK  8 active torsions:
REMARK  status: ('A' for Active; 'I' for Inactive)
REMARK    1  A    between atoms: _5  and  _11
REMARK    2  A    between atoms: _19  and  _21
REMARK    3  A    between atoms: _22  and  _66
REMARK    4  A    between atoms: _27  and  _30
REMARK    5  A    between atoms: _32  and  _33
REMARK    6  A    between atoms: _38  and  _43
REMARK    7  A    between atoms: _43  and  _46
REMARK    8  A    between atoms: _53  and  _55
REMARK                            x       y       z     vdW  Elec       q    Type
REMARK                         _______ _______ _______ _____ _____    ______ ____
ROOT
ATOM     10  C   UNL     1      30.476   1.013  30.581  0.00  0.00    +0.038 A 
ATOM     11  C   UNL     1      30.240   1.023  29.183  0.00  0.00    +0.047 A 
ATOM     12  C   UNL     1      30.371   2.246  28.406  0.00  0.00    +0.035 A 
ATOM     32  C   UNL     1      30.746   3.441  29.087  0.00  0.00    +0.024 A 
ATOM     33  C   UNL     1      30.989   3.449  30.508  0.00  0.00    +0.007 A 
ATOM     34  C   UNL     1      30.859   2.246  31.279  0.00  0.00    -0.029 A 
ATOM     35  C   UNL     1      31.124   2.314  32.801  0.00  0.00    +0.045 C 
ENDROOT
BRANCH  10   9
ATOM      4  C   UNL     1      32.138  -3.240  32.062  0.00  0.00    +0.077 A 
ATOM      5  C   UNL     1      33.381  -3.062  31.367  0.00  0.00    +0.048 A 
ATOM      6  C   UNL     1      33.550  -1.865  30.635  0.00  0.00    +0.116 A 
ATOM      7  N   UNL     1      32.544  -0.924  30.607  0.00  0.00    -0.223 NA
ATOM      8  C   UNL     1      31.357  -1.127  31.286  0.00  0.00    +0.220 A 
ATOM      9  N   UNL     1      30.335  -0.190  31.277  0.00  0.00    -0.283 N 
ATOM     36  H   UNL     1      29.472  -0.381  31.785  0.00  0.00    +0.155 HD
ATOM     37  N   UNL     1      31.171  -2.262  31.991  0.00  0.00    -0.214 NA
BRANCH   4   3
ATOM      1  C   UNL     1      30.188  -6.102  33.879  0.00  0.00    +0.020 A 
ATOM      2  C   UNL     1      30.449  -4.928  33.079  0.00  0.00    +0.013 A 
ATOM      3  C   UNL     1      31.812  -4.449  32.881  0.00  0.00    +0.019 A 
ATOM     38  C   UNL     1      32.895  -5.188  33.511  0.00  0.00    +0.120 A 
ATOM     39  N   UNL     1      32.613  -6.314  34.278  0.00  0.00    -0.263 NA
ATOM     40  C   UNL     1      31.306  -6.783  34.477  0.00  0.00    +0.111 A 
ENDBRANCH   4   3
ENDBRANCH  10   9
BRANCH  12  13
ATOM     13  N   UNL     1      30.136   2.319  26.986  0.00  0.00    -0.281 N 
ATOM     14  C   UNL     1      29.007   2.784  26.332  0.00  0.00    +0.248 C 
ATOM     30  O   UNL     1      27.937   3.011  26.877  0.00  0.00    -0.270 OA
ATOM     31  H   UNL     1      30.895   1.987  26.390  0.00  0.00    +0.155 HD
BRANCH  14  15
ATOM     15  C   UNL     1      29.071   3.017  24.857  0.00  0.00    +0.037 A 
ATOM     16  C   UNL     1      28.441   2.091  23.913  0.00  0.00    +0.013 A 
ATOM     17  C   UNL     1      28.532   2.330  22.494  0.00  0.00    +0.005 A 
ATOM     18  C   UNL     1      29.258   3.502  22.011  0.00  0.00    -0.033 A 
ATOM     28  C   UNL     1      29.869   4.408  22.970  0.00  0.00    +0.005 A 
ATOM     29  C   UNL     1      29.783   4.176  24.361  0.00  0.00    +0.013 A 
BRANCH  18  19
ATOM     19  C   UNL     1      29.424   3.825  20.514  0.00  0.00    +0.119 C 
BRANCH  19  20
ATOM     20  N   UNL     1      28.939   5.156  20.043  0.00  0.00    -0.302 NA
ATOM     21  C   UNL     1      27.424   5.307  20.209  0.00  0.00    +0.066 C 
ATOM     22  C   UNL     1      26.936   6.714  19.732  0.00  0.00    -0.064 C 
ATOM     23  N   UNL     1      27.346   6.925  18.273  0.00  0.00    +0.379 N 
ATOM     24  C   UNL     1      26.838   8.223  17.804  0.00  0.00    -0.096 C 
ATOM     25  H   UNL     1      26.854   6.130  17.666  0.00  0.00    -0.082 HD
ATOM     26  C   UNL     1      28.850   6.774  18.099  0.00  0.00    -0.064 C 
ATOM     27  C   UNL     1      29.328   5.384  18.603  0.00  0.00    +0.066 C 
ENDBRANCH  19  20
ENDBRANCH  18  19
ENDBRANCH  14  15
ENDBRANCH  12  13
TORSDOF 6
ENDMDL
MODEL 3
REMARK VINA RESULT:      -7.2     13.859     18.470
REMARK  Name = C:\Users\Docking\Desktop\test protocol\1iep_ligandH.pdb
REMARK  8 active torsions:
REMARK  status: ('A' for Active; 'I' for Inactive)
REMARK    1  A    between atoms: _5  and  _11
REMARK    2  A    between atoms: _19  and  _21
REMARK    3  A    between atoms: _22  and  _66
REMARK    4  A    between atoms: _27  and  _30
REMARK    5  A    between atoms: _32  and  _33
REMARK    6  A    between atoms: _38  and  _43
REMARK    7  A    between atoms: _43  and  _46
REMARK    8  A    between atoms: _53  and  _55
REMARK                            x       y       z     vdW  Elec       q    Type
REMARK                         _______ _______ _______ _____ _____    ______ ____
ROOT
ATOM     10  C   UNL     1      38.267 -14.273  25.846  0.00  0.00    +0.038 A 
ATOM     11  C   UNL     1      37.774 -13.007  26.252  0.00  0.00    +0.047 A 
ATOM     12  C   UNL     1      37.936 -12.539  27.619  0.00  0.00    +0.035 A 
ATOM     32  C   UNL     1      38.609 -13.385  28.548  0.00  0.00    +0.024 A 
ATOM     33  C   UNL     1      39.116 -14.676  28.153  0.00  0.00    +0.007 A 
ATOM     34  C   UNL     1      38.956 -15.144  26.806  0.00  0.00    -0.029 A 
ATOM     35  C   UNL     1      39.514 -16.539  26.440  0.00  0.00    +0.045 C 
ENDROOT
BRANCH  10   9
ATOM      4  C   UNL     1      39.758 -14.673  21.301  0.00  0.00    +0.077 A 
ATOM      5  C   UNL     1      40.996 -14.006  21.587  0.00  0.00    +0.048 A 
ATOM      6  C   UNL     1      41.207 -13.570  22.914  0.00  0.00    +0.116 A 
ATOM      7  N   UNL     1      40.245 -13.789  23.876  0.00  0.00    -0.223 NA
ATOM      8  C   UNL     1      39.061 -14.434  23.567  0.00  0.00    +0.220 A 
ATOM      9  N   UNL     1      38.084 -14.672  24.520  0.00  0.00    -0.283 N 
ATOM     36  H   UNL     1      37.221 -15.145  24.251  0.00  0.00    +0.155 HD
ATOM     37  N   UNL     1      38.835 -14.859  22.307  0.00  0.00    -0.214 NA
BRANCH   4   3
ATOM      1  C   UNL     1      37.729 -16.084  18.270  0.00  0.00    +0.020 A 
ATOM      2  C   UNL     1      38.031 -15.586  19.592  0.00  0.00    +0.013 A 
ATOM      3  C   UNL     1      39.390 -15.196  19.948  0.00  0.00    +0.019 A 
ATOM     38  C   UNL     1      40.427 -15.323  18.935  0.00  0.00    +0.120 A 
ATOM     39  N   UNL     1      40.106 -15.807  17.671  0.00  0.00    -0.263 NA
ATOM     40  C   UNL     1      38.803 -16.187  17.317  0.00  0.00    +0.111 A 
ENDBRANCH   4   3
ENDBRANCH  10   9
BRANCH  12  13
ATOM     13  N   UNL     1      37.449 -11.266  28.091  0.00  0.00    -0.281 N 
ATOM     14  C   UNL     1      36.335 -11.019  28.877  0.00  0.00    +0.248 C 
ATOM     30  O   UNL     1      35.463 -11.840  29.119  0.00  0.00    -0.270 OA
ATOM     31  H   UNL     1      37.990 -10.448  27.811  0.00  0.00    +0.155 HD
BRANCH  14  15
ATOM     15  C   UNL     1      36.157  -9.658  29.469  0.00  0.00    +0.037 A 
ATOM     16  C   UNL     1      34.994  -8.831  29.138  0.00  0.00    +0.013 A 
ATOM     17  C   UNL     1      34.855  -7.515  29.710  0.00  0.00    +0.005 A 
ATOM     18  C   UNL     1      35.883  -7.019  30.621  0.00  0.00    -0.033 A 
ATOM     28  C   UNL     1      37.025  -7.862  30.937  0.00  0.00    +0.005 A 
ATOM     29  C   UNL     1      37.164  -9.152  30.377  0.00  0.00    +0.013 A 
BRANCH  18  19
ATOM     19  C   UNL     1      35.828  -5.619  31.261  0.00  0.00    +0.119 C 
BRANCH  19  20
ATOM     20  N   UNL     1      34.494  -4.952  31.332  0.00  0.00    -0.302 NA
ATOM     21  C   UNL     1      34.557  -3.492  30.873  0.00  0.00    +0.066 C 
ATOM     22  C   UNL     1      33.148  -2.816  30.933  0.00  0.00    -0.064 C 
ATOM     23  N   UNL     1      32.598  -2.913  32.357  0.00  0.00    +0.379 N 
ATOM     24  C   UNL     1      31.300  -2.227  32.429  0.00  0.00    -0.096 C 
ATOM     25  H   UNL     1      33.304  -2.373  33.029  0.00  0.00    -0.082 HD
ATOM     26  C   UNL     1      32.535  -4.361  32.822  0.00  0.00    -0.064 C 
ATOM     27  C   UNL     1      33.934  -5.032  32.731  0.00  0.00    +0.066 C 
ENDBRANCH  19  20
ENDBRANCH  18  19
ENDBRANCH  14  15
ENDBRANCH  12  13
TORSDOF 6
ENDMDL
MODEL 4
REMARK VINA RESULT:      -7.2      3.224      5.962
REMARK  Name = C:\Users\Docking\Desktop\test protocol\1iep_ligandH.pdb
REMARK  8 active torsions:
REMARK  status: ('A' for Active; 'I' for Inactive)
REMARK    1  A    between atoms: _5  and  _11
REMARK    2  A    between atoms: _19  and  _21
REMARK    3  A    between atoms: _22  and  _66
REMARK    4  A    between atoms: _27  and  _30
REMARK    5  A    between atoms: _32  and  _33
REMARK    6  A    between atoms: _38  and  _43
REMARK    7  A    between atoms: _43  and  _46
REMARK    8  A    between atoms: _53  and  _55
REMARK                            x       y       z     vdW  Elec       q    Type
REMARK                         _______ _______ _______ _____ _____    ______ ____
ROOT
ATOM     10  C   UNL     1      28.495   4.499  19.870  0.00  0.00    +0.038 A 
ATOM     11  C   UNL     1      29.167   4.262  21.096  0.00  0.00    +0.047 A 
ATOM     12  C   UNL     1      28.627   3.343  22.085  0.00  0.00    +0.035 A 
ATOM     32  C   UNL     1      27.401   2.679  21.792  0.00  0.00    +0.024 A 
ATOM     33  C   UNL     1      26.703   2.908  20.551  0.00  0.00    +0.007 A 
ATOM     34  C   UNL     1      27.230   3.816  19.573  0.00  0.00    -0.029 A 
ATOM     35  C   UNL     1      26.436   4.028  18.262  0.00  0.00    +0.045 C 
ENDROOT
BRANCH  10   9
ATOM      4  C   UNL     1      29.186   8.929  18.157  0.00  0.00    +0.077 A 
ATOM      5  C   UNL     1      28.330   9.510  19.151  0.00  0.00    +0.048 A 
ATOM      6  C   UNL     1      27.726   8.634  20.080  0.00  0.00    +0.116 A 
ATOM      7  N   UNL     1      27.967   7.279  20.011  0.00  0.00    -0.223 NA
ATOM      8  C   UNL     1      28.796   6.750  19.039  0.00  0.00    +0.220 A 
ATOM      9  N   UNL     1      29.058   5.392  18.956  0.00  0.00    -0.283 N 
ATOM     36  H   UNL     1      29.670   5.040  18.219  0.00  0.00    +0.155 HD
ATOM     37  N   UNL     1      29.384   7.566  18.139  0.00  0.00    -0.214 NA
BRANCH   4   3
ATOM      1  C   UNL     1      30.055  10.777  14.821  0.00  0.00    +0.020 A 
ATOM      2  C   UNL     1      29.324  10.003  15.798  0.00  0.00    +0.013 A 
ATOM      3  C   UNL     1      29.899   9.724  17.108  0.00  0.00    +0.019 A 
ATOM     38  C   UNL     1      31.225  10.247  17.400  0.00  0.00    +0.120 A 
ATOM     39  N   UNL     1      31.906  10.987  16.438  0.00  0.00    -0.263 NA
ATOM     40  C   UNL     1      31.363  11.261  15.174  0.00  0.00    +0.111 A 
ENDBRANCH   4   3
ENDBRANCH  10   9
BRANCH  12  13
ATOM     13  N   UNL     1      29.262   3.069  23.351  0.00  0.00    -0.281 N 
ATOM     14  C   UNL     1      28.910   3.550  24.602  0.00  0.00    +0.248 C 
ATOM     30  O   UNL     1      28.121   4.464  24.794  0.00  0.00    -0.270 OA
ATOM     31  H   UNL     1      30.068   2.445  23.321  0.00  0.00    +0.155 HD
BRANCH  14  15
ATOM     15  C   UNL     1      29.535   2.937  25.813  0.00  0.00    +0.037 A 
ATOM     16  C   UNL     1      29.215   3.419  27.159  0.00  0.00    +0.013 A 
ATOM     17  C   UNL     1      29.845   2.821  28.310  0.00  0.00    +0.005 A 
ATOM     18  C   UNL     1      30.802   1.734  28.118  0.00  0.00    -0.033 A 
ATOM     28  C   UNL     1      31.097   1.272  26.772  0.00  0.00    +0.005 A 
ATOM     29  C   UNL     1      30.482   1.856  25.642  0.00  0.00    +0.013 A 
BRANCH  18  19
ATOM     19  C   UNL     1      31.538   1.052  29.287  0.00  0.00    +0.119 C 
BRANCH  19  20
ATOM     20  N   UNL     1      30.747   0.770  30.522  0.00  0.00    -0.302 NA
ATOM     21  C   UNL     1      31.045   1.777  31.637  0.00  0.00    +0.066 C 
ATOM     22  C   UNL     1      30.192   1.482  32.913  0.00  0.00    -0.064 C 
ATOM     23  N   UNL     1      30.466   0.053  33.387  0.00  0.00    +0.379 N 
ATOM     24  C   UNL     1      29.710  -0.208  34.620  0.00  0.00    -0.096 C 
ATOM     25  H   UNL     1      31.551  -0.019  33.633  0.00  0.00    -0.082 HD
ATOM     26  C   UNL     1      30.175  -0.954  32.284  0.00  0.00    -0.064 C 
ATOM     27  C   UNL     1      31.006  -0.634  31.009  0.00  0.00    +0.066 C 
ENDBRANCH  19  20
ENDBRANCH  18  19
ENDBRANCH  14  15
ENDBRANCH  12  13
TORSDOF 6
ENDMDL
MODEL 5
REMARK VINA RESULT:      -7.1     22.940     27.428
REMARK  Name = C:\Users\Docking\Desktop\test protocol\1iep_ligandH.pdb
REMARK  8 active torsions:
REMARK  status: ('A' for Active; 'I' for Inactive)
REMARK    1  A    between atoms: _5  and  _11
REMARK    2  A    between atoms: _19  and  _21
REMARK    3  A    between atoms: _22  and  _66
REMARK    4  A    between atoms: _27  and  _30
REMARK    5  A    between atoms: _32  and  _33
REMARK    6  A    between atoms: _38  and  _43
REMARK    7  A    between atoms: _43  and  _46
REMARK    8  A    between atoms: _53  and  _55
REMARK                            x       y       z     vdW  Elec       q    Type
REMARK                         _______ _______ _______ _____ _____    ______ ____
ROOT
ATOM     10  C   UNL     1      51.860  -9.351  26.609  0.00  0.00    +0.038 A 
ATOM     11  C   UNL     1      50.855 -10.110  25.957  0.00  0.00    +0.047 A 
ATOM     12  C   UNL     1      51.138 -10.838  24.730  0.00  0.00    +0.035 A 
ATOM     32  C   UNL     1      52.458 -10.774  24.196  0.00  0.00    +0.024 A 
ATOM     33  C   UNL     1      53.492 -10.007  24.844  0.00  0.00    +0.007 A 
ATOM     34  C   UNL     1      53.217  -9.284  26.054  0.00  0.00    -0.029 A 
ATOM     35  C   UNL     1      54.363  -8.473  26.702  0.00  0.00    +0.045 C 
ENDROOT
BRANCH  10   9
ATOM      4  C   UNL     1      50.741  -5.351  29.013  0.00  0.00    +0.077 A 
ATOM      5  C   UNL     1      50.843  -4.542  27.833  0.00  0.00    +0.048 A 
ATOM      6  C   UNL     1      51.193  -5.193  26.628  0.00  0.00    +0.116 A 
ATOM      7  N   UNL     1      51.421  -6.552  26.617  0.00  0.00    -0.223 NA
ATOM      8  C   UNL     1      51.316  -7.302  27.774  0.00  0.00    +0.220 A 
ATOM      9  N   UNL     1      51.533  -8.671  27.784  0.00  0.00    -0.283 N 
ATOM     36  H   UNL     1      51.453  -9.188  28.660  0.00  0.00    +0.155 HD
ATOM     37  N   UNL     1      50.985  -6.704  28.937  0.00  0.00    -0.214 NA
BRANCH   4   3
ATOM      1  C   UNL     1      50.804  -3.350  32.374  0.00  0.00    +0.020 A 
ATOM      2  C   UNL     1      51.201  -3.841  31.074  0.00  0.00    +0.013 A 
ATOM      3  C   UNL     1      50.378  -4.809  30.361  0.00  0.00    +0.019 A 
ATOM     38  C   UNL     1      49.149  -5.263  30.995  0.00  0.00    +0.120 A 
ATOM     39  N   UNL     1      48.793  -4.773  32.247  0.00  0.00    -0.263 NA
ATOM     40  C   UNL     1      49.578  -3.842  32.944  0.00  0.00    +0.111 A 
ENDBRANCH   4   3
ENDBRANCH  10   9
BRANCH  12  13
ATOM     13  N   UNL     1      50.155 -11.618  24.020  0.00  0.00    -0.281 N 
ATOM     14  C   UNL     1      49.789 -12.936  24.244  0.00  0.00    +0.248 C 
ATOM     30  O   UNL     1      50.407 -13.713  24.957  0.00  0.00    -0.270 OA
ATOM     31  H   UNL     1      49.670 -11.142  23.259  0.00  0.00    +0.155 HD
BRANCH  14  15
ATOM     15  C   UNL     1      48.568 -13.471  23.569  0.00  0.00    +0.037 A 
ATOM     16  C   UNL     1      47.689 -12.599  22.786  0.00  0.00    +0.013 A 
ATOM     17  C   UNL     1      46.508 -13.138  22.158  0.00  0.00    +0.005 A 
ATOM     18  C   UNL     1      46.201 -14.558  22.310  0.00  0.00    -0.033 A 
ATOM     28  C   UNL     1      47.093 -15.401  23.088  0.00  0.00    +0.005 A 
ATOM     29  C   UNL     1      48.251 -14.876  23.706  0.00  0.00    +0.013 A 
BRANCH  18  19
ATOM     19  C   UNL     1      44.952 -15.214  21.693  0.00  0.00    +0.119 C 
BRANCH  19  20
ATOM     20  N   UNL     1      44.461 -14.664  20.395  0.00  0.00    -0.302 NA
ATOM     21  C   UNL     1      43.066 -15.186  20.040  0.00  0.00    +0.066 C 
ATOM     22  C   UNL     1      42.559 -14.583  18.689  0.00  0.00    -0.064 C 
ATOM     23  N   UNL     1      43.559 -14.912  17.579  0.00  0.00    +0.379 N 
ATOM     24  C   UNL     1      43.057 -14.396  16.298  0.00  0.00    -0.096 C 
ATOM     25  H   UNL     1      43.620 -16.022  17.497  0.00  0.00    -0.082 HD
ATOM     26  C   UNL     1      44.950 -14.398  17.926  0.00  0.00    -0.064 C 
ATOM     27  C   UNL     1      45.432 -14.981  19.284  0.00  0.00    +0.066 C 
ENDBRANCH  19  20
ENDBRANCH  18  19
ENDBRANCH  14  15
ENDBRANCH  12  13
TORSDOF 6
ENDMDL
