MODEL 1
REMARK VINA RESULT:      -8.8      0.000      0.000
REMARK  Name = C:\Users\Docking\Desktop\test protocol\1iep_ligandH.pdb
REMARK  8 active torsions:
REMARK  status: ('A' for Active; 'I' for Inactive)
REMARK    1  A    between atoms: _5  and  _11
REMARK    2  A    between atoms: _19  and  _21
REMARK    3  A    between atoms: _22  and  _66
REMARK    4  A    between atoms: _27  and  _30
REMARK    5  A    between atoms: _32  and  _33
REMARK    6  A    between atoms: _38  and  _43
REMARK    7  A    between atoms: _43  and  _46
REMARK    8  A    between atoms: _53  and  _55
REMARK                            x       y       z     vdW  Elec       q    Type
REMARK                         _______ _______ _______ _____ _____    ______ ____
ROOT
ATOM     10  C   UNL     1      19.585 -17.588 -18.955  0.00  0.00    +0.038 A 
ATOM     11  C   UNL     1      18.235 -17.783 -18.565  0.00  0.00    +0.047 A 
ATOM     12  C   UNL     1      17.673 -19.118 -18.441  0.00  0.00    +0.035 A 
ATOM     32  C   UNL     1      18.516 -20.234 -18.718  0.00  0.00    +0.024 A 
ATOM     33  C   UNL     1      19.890 -20.055 -19.117  0.00  0.00    +0.007 A 
ATOM     34  C   UNL     1      20.449 -18.739 -19.243  0.00  0.00    -0.029 A 
ATOM     35  C   UNL     1      21.926 -18.606 -19.680  0.00  0.00    +0.045 C 
ENDROOT
BRANCH  10   9
ATOM      4  C   UNL     1      20.441 -13.574 -21.443  0.00  0.00    +0.077 A 
ATOM      5  C   UNL     1      19.895 -14.133 -22.646  0.00  0.00    +0.048 A 
ATOM      6  C   UNL     1      19.410 -15.459 -22.584  0.00  0.00    +0.116 A 
ATOM      7  N   UNL     1      19.473 -16.164 -21.402  0.00  0.00    -0.223 NA
ATOM      8  C   UNL     1      20.007 -15.596 -20.260  0.00  0.00    +0.220 A 
ATOM      9  N   UNL     1      20.073 -16.283 -19.058  0.00  0.00    -0.283 N 
ATOM     36  H   UNL     1      20.481 -15.831 -18.240  0.00  0.00    +0.155 HD
ATOM     37  N   UNL     1      20.478 -14.331 -20.294  0.00  0.00    -0.214 NA
BRANCH   4   3
ATOM      1  C   UNL     1      22.313 -10.236 -22.253  0.00  0.00    +0.020 A 
ATOM      2  C   UNL     1      21.809 -11.583 -22.394  0.00  0.00    +0.013 A 
ATOM      3  C   UNL     1      20.989 -12.184 -21.349  0.00  0.00    +0.019 A 
ATOM     38  C   UNL     1      20.696 -11.389 -20.166  0.00  0.00    +0.120 A 
ATOM     39  N   UNL     1      21.196 -10.096 -20.058  0.00  0.00    -0.263 NA
ATOM     40  C   UNL     1      21.987  -9.507 -21.056  0.00  0.00    +0.111 A 
ENDBRANCH   4   3
ENDBRANCH  10   9
BRANCH  12  13
ATOM     13  N   UNL     1      16.308 -19.378 -18.057  0.00  0.00    -0.281 N 
ATOM     14  C   UNL     1      15.851 -20.027 -16.922  0.00  0.00    +0.248 C 
ATOM     30  O   UNL     1      16.558 -20.676 -16.165  0.00  0.00    -0.270 OA
ATOM     31  H   UNL     1      15.591 -19.042 -18.700  0.00  0.00    +0.155 HD
BRANCH  14  15
ATOM     15  C   UNL     1      14.396 -19.959 -16.587  0.00  0.00    +0.037 A 
ATOM     16  C   UNL     1      13.370 -20.255 -17.590  0.00  0.00    +0.013 A 
ATOM     17  C   UNL     1      11.974 -20.164 -17.246  0.00  0.00    +0.005 A 
ATOM     18  C   UNL     1      11.594 -19.777 -15.889  0.00  0.00    -0.033 A 
ATOM     28  C   UNL     1      12.632 -19.494 -14.912  0.00  0.00    +0.005 A 
ATOM     29  C   UNL     1      14.002 -19.580 -15.246  0.00  0.00    +0.013 A 
BRANCH  18  19
ATOM     19  C   UNL     1      10.128 -19.635 -15.439  0.00  0.00    +0.119 C 
BRANCH  19  20
ATOM     20  N   UNL     1       9.664 -20.523 -14.332  0.00  0.00    -0.302 NA
ATOM     21  C   UNL     1       9.586 -21.989 -14.766  0.00  0.00    +0.066 C 
ATOM     22  C   UNL     1       9.120 -22.907 -13.589  0.00  0.00    -0.064 C 
ATOM     23  N   UNL     1       7.764 -22.423 -13.074  0.00  0.00    +0.379 N 
ATOM     24  C   UNL     1       7.296 -23.318 -12.007  0.00  0.00    -0.096 C 
ATOM     25  H   UNL     1       7.038 -22.492 -13.917  0.00  0.00    -0.082 HD
ATOM     26  C   UNL     1       7.831 -20.964 -12.643  0.00  0.00    -0.064 C 
ATOM     27  C   UNL     1       8.324 -20.065 -13.811  0.00  0.00    +0.066 C 
ENDBRANCH  19  20
ENDBRANCH  18  19
ENDBRANCH  14  15
ENDBRANCH  12  13
TORSDOF 6
ENDMDL
MODEL 2
REMARK VINA RESULT:      -8.5      1.599      2.454
REMARK  Name = C:\Users\Docking\Desktop\test protocol\1iep_ligandH.pdb
REMARK  8 active torsions:
REMARK  status: ('A' for Active; 'I' for Inactive)
REMARK    1  A    between atoms: _5  and  _11
REMARK    2  A    between atoms: _19  and  _21
REMARK    3  A    between atoms: _22  and  _66
REMARK    4  A    between atoms: _27  and  _30
REMARK    5  A    between atoms: _32  and  _33
REMARK    6  A    between atoms: _38  and  _43
REMARK    7  A    between atoms: _43  and  _46
REMARK    8  A    between atoms: _53  and  _55
REMARK                            x       y       z     vdW  Elec       q    Type
REMARK                         _______ _______ _______ _____ _____    ______ ____
ROOT
ATOM     10  C   UNL     1      19.529 -17.481 -19.061  0.00  0.00    +0.038 A 
ATOM     11  C   UNL     1      18.217 -17.667 -18.554  0.00  0.00    +0.047 A 
ATOM     12  C   UNL     1      17.633 -18.994 -18.445  0.00  0.00    +0.035 A 
ATOM     32  C   UNL     1      18.415 -20.112 -18.858  0.00  0.00    +0.024 A 
ATOM     33  C   UNL     1      19.750 -19.942 -19.376  0.00  0.00    +0.007 A 
ATOM     34  C   UNL     1      20.330 -18.635 -19.488  0.00  0.00    -0.029 A 
ATOM     35  C   UNL     1      21.763 -18.511 -20.057  0.00  0.00    +0.045 C 
ENDROOT
BRANCH  10   9
ATOM      4  C   UNL     1      20.480 -13.455 -21.493  0.00  0.00    +0.077 A 
ATOM      5  C   UNL     1      19.937 -13.990 -22.708  0.00  0.00    +0.048 A 
ATOM      6  C   UNL     1      19.430 -15.308 -22.667  0.00  0.00    +0.116 A 
ATOM      7  N   UNL     1      19.467 -16.028 -21.492  0.00  0.00    -0.223 NA
ATOM      8  C   UNL     1      19.999 -15.482 -20.338  0.00  0.00    +0.220 A 
ATOM      9  N   UNL     1      20.040 -16.184 -19.144  0.00  0.00    -0.283 N 
ATOM     36  H   UNL     1      20.448 -15.749 -18.317  0.00  0.00    +0.155 HD
ATOM     37  N   UNL     1      20.492 -14.226 -20.352  0.00  0.00    -0.214 NA
BRANCH   4   3
ATOM      1  C   UNL     1      22.405 -10.135 -22.251  0.00  0.00    +0.020 A 
ATOM      2  C   UNL     1      21.879 -11.471 -22.413  0.00  0.00    +0.013 A 
ATOM      3  C   UNL     1      21.051 -12.076 -21.377  0.00  0.00    +0.019 A 
ATOM     38  C   UNL     1      20.772 -11.296 -20.181  0.00  0.00    +0.120 A 
ATOM     39  N   UNL     1      21.294 -10.012 -20.052  0.00  0.00    -0.263 NA
ATOM     40  C   UNL     1      22.093  -9.421 -21.042  0.00  0.00    +0.111 A 
ENDBRANCH   4   3
ENDBRANCH  10   9
BRANCH  12  13
ATOM     13  N   UNL     1      16.304 -19.243 -17.946  0.00  0.00    -0.281 N 
ATOM     14  C   UNL     1      15.922 -20.105 -16.931  0.00  0.00    +0.248 C 
ATOM     30  O   UNL     1      16.648 -20.957 -16.438  0.00  0.00    -0.270 OA
ATOM     31  H   UNL     1      15.552 -18.720 -18.396  0.00  0.00    +0.155 HD
BRANCH  14  15
ATOM     15  C   UNL     1      14.530 -20.019 -16.395  0.00  0.00    +0.037 A 
ATOM     16  C   UNL     1      13.372 -20.350 -17.229  0.00  0.00    +0.013 A 
ATOM     17  C   UNL     1      12.039 -20.242 -16.693  0.00  0.00    +0.005 A 
ATOM     18  C   UNL     1      11.856 -19.800 -15.312  0.00  0.00    -0.033 A 
ATOM     28  C   UNL     1      13.022 -19.483 -14.505  0.00  0.00    +0.005 A 
ATOM     29  C   UNL     1      14.331 -19.587 -15.028  0.00  0.00    +0.013 A 
BRANCH  18  19
ATOM     19  C   UNL     1      10.469 -19.635 -14.663  0.00  0.00    +0.119 C 
BRANCH  19  20
ATOM     20  N   UNL     1       9.673 -18.432 -15.048  0.00  0.00    -0.302 NA
ATOM     21  C   UNL     1      10.151 -17.171 -14.322  0.00  0.00    +0.066 C 
ATOM     22  C   UNL     1       9.322 -15.917 -14.753  0.00  0.00    -0.064 C 
ATOM     23  N   UNL     1       7.839 -16.171 -14.478  0.00  0.00    +0.379 N 
ATOM     24  C   UNL     1       7.064 -14.972 -14.829  0.00  0.00    -0.096 C 
ATOM     25  H   UNL     1       7.723 -16.341 -13.383  0.00  0.00    -0.082 HD
ATOM     26  C   UNL     1       7.356 -17.424 -15.194  0.00  0.00    -0.064 C 
ATOM     27  C   UNL     1       8.205 -18.659 -14.781  0.00  0.00    +0.066 C 
ENDBRANCH  19  20
ENDBRANCH  18  19
ENDBRANCH  14  15
ENDBRANCH  12  13
TORSDOF 6
ENDMDL
MODEL 3
REMARK VINA RESULT:      -8.2      4.251     12.175
REMARK  Name = C:\Users\Docking\Desktop\test protocol\1iep_ligandH.pdb
REMARK  8 active torsions:
REMARK  status: ('A' for Active; 'I' for Inactive)
REMARK    1  A    between atoms: _5  and  _11
REMARK    2  A    between atoms: _19  and  _21
REMARK    3  A    between atoms: _22  and  _66
REMARK    4  A    between atoms: _27  and  _30
REMARK    5  A    between atoms: _32  and  _33
REMARK    6  A    between atoms: _38  and  _43
REMARK    7  A    between atoms: _43  and  _46
REMARK    8  A    between atoms: _53  and  _55
REMARK                            x       y       z     vdW  Elec       q    Type
REMARK                         _______ _______ _______ _____ _____    ______ ____
ROOT
ATOM     10  C   UNL     1      12.734 -19.991 -14.611  0.00  0.00    +0.038 A 
ATOM     11  C   UNL     1      13.927 -19.707 -15.324  0.00  0.00    +0.047 A 
ATOM     12  C   UNL     1      14.892 -20.754 -15.622  0.00  0.00    +0.035 A 
ATOM     32  C   UNL     1      14.609 -22.080 -15.182  0.00  0.00    +0.024 A 
ATOM     33  C   UNL     1      13.401 -22.385 -14.456  0.00  0.00    +0.007 A 
ATOM     34  C   UNL     1      12.447 -21.356 -14.156  0.00  0.00    -0.029 A 
ATOM     35  C   UNL     1      11.173 -21.740 -13.369  0.00  0.00    +0.045 C 
ENDROOT
BRANCH  10   9
ATOM      4  C   UNL     1       9.268 -16.954 -15.953  0.00  0.00    +0.077 A 
ATOM      5  C   UNL     1       9.251 -17.472 -17.291  0.00  0.00    +0.048 A 
ATOM      6  C   UNL     1      10.154 -18.514 -17.595  0.00  0.00    +0.116 A 
ATOM      7  N   UNL     1      11.007 -18.996 -16.625  0.00  0.00    -0.223 NA
ATOM      8  C   UNL     1      10.999 -18.473 -15.345  0.00  0.00    +0.220 A 
ATOM      9  N   UNL     1      11.843 -18.947 -14.352  0.00  0.00    -0.283 N 
ATOM     36  H   UNL     1      11.812 -18.530 -13.422  0.00  0.00    +0.155 HD
ATOM     37  N   UNL     1      10.147 -17.476 -15.030  0.00  0.00    -0.214 NA
BRANCH   4   3
ATOM      1  C   UNL     1       7.612 -14.175 -13.754  0.00  0.00    +0.020 A 
ATOM      2  C   UNL     1       8.504 -15.234 -14.165  0.00  0.00    +0.013 A 
ATOM      3  C   UNL     1       8.371 -15.854 -15.477  0.00  0.00    +0.019 A 
ATOM     38  C   UNL     1       7.316 -15.374 -16.358  0.00  0.00    +0.120 A 
ATOM     39  N   UNL     1       6.471 -14.353 -15.934  0.00  0.00    -0.263 NA
ATOM     40  C   UNL     1       6.588 -13.750 -14.673  0.00  0.00    +0.111 A 
ENDBRANCH   4   3
ENDBRANCH  10   9
BRANCH  12  13
ATOM     13  N   UNL     1      16.125 -20.524 -16.335  0.00  0.00    -0.281 N 
ATOM     14  C   UNL     1      16.288 -20.007 -17.609  0.00  0.00    +0.248 C 
ATOM     30  O   UNL     1      15.382 -19.862 -18.417  0.00  0.00    -0.270 OA
ATOM     31  H   UNL     1      16.981 -20.773 -15.839  0.00  0.00    +0.155 HD
BRANCH  14  15
ATOM     15  C   UNL     1      17.657 -19.608 -18.057  0.00  0.00    +0.037 A 
ATOM     16  C   UNL     1      17.928 -18.258 -18.560  0.00  0.00    +0.013 A 
ATOM     17  C   UNL     1      19.254 -17.904 -19.001  0.00  0.00    +0.005 A 
ATOM     18  C   UNL     1      20.319 -18.902 -18.940  0.00  0.00    -0.033 A 
ATOM     28  C   UNL     1      20.024 -20.231 -18.432  0.00  0.00    +0.005 A 
ATOM     29  C   UNL     1      18.725 -20.582 -17.999  0.00  0.00    +0.013 A 
BRANCH  18  19
ATOM     19  C   UNL     1      21.759 -18.618 -19.409  0.00  0.00    +0.119 C 
BRANCH  19  20
ATOM     20  N   UNL     1      22.357 -19.568 -20.393  0.00  0.00    -0.302 NA
ATOM     21  C   UNL     1      23.844 -19.813 -20.124  0.00  0.00    +0.066 C 
ATOM     22  C   UNL     1      24.449 -20.827 -21.149  0.00  0.00    -0.064 C 
ATOM     23  N   UNL     1      24.235 -20.301 -22.570  0.00  0.00    +0.379 N 
ATOM     24  C   UNL     1      24.853 -21.224 -23.533  0.00  0.00    -0.096 C 
ATOM     25  H   UNL     1      24.763 -19.323 -22.651  0.00  0.00    -0.082 HD
ATOM     26  C   UNL     1      22.758 -20.053 -22.844  0.00  0.00    -0.064 C 
ATOM     27  C   UNL     1      22.160 -19.067 -21.803  0.00  0.00    +0.066 C 
ENDBRANCH  19  20
ENDBRANCH  18  19
ENDBRANCH  14  15
ENDBRANCH  12  13
TORSDOF 6
ENDMDL
MODEL 4
REMARK VINA RESULT:      -8.2      3.582     12.400
REMARK  Name = C:\Users\Docking\Desktop\test protocol\1iep_ligandH.pdb
REMARK  8 active torsions:
REMARK  status: ('A' for Active; 'I' for Inactive)
REMARK    1  A    between atoms: _5  and  _11
REMARK    2  A    between atoms: _19  and  _21
REMARK    3  A    between atoms: _22  and  _66
REMARK    4  A    between atoms: _27  and  _30
REMARK    5  A    between atoms: _32  and  _33
REMARK    6  A    between atoms: _38  and  _43
REMARK    7  A    between atoms: _43  and  _46
REMARK    8  A    between atoms: _53  and  _55
REMARK                            x       y       z     vdW  Elec       q    Type
REMARK                         _______ _______ _______ _____ _____    ______ ____
ROOT
ATOM     10  C   UNL     1       9.133 -20.277 -14.183  0.00  0.00    +0.038 A 
ATOM     11  C   UNL     1      10.347 -20.190 -14.910  0.00  0.00    +0.047 A 
ATOM     12  C   UNL     1      11.456 -21.091 -14.635  0.00  0.00    +0.035 A 
ATOM     32  C   UNL     1      11.291 -22.071 -13.612  0.00  0.00    +0.024 A 
ATOM     33  C   UNL     1      10.064 -22.173 -12.863  0.00  0.00    +0.007 A 
ATOM     34  C   UNL     1       8.968 -21.285 -13.128  0.00  0.00    -0.029 A 
ATOM     35  C   UNL     1       7.679 -21.435 -12.289  0.00  0.00    +0.045 C 
ENDROOT
BRANCH  10   9
ATOM      4  C   UNL     1       7.446 -15.843 -14.911  0.00  0.00    +0.077 A 
ATOM      5  C   UNL     1       8.721 -15.248 -14.631  0.00  0.00    +0.048 A 
ATOM      6  C   UNL     1       9.784 -16.118 -14.297  0.00  0.00    +0.116 A 
ATOM      7  N   UNL     1       9.575 -17.479 -14.249  0.00  0.00    -0.223 NA
ATOM      8  C   UNL     1       8.332 -18.020 -14.523  0.00  0.00    +0.220 A 
ATOM      9  N   UNL     1       8.101 -19.386 -14.489  0.00  0.00    -0.283 N 
ATOM     36  H   UNL     1       7.168 -19.745 -14.690  0.00  0.00    +0.155 HD
ATOM     37  N   UNL     1       7.301 -17.210 -14.843  0.00  0.00    -0.214 NA
BRANCH   4   3
ATOM      1  C   UNL     1       4.767 -13.003 -15.155  0.00  0.00    +0.020 A 
ATOM      2  C   UNL     1       5.959 -13.720 -14.765  0.00  0.00    +0.013 A 
ATOM      3  C   UNL     1       6.227 -15.056 -15.282  0.00  0.00    +0.019 A 
ATOM     38  C   UNL     1       5.262 -15.643 -16.200  0.00  0.00    +0.120 A 
ATOM     39  N   UNL     1       4.123 -14.929 -16.557  0.00  0.00    -0.263 NA
ATOM     40  C   UNL     1       3.853 -13.644 -16.064  0.00  0.00    +0.111 A 
ENDBRANCH   4   3
ENDBRANCH  10   9
BRANCH  12  13
ATOM     13  N   UNL     1      12.715 -21.045 -15.335  0.00  0.00    -0.281 N 
ATOM     14  C   UNL     1      12.928 -20.893 -16.695  0.00  0.00    +0.248 C 
ATOM     30  O   UNL     1      12.056 -20.988 -17.546  0.00  0.00    -0.270 OA
ATOM     31  H   UNL     1      13.551 -21.136 -14.758  0.00  0.00    +0.155 HD
BRANCH  14  15
ATOM     15  C   UNL     1      14.313 -20.609 -17.182  0.00  0.00    +0.037 A 
ATOM     16  C   UNL     1      14.605 -20.486 -18.612  0.00  0.00    +0.013 A 
ATOM     17  C   UNL     1      15.952 -20.228 -19.055  0.00  0.00    +0.005 A 
ATOM     18  C   UNL     1      17.018 -20.091 -18.066  0.00  0.00    -0.033 A 
ATOM     28  C   UNL     1      16.699 -20.212 -16.653  0.00  0.00    +0.005 A 
ATOM     29  C   UNL     1      15.380 -20.466 -16.215  0.00  0.00    +0.013 A 
BRANCH  18  19
ATOM     19  C   UNL     1      18.488 -19.836 -18.449  0.00  0.00    +0.119 C 
BRANCH  19  20
ATOM     20  N   UNL     1      18.776 -18.641 -19.296  0.00  0.00    -0.302 NA
ATOM     21  C   UNL     1      20.267 -18.515 -19.623  0.00  0.00    +0.066 C 
ATOM     22  C   UNL     1      20.548 -17.272 -20.529  0.00  0.00    -0.064 C 
ATOM     23  N   UNL     1      20.037 -16.010 -19.831  0.00  0.00    +0.379 N 
ATOM     24  C   UNL     1      20.352 -14.833 -20.654  0.00  0.00    -0.096 C 
ATOM     25  H   UNL     1      20.592 -15.908 -18.869  0.00  0.00    -0.082 HD
ATOM     26  C   UNL     1      18.556 -16.128 -19.500  0.00  0.00    -0.064 C 
ATOM     27  C   UNL     1      18.284 -17.383 -18.624  0.00  0.00    +0.066 C 
ENDBRANCH  19  20
ENDBRANCH  18  19
ENDBRANCH  14  15
ENDBRANCH  12  13
TORSDOF 6
ENDMDL
MODEL 5
REMARK VINA RESULT:      -8.2      3.653     12.617
REMARK  Name = C:\Users\Docking\Desktop\test protocol\1iep_ligandH.pdb
REMARK  8 active torsions:
REMARK  status: ('A' for Active; 'I' for Inactive)
REMARK    1  A    between atoms: _5  and  _11
REMARK    2  A    between atoms: _19  and  _21
REMARK    3  A    between atoms: _22  and  _66
REMARK    4  A    between atoms: _27  and  _30
REMARK    5  A    between atoms: _32  and  _33
REMARK    6  A    between atoms: _38  and  _43
REMARK    7  A    between atoms: _43  and  _46
REMARK    8  A    between atoms: _53  and  _55
REMARK                            x       y       z     vdW  Elec       q    Type
REMARK                         _______ _______ _______ _____ _____    ______ ____
ROOT
ATOM     10  C   UNL     1       8.996 -20.252 -14.247  0.00  0.00    +0.038 A 
ATOM     11  C   UNL     1      10.177 -20.187 -15.029  0.00  0.00    +0.047 A 
ATOM     12  C   UNL     1      11.303 -21.071 -14.768  0.00  0.00    +0.035 A 
ATOM     32  C   UNL     1      11.190 -22.011 -13.702  0.00  0.00    +0.024 A 
ATOM     33  C   UNL     1       9.997 -22.090 -12.896  0.00  0.00    +0.007 A 
ATOM     34  C   UNL     1       8.885 -21.219 -13.148  0.00  0.00    -0.029 A 
ATOM     35  C   UNL     1       7.634 -21.343 -12.248  0.00  0.00    +0.045 C 
ENDROOT
BRANCH  10   9
ATOM      4  C   UNL     1       7.223 -15.847 -14.949  0.00  0.00    +0.077 A 
ATOM      5  C   UNL     1       8.490 -15.230 -14.679  0.00  0.00    +0.048 A 
ATOM      6  C   UNL     1       9.571 -16.081 -14.356  0.00  0.00    +0.116 A 
ATOM      7  N   UNL     1       9.387 -17.446 -14.310  0.00  0.00    -0.223 NA
ATOM      8  C   UNL     1       8.152 -18.009 -14.575  0.00  0.00    +0.220 A 
ATOM      9  N   UNL     1       7.946 -19.380 -14.542  0.00  0.00    -0.283 N 
ATOM     36  H   UNL     1       7.018 -19.755 -14.736  0.00  0.00    +0.155 HD
ATOM     37  N   UNL     1       7.103 -17.218 -14.884  0.00  0.00    -0.214 NA
BRANCH   4   3
ATOM      1  C   UNL     1       4.533 -13.022 -15.237  0.00  0.00    +0.020 A 
ATOM      2  C   UNL     1       5.744 -13.716 -14.862  0.00  0.00    +0.013 A 
ATOM      3  C   UNL     1       5.987 -15.082 -15.308  0.00  0.00    +0.019 A 
ATOM     38  C   UNL     1       4.978 -15.722 -16.139  0.00  0.00    +0.120 A 
ATOM     39  N   UNL     1       3.822 -15.029 -16.483  0.00  0.00    -0.263 NA
ATOM     40  C   UNL     1       3.576 -13.715 -16.058  0.00  0.00    +0.111 A 
ENDBRANCH   4   3
ENDBRANCH  10   9
BRANCH  12  13
ATOM     13  N   UNL     1      12.531 -21.045 -15.524  0.00  0.00    -0.281 N 
ATOM     14  C   UNL     1      13.565 -20.127 -15.438  0.00  0.00    +0.248 C 
ATOM     30  O   UNL     1      13.495 -19.061 -14.845  0.00  0.00    -0.270 OA
ATOM     31  H   UNL     1      12.652 -21.795 -16.205  0.00  0.00    +0.155 HD
BRANCH  14  15
ATOM     15  C   UNL     1      14.858 -20.431 -16.122  0.00  0.00    +0.037 A 
ATOM     16  C   UNL     1      15.987 -21.012 -15.390  0.00  0.00    +0.013 A 
ATOM     17  C   UNL     1      17.229 -21.279 -16.070  0.00  0.00    +0.005 A 
ATOM     18  C   UNL     1      17.349 -20.967 -17.492  0.00  0.00    -0.033 A 
ATOM     28  C   UNL     1      16.212 -20.396 -18.195  0.00  0.00    +0.005 A 
ATOM     29  C   UNL     1      14.993 -20.131 -17.531  0.00  0.00    +0.013 A 
BRANCH  18  19
ATOM     19  C   UNL     1      18.644 -21.199 -18.293  0.00  0.00    +0.119 C 
BRANCH  19  20
ATOM     20  N   UNL     1      19.339 -19.993 -18.833  0.00  0.00    -0.302 NA
ATOM     21  C   UNL     1      19.146 -19.847 -20.345  0.00  0.00    +0.066 C 
ATOM     22  C   UNL     1      19.862 -18.568 -20.889  0.00  0.00    -0.064 C 
ATOM     23  N   UNL     1      21.349 -18.630 -20.537  0.00  0.00    +0.379 N 
ATOM     24  C   UNL     1      22.036 -17.457 -21.097  0.00  0.00    -0.096 C 
ATOM     25  H   UNL     1      21.775 -19.537 -21.026  0.00  0.00    -0.082 HD
ATOM     26  C   UNL     1      21.550 -18.778 -19.035  0.00  0.00    -0.064 C 
ATOM     27  C   UNL     1      20.811 -20.036 -18.500  0.00  0.00    +0.066 C 
ENDBRANCH  19  20
ENDBRANCH  18  19
ENDBRANCH  14  15
ENDBRANCH  12  13
TORSDOF 6
ENDMDL
