MODEL 1
REMARK VINA RESULT:      -7.9      0.000      0.000
REMARK  Name = C:\Users\Docking\Desktop\test protocol\1iep_ligandH.pdb
REMARK  8 active torsions:
REMARK  status: ('A' for Active; 'I' for Inactive)
REMARK    1  A    between atoms: _5  and  _11
REMARK    2  A    between atoms: _19  and  _21
REMARK    3  A    between atoms: _22  and  _66
REMARK    4  A    between atoms: _27  and  _30
REMARK    5  A    between atoms: _32  and  _33
REMARK    6  A    between atoms: _38  and  _43
REMARK    7  A    between atoms: _43  and  _46
REMARK    8  A    between atoms: _53  and  _55
REMARK                            x       y       z     vdW  Elec       q    Type
REMARK                         _______ _______ _______ _____ _____    ______ ____
ROOT
ATOM     10  C   UNL     1     -17.015  32.562  -6.590  0.00  0.00    +0.038 A 
ATOM     11  C   UNL     1     -16.435  32.607  -5.297  0.00  0.00    +0.047 A 
ATOM     12  C   UNL     1     -17.113  33.265  -4.191  0.00  0.00    +0.035 A 
ATOM     32  C   UNL     1     -18.382  33.866  -4.438  0.00  0.00    +0.024 A 
ATOM     33  C   UNL     1     -18.985  33.830  -5.747  0.00  0.00    +0.007 A 
ATOM     34  C   UNL     1     -18.320  33.185  -6.842  0.00  0.00    -0.029 A 
ATOM     35  C   UNL     1     -19.011  33.183  -8.226  0.00  0.00    +0.045 C 
ENDROOT
BRANCH  10   9
ATOM      4  C   UNL     1     -15.833  28.635  -9.083  0.00  0.00    +0.077 A 
ATOM      5  C   UNL     1     -16.648  27.792  -8.256  0.00  0.00    +0.048 A 
ATOM      6  C   UNL     1     -17.350  28.408  -7.195  0.00  0.00    +0.116 A 
ATOM      7  N   UNL     1     -17.238  29.766  -6.987  0.00  0.00    -0.223 NA
ATOM      8  C   UNL     1     -16.441  30.549  -7.802  0.00  0.00    +0.220 A 
ATOM      9  N   UNL     1     -16.319  31.917  -7.616  0.00  0.00    -0.283 N 
ATOM     36  H   UNL     1     -15.716  32.459  -8.234  0.00  0.00    +0.155 HD
ATOM     37  N   UNL     1     -15.760  29.984  -8.821  0.00  0.00    -0.214 NA
BRANCH   4   3
ATOM      1  C   UNL     1     -12.914  27.991 -11.607  0.00  0.00    +0.020 A 
ATOM      2  C   UNL     1     -13.642  28.505 -10.469  0.00  0.00    +0.013 A 
ATOM      3  C   UNL     1     -15.033  28.133 -10.245  0.00  0.00    +0.019 A 
ATOM     38  C   UNL     1     -15.664  27.232 -11.198  0.00  0.00    +0.120 A 
ATOM     39  N   UNL     1     -14.939  26.754 -12.285  0.00  0.00    -0.263 NA
ATOM     40  C   UNL     1     -13.600  27.107 -12.512  0.00  0.00    +0.111 A 
ENDBRANCH   4   3
ENDBRANCH  10   9
BRANCH  12  13
ATOM     13  N   UNL     1     -16.570  33.350  -2.858  0.00  0.00    -0.281 N 
ATOM     14  C   UNL     1     -16.520  32.355  -1.894  0.00  0.00    +0.248 C 
ATOM     30  O   UNL     1     -17.129  31.298  -1.959  0.00  0.00    -0.270 OA
ATOM     31  H   UNL     1     -16.175  34.252  -2.592  0.00  0.00    +0.155 HD
BRANCH  14  15
ATOM     15  C   UNL     1     -15.682  32.572  -0.676  0.00  0.00    +0.037 A 
ATOM     16  C   UNL     1     -15.788  33.804   0.110  0.00  0.00    +0.013 A 
ATOM     17  C   UNL     1     -14.956  33.995   1.271  0.00  0.00    +0.005 A 
ATOM     18  C   UNL     1     -14.010  32.950   1.654  0.00  0.00    -0.033 A 
ATOM     28  C   UNL     1     -13.928  31.736   0.860  0.00  0.00    +0.005 A 
ATOM     29  C   UNL     1     -14.742  31.545  -0.280  0.00  0.00    +0.013 A 
BRANCH  18  19
ATOM     19  C   UNL     1     -13.067  33.078   2.866  0.00  0.00    +0.119 C 
BRANCH  19  20
ATOM     20  N   UNL     1     -13.356  34.169   3.844  0.00  0.00    -0.302 NA
ATOM     21  C   UNL     1     -12.164  34.444   4.766  0.00  0.00    +0.066 C 
ATOM     22  C   UNL     1     -12.475  35.603   5.768  0.00  0.00    -0.064 C 
ATOM     23  N   UNL     1     -13.720  35.248   6.583  0.00  0.00    +0.379 N 
ATOM     24  C   UNL     1     -13.981  36.310   7.566  0.00  0.00    -0.096 C 
ATOM     25  H   UNL     1     -13.499  34.312   7.147  0.00  0.00    -0.082 HD
ATOM     26  C   UNL     1     -14.909  34.971   5.675  0.00  0.00    -0.064 C 
ATOM     27  C   UNL     1     -14.579  33.837   4.663  0.00  0.00    +0.066 C 
ENDBRANCH  19  20
ENDBRANCH  18  19
ENDBRANCH  14  15
ENDBRANCH  12  13
TORSDOF 6
ENDMDL
MODEL 2
REMARK VINA RESULT:      -7.9     23.623     25.651
REMARK  Name = C:\Users\Docking\Desktop\test protocol\1iep_ligandH.pdb
REMARK  8 active torsions:
REMARK  status: ('A' for Active; 'I' for Inactive)
REMARK    1  A    between atoms: _5  and  _11
REMARK    2  A    between atoms: _19  and  _21
REMARK    3  A    between atoms: _22  and  _66
REMARK    4  A    between atoms: _27  and  _30
REMARK    5  A    between atoms: _32  and  _33
REMARK    6  A    between atoms: _38  and  _43
REMARK    7  A    between atoms: _43  and  _46
REMARK    8  A    between atoms: _53  and  _55
REMARK                            x       y       z     vdW  Elec       q    Type
REMARK                         _______ _______ _______ _____ _____    ______ ____
ROOT
ATOM     10  C   UNL     1      -1.654  11.807   1.938  0.00  0.00    +0.038 A 
ATOM     11  C   UNL     1      -2.742  12.183   2.768  0.00  0.00    +0.047 A 
ATOM     12  C   UNL     1      -4.025  12.565   2.199  0.00  0.00    +0.035 A 
ATOM     32  C   UNL     1      -4.167  12.550   0.781  0.00  0.00    +0.024 A 
ATOM     33  C   UNL     1      -3.072  12.172  -0.077  0.00  0.00    +0.007 A 
ATOM     34  C   UNL     1      -1.803  11.796   0.478  0.00  0.00    -0.029 A 
ATOM     35  C   UNL     1      -0.662  11.406  -0.490  0.00  0.00    +0.045 C 
ENDROOT
BRANCH  10   9
ATOM      4  C   UNL     1       1.318   8.570   3.868  0.00  0.00    +0.077 A 
ATOM      5  C   UNL     1       0.371   7.508   3.693  0.00  0.00    +0.048 A 
ATOM      6  C   UNL     1      -0.873   7.837   3.108  0.00  0.00    +0.116 A 
ATOM      7  N   UNL     1      -1.138   9.136   2.731  0.00  0.00    -0.223 NA
ATOM      8  C   UNL     1      -0.202  10.137   2.916  0.00  0.00    +0.220 A 
ATOM      9  N   UNL     1      -0.445  11.449   2.538  0.00  0.00    -0.283 N 
ATOM     36  H   UNL     1       0.268  12.160   2.698  0.00  0.00    +0.155 HD
ATOM     37  N   UNL     1       0.992   9.848   3.474  0.00  0.00    -0.214 NA
BRANCH   4   3
ATOM      1  C   UNL     1       4.266   7.310   6.110  0.00  0.00    +0.020 A 
ATOM      2  C   UNL     1       2.935   7.457   5.567  0.00  0.00    +0.013 A 
ATOM      3  C   UNL     1       2.677   8.380   4.469  0.00  0.00    +0.019 A 
ATOM     38  C   UNL     1       3.795   9.144   3.938  0.00  0.00    +0.120 A 
ATOM     39  N   UNL     1       5.066   8.983   4.482  0.00  0.00    -0.263 NA
ATOM     40  C   UNL     1       5.326   8.099   5.540  0.00  0.00    +0.111 A 
ENDBRANCH   4   3
ENDBRANCH  10   9
BRANCH  12  13
ATOM     13  N   UNL     1      -5.162  12.964   2.991  0.00  0.00    -0.281 N 
ATOM     14  C   UNL     1      -5.339  14.145   3.693  0.00  0.00    +0.248 C 
ATOM     30  O   UNL     1      -4.451  14.952   3.922  0.00  0.00    -0.270 OA
ATOM     31  H   UNL     1      -5.930  12.294   3.040  0.00  0.00    +0.155 HD
BRANCH  14  15
ATOM     15  C   UNL     1      -6.695  14.469   4.231  0.00  0.00    +0.037 A 
ATOM     16  C   UNL     1      -6.903  15.604   5.133  0.00  0.00    +0.013 A 
ATOM     17  C   UNL     1      -8.219  15.884   5.651  0.00  0.00    +0.005 A 
ATOM     18  C   UNL     1      -9.338  15.027   5.267  0.00  0.00    -0.033 A 
ATOM     28  C   UNL     1      -9.104  13.910   4.367  0.00  0.00    +0.005 A 
ATOM     29  C   UNL     1      -7.815  13.632   3.858  0.00  0.00    +0.013 A 
BRANCH  18  19
ATOM     19  C   UNL     1     -10.771  15.239   5.788  0.00  0.00    +0.119 C 
BRANCH  19  20
ATOM     20  N   UNL     1     -11.746  14.126   5.581  0.00  0.00    -0.302 NA
ATOM     21  C   UNL     1     -13.104  14.636   5.091  0.00  0.00    +0.066 C 
ATOM     22  C   UNL     1     -14.104  13.457   4.858  0.00  0.00    -0.064 C 
ATOM     23  N   UNL     1     -14.260  12.660   6.154  0.00  0.00    +0.379 N 
ATOM     24  C   UNL     1     -15.243  11.586   5.955  0.00  0.00    -0.096 C 
ATOM     25  H   UNL     1     -14.666  13.351   6.929  0.00  0.00    -0.082 HD
ATOM     26  C   UNL     1     -12.913  12.152   6.650  0.00  0.00    -0.064 C 
ATOM     27  C   UNL     1     -11.918  13.329   6.850  0.00  0.00    +0.066 C 
ENDBRANCH  19  20
ENDBRANCH  18  19
ENDBRANCH  14  15
ENDBRANCH  12  13
TORSDOF 6
ENDMDL
MODEL 3
REMARK VINA RESULT:      -7.6     25.272     27.397
REMARK  Name = C:\Users\Docking\Desktop\test protocol\1iep_ligandH.pdb
REMARK  8 active torsions:
REMARK  status: ('A' for Active; 'I' for Inactive)
REMARK    1  A    between atoms: _5  and  _11
REMARK    2  A    between atoms: _19  and  _21
REMARK    3  A    between atoms: _22  and  _66
REMARK    4  A    between atoms: _27  and  _30
REMARK    5  A    between atoms: _32  and  _33
REMARK    6  A    between atoms: _38  and  _43
REMARK    7  A    between atoms: _43  and  _46
REMARK    8  A    between atoms: _53  and  _55
REMARK                            x       y       z     vdW  Elec       q    Type
REMARK                         _______ _______ _______ _____ _____    ______ ____
ROOT
ATOM     10  C   UNL     1      -3.992  11.660   1.894  0.00  0.00    +0.038 A 
ATOM     11  C   UNL     1      -3.148  10.922   2.763  0.00  0.00    +0.047 A 
ATOM     12  C   UNL     1      -1.791  10.570   2.375  0.00  0.00    +0.035 A 
ATOM     32  C   UNL     1      -1.325  10.989   1.095  0.00  0.00    +0.024 A 
ATOM     33  C   UNL     1      -2.169  11.740   0.199  0.00  0.00    +0.007 A 
ATOM     34  C   UNL     1      -3.509  12.087   0.576  0.00  0.00    -0.029 A 
ATOM     35  C   UNL     1      -4.372  12.888  -0.428  0.00  0.00    +0.045 C 
ENDROOT
BRANCH  10   9
ATOM      4  C   UNL     1      -7.121  14.421   4.266  0.00  0.00    +0.077 A 
ATOM      5  C   UNL     1      -6.086  15.305   4.722  0.00  0.00    +0.048 A 
ATOM      6  C   UNL     1      -4.761  15.010   4.329  0.00  0.00    +0.116 A 
ATOM      7  N   UNL     1      -4.502  13.910   3.540  0.00  0.00    -0.223 NA
ATOM      8  C   UNL     1      -5.523  13.077   3.119  0.00  0.00    +0.220 A 
ATOM      9  N   UNL     1      -5.286  11.971   2.318  0.00  0.00    -0.283 N 
ATOM     36  H   UNL     1      -6.065  11.377   2.036  0.00  0.00    +0.155 HD
ATOM     37  N   UNL     1      -6.796  13.337   3.482  0.00  0.00    -0.214 NA
BRANCH   4   3
ATOM      1  C   UNL     1     -10.445  15.538   6.000  0.00  0.00    +0.020 A 
ATOM      2  C   UNL     1      -9.033  15.394   5.727  0.00  0.00    +0.013 A 
ATOM      3  C   UNL     1      -8.570  14.602   4.594  0.00  0.00    +0.019 A 
ATOM     38  C   UNL     1      -9.569  13.964   3.751  0.00  0.00    +0.120 A 
ATOM     39  N   UNL     1     -10.921  14.118   4.039  0.00  0.00    -0.263 NA
ATOM     40  C   UNL     1     -11.379  14.877   5.127  0.00  0.00    +0.111 A 
ENDBRANCH   4   3
ENDBRANCH  10   9
BRANCH  12  13
ATOM     13  N   UNL     1      -0.892   9.815   3.211  0.00  0.00    -0.281 N 
ATOM     14  C   UNL     1      -0.502   8.493   3.067  0.00  0.00    +0.248 C 
ATOM     30  O   UNL     1      -1.036   7.693   2.313  0.00  0.00    -0.270 OA
ATOM     31  H   UNL     1      -0.495  10.315   4.007  0.00  0.00    +0.155 HD
BRANCH  14  15
ATOM     15  C   UNL     1       0.638   7.983   3.888  0.00  0.00    +0.037 A 
ATOM     16  C   UNL     1       0.523   6.744   4.661  0.00  0.00    +0.013 A 
ATOM     17  C   UNL     1       1.632   6.283   5.459  0.00  0.00    +0.005 A 
ATOM     18  C   UNL     1       2.867   7.063   5.486  0.00  0.00    -0.033 A 
ATOM     28  C   UNL     1       2.956   8.285   4.705  0.00  0.00    +0.005 A 
ATOM     29  C   UNL     1       1.871   8.741   3.923  0.00  0.00    +0.013 A 
BRANCH  18  19
ATOM     19  C   UNL     1       4.093   6.658   6.325  0.00  0.00    +0.119 C 
BRANCH  19  20
ATOM     20  N   UNL     1       4.245   7.296   7.667  0.00  0.00    -0.302 NA
ATOM     21  C   UNL     1       2.891   7.601   8.314  0.00  0.00    +0.066 C 
ATOM     22  C   UNL     1       3.068   8.248   9.726  0.00  0.00    -0.064 C 
ATOM     23  N   UNL     1       3.906   9.521   9.599  0.00  0.00    +0.379 N 
ATOM     24  C   UNL     1       4.026  10.162  10.917  0.00  0.00    -0.096 C 
ATOM     25  H   UNL     1       3.356  10.222   8.930  0.00  0.00    -0.082 HD
ATOM     26  C   UNL     1       5.253   9.227   8.954  0.00  0.00    -0.064 C 
ATOM     27  C   UNL     1       5.066   8.557   7.564  0.00  0.00    +0.066 C 
ENDBRANCH  19  20
ENDBRANCH  18  19
ENDBRANCH  14  15
ENDBRANCH  12  13
TORSDOF 6
ENDMDL
MODEL 4
REMARK VINA RESULT:      -7.4     14.952     17.815
REMARK  Name = C:\Users\Docking\Desktop\test protocol\1iep_ligandH.pdb
REMARK  8 active torsions:
REMARK  status: ('A' for Active; 'I' for Inactive)
REMARK    1  A    between atoms: _5  and  _11
REMARK    2  A    between atoms: _19  and  _21
REMARK    3  A    between atoms: _22  and  _66
REMARK    4  A    between atoms: _27  and  _30
REMARK    5  A    between atoms: _32  and  _33
REMARK    6  A    between atoms: _38  and  _43
REMARK    7  A    between atoms: _43  and  _46
REMARK    8  A    between atoms: _53  and  _55
REMARK                            x       y       z     vdW  Elec       q    Type
REMARK                         _______ _______ _______ _____ _____    ______ ____
ROOT
ATOM     10  C   UNL     1      -1.922  32.855  -3.620  0.00  0.00    +0.038 A 
ATOM     11  C   UNL     1      -1.404  31.647  -3.087  0.00  0.00    +0.047 A 
ATOM     12  C   UNL     1      -0.713  30.687  -3.933  0.00  0.00    +0.035 A 
ATOM     32  C   UNL     1      -0.564  30.991  -5.318  0.00  0.00    +0.024 A 
ATOM     33  C   UNL     1      -1.086  32.213  -5.876  0.00  0.00    +0.007 A 
ATOM     34  C   UNL     1      -1.771  33.163  -5.047  0.00  0.00    -0.029 A 
ATOM     35  C   UNL     1      -2.315  34.454  -5.702  0.00  0.00    +0.045 C 
ENDROOT
BRANCH  10   9
ATOM      4  C   UNL     1      -5.872  34.501  -1.447  0.00  0.00    +0.077 A 
ATOM      5  C   UNL     1      -6.706  33.531  -2.096  0.00  0.00    +0.048 A 
ATOM      6  C   UNL     1      -6.080  32.630  -2.987  0.00  0.00    +0.116 A 
ATOM      7  N   UNL     1      -4.721  32.704  -3.205  0.00  0.00    -0.223 NA
ATOM      8  C   UNL     1      -3.947  33.654  -2.564  0.00  0.00    +0.220 A 
ATOM      9  N   UNL     1      -2.578  33.742  -2.762  0.00  0.00    -0.283 N 
ATOM     36  H   UNL     1      -2.043  34.461  -2.276  0.00  0.00    +0.155 HD
ATOM     37  N   UNL     1      -4.521  34.526  -1.709  0.00  0.00    -0.214 NA
BRANCH   4   3
ATOM      1  C   UNL     1      -8.078  37.226   0.289  0.00  0.00    +0.020 A 
ATOM      2  C   UNL     1      -7.627  36.255  -0.681  0.00  0.00    +0.013 A 
ATOM      3  C   UNL     1      -6.386  35.519  -0.475  0.00  0.00    +0.019 A 
ATOM     38  C   UNL     1      -5.619  35.790   0.732  0.00  0.00    +0.120 A 
ATOM     39  N   UNL     1      -6.078  36.733   1.647  0.00  0.00    -0.263 NA
ATOM     40  C   UNL     1      -7.270  37.449   1.459  0.00  0.00    +0.111 A 
ENDBRANCH   4   3
ENDBRANCH  10   9
BRANCH  12  13
ATOM     13  N   UNL     1      -0.173  29.441  -3.449  0.00  0.00    -0.281 N 
ATOM     14  C   UNL     1       1.046  29.225  -2.828  0.00  0.00    +0.248 C 
ATOM     30  O   UNL     1       1.954  30.042  -2.784  0.00  0.00    -0.270 OA
ATOM     31  H   UNL     1      -0.760  28.617  -3.582  0.00  0.00    +0.155 HD
BRANCH  14  15
ATOM     15  C   UNL     1       1.299  27.906  -2.171  0.00  0.00    +0.037 A 
ATOM     16  C   UNL     1       1.349  27.780  -0.713  0.00  0.00    +0.013 A 
ATOM     17  C   UNL     1       1.611  26.499  -0.106  0.00  0.00    +0.005 A 
ATOM     18  C   UNL     1       1.823  25.333  -0.959  0.00  0.00    -0.033 A 
ATOM     28  C   UNL     1       1.763  25.485  -2.403  0.00  0.00    +0.005 A 
ATOM     29  C   UNL     1       1.508  26.739  -3.002  0.00  0.00    +0.013 A 
BRANCH  18  19
ATOM     19  C   UNL     1       2.130  23.931  -0.398  0.00  0.00    +0.119 C 
BRANCH  19  20
ATOM     20  N   UNL     1       3.535  23.657   0.027  0.00  0.00    -0.302 NA
ATOM     21  C   UNL     1       3.919  22.188  -0.173  0.00  0.00    +0.066 C 
ATOM     22  C   UNL     1       5.399  21.924   0.256  0.00  0.00    -0.064 C 
ATOM     23  N   UNL     1       5.586  22.339   1.717  0.00  0.00    +0.379 N 
ATOM     24  C   UNL     1       6.961  22.038   2.140  0.00  0.00    -0.096 C 
ATOM     25  H   UNL     1       4.898  21.717   2.335  0.00  0.00    -0.082 HD
ATOM     26  C   UNL     1       5.203  23.797   1.925  0.00  0.00    -0.064 C 
ATOM     27  C   UNL     1       3.740  24.055   1.468  0.00  0.00    +0.066 C 
ENDBRANCH  19  20
ENDBRANCH  18  19
ENDBRANCH  14  15
ENDBRANCH  12  13
TORSDOF 6
ENDMDL
MODEL 5
REMARK VINA RESULT:      -7.4     24.881     26.907
REMARK  Name = C:\Users\Docking\Desktop\test protocol\1iep_ligandH.pdb
REMARK  8 active torsions:
REMARK  status: ('A' for Active; 'I' for Inactive)
REMARK    1  A    between atoms: _5  and  _11
REMARK    2  A    between atoms: _19  and  _21
REMARK    3  A    between atoms: _22  and  _66
REMARK    4  A    between atoms: _27  and  _30
REMARK    5  A    between atoms: _32  and  _33
REMARK    6  A    between atoms: _38  and  _43
REMARK    7  A    between atoms: _43  and  _46
REMARK    8  A    between atoms: _53  and  _55
REMARK                            x       y       z     vdW  Elec       q    Type
REMARK                         _______ _______ _______ _____ _____    ______ ____
ROOT
ATOM     10  C   UNL     1      -2.065   8.635   2.144  0.00  0.00    +0.038 A 
ATOM     11  C   UNL     1      -2.941   9.528   2.812  0.00  0.00    +0.047 A 
ATOM     12  C   UNL     1      -3.568  10.635   2.107  0.00  0.00    +0.035 A 
ATOM     32  C   UNL     1      -3.283  10.801   0.721  0.00  0.00    +0.024 A 
ATOM     33  C   UNL     1      -2.394   9.904   0.026  0.00  0.00    +0.007 A 
ATOM     34  C   UNL     1      -1.770   8.812   0.717  0.00  0.00    -0.029 A 
ATOM     35  C   UNL     1      -0.821   7.884  -0.077  0.00  0.00    +0.045 C 
ENDROOT
BRANCH  10   9
ATOM      4  C   UNL     1       1.473   6.768   4.797  0.00  0.00    +0.077 A 
ATOM      5  C   UNL     1       2.253   7.968   4.708  0.00  0.00    +0.048 A 
ATOM      6  C   UNL     1       1.712   9.040   3.964  0.00  0.00    +0.116 A 
ATOM      7  N   UNL     1       0.480   8.911   3.359  0.00  0.00    -0.223 NA
ATOM      8  C   UNL     1      -0.246   7.739   3.463  0.00  0.00    +0.220 A 
ATOM      9  N   UNL     1      -1.490   7.589   2.870  0.00  0.00    -0.283 N 
ATOM     36  H   UNL     1      -1.990   6.706   2.964  0.00  0.00    +0.155 HD
ATOM     37  N   UNL     1       0.250   6.700   4.167  0.00  0.00    -0.214 NA
BRANCH   4   3
ATOM      1  C   UNL     1       3.205   4.397   7.382  0.00  0.00    +0.020 A 
ATOM      2  C   UNL     1       2.816   5.604   6.688  0.00  0.00    +0.013 A 
ATOM      3  C   UNL     1       1.908   5.549   5.550  0.00  0.00    +0.019 A 
ATOM     38  C   UNL     1       1.406   4.248   5.136  0.00  0.00    +0.120 A 
ATOM     39  N   UNL     1       1.798   3.102   5.822  0.00  0.00    -0.263 NA
ATOM     40  C   UNL     1       2.674   3.142   6.917  0.00  0.00    +0.111 A 
ENDBRANCH   4   3
ENDBRANCH  10   9
BRANCH  12  13
ATOM     13  N   UNL     1      -4.460  11.578   2.735  0.00  0.00    -0.281 N 
ATOM     14  C   UNL     1      -4.192  12.885   3.109  0.00  0.00    +0.248 C 
ATOM     30  O   UNL     1      -3.073  13.374   3.155  0.00  0.00    -0.270 OA
ATOM     31  H   UNL     1      -5.404  11.242   2.927  0.00  0.00    +0.155 HD
BRANCH  14  15
ATOM     15  C   UNL     1      -5.329  13.771   3.503  0.00  0.00    +0.037 A 
ATOM     16  C   UNL     1      -5.430  14.321   4.858  0.00  0.00    +0.013 A 
ATOM     17  C   UNL     1      -6.546  15.159   5.217  0.00  0.00    +0.005 A 
ATOM     18  C   UNL     1      -7.570  15.454   4.218  0.00  0.00    -0.033 A 
ATOM     28  C   UNL     1      -7.443  14.900   2.880  0.00  0.00    +0.005 A 
ATOM     29  C   UNL     1      -6.351  14.077   2.525  0.00  0.00    +0.013 A 
BRANCH  18  19
ATOM     19  C   UNL     1      -8.807  16.322   4.519  0.00  0.00    +0.119 C 
BRANCH  19  20
ATOM     20  N   UNL     1      -9.920  15.684   5.283  0.00  0.00    -0.302 NA
ATOM     21  C   UNL     1      -9.734  15.826   6.796  0.00  0.00    +0.066 C 
ATOM     22  C   UNL     1     -10.919  15.173   7.579  0.00  0.00    -0.064 C 
ATOM     23  N   UNL     1     -11.038  13.700   7.184  0.00  0.00    +0.379 N 
ATOM     24  C   UNL     1     -12.114  13.069   7.961  0.00  0.00    -0.096 C 
ATOM     25  H   UNL     1     -10.081  13.198   7.460  0.00  0.00    -0.082 HD
ATOM     26  C   UNL     1     -11.221  13.550   5.680  0.00  0.00    -0.064 C 
ATOM     27  C   UNL     1     -10.053  14.228   4.911  0.00  0.00    +0.066 C 
ENDBRANCH  19  20
ENDBRANCH  18  19
ENDBRANCH  14  15
ENDBRANCH  12  13
TORSDOF 6
ENDMDL
