MODEL 1
REMARK VINA RESULT:     -11.4      0.000      0.000
REMARK  Name = C:\Users\Docking\Desktop\test protocol\1iep_ligandH.pdb
REMARK  8 active torsions:
REMARK  status: ('A' for Active; 'I' for Inactive)
REMARK    1  A    between atoms: _5  and  _11
REMARK    2  A    between atoms: _19  and  _21
REMARK    3  A    between atoms: _22  and  _66
REMARK    4  A    between atoms: _27  and  _30
REMARK    5  A    between atoms: _32  and  _33
REMARK    6  A    between atoms: _38  and  _43
REMARK    7  A    between atoms: _43  and  _46
REMARK    8  A    between atoms: _53  and  _55
REMARK                            x       y       z     vdW  Elec       q    Type
REMARK                         _______ _______ _______ _____ _____    ______ ____
ROOT
ATOM     10  C   UNL     1      61.290  49.215  19.304  0.00  0.00    +0.038 A 
ATOM     11  C   UNL     1      61.807  47.896  19.359  0.00  0.00    +0.047 A 
ATOM     12  C   UNL     1      62.859  47.538  20.298  0.00  0.00    +0.035 A 
ATOM     32  C   UNL     1      63.359  48.550  21.169  0.00  0.00    +0.024 A 
ATOM     33  C   UNL     1      62.846  49.897  21.125  0.00  0.00    +0.007 A 
ATOM     34  C   UNL     1      61.810  50.256  20.199  0.00  0.00    -0.029 A 
ATOM     35  C   UNL     1      61.302  51.716  20.192  0.00  0.00    +0.045 C 
ENDROOT
BRANCH  10   9
ATOM      4  C   UNL     1      59.760  51.012  15.124  0.00  0.00    +0.077 A 
ATOM      5  C   UNL     1      61.079  51.438  14.756  0.00  0.00    +0.048 A 
ATOM      6  C   UNL     1      62.123  51.182  15.674  0.00  0.00    +0.116 A 
ATOM      7  N   UNL     1      61.855  50.546  16.867  0.00  0.00    -0.223 NA
ATOM      8  C   UNL     1      60.571  50.150  17.192  0.00  0.00    +0.220 A 
ATOM      9  N   UNL     1      60.280  49.503  18.383  0.00  0.00    -0.283 N 
ATOM     36  H   UNL     1      59.318  49.233  18.588  0.00  0.00    +0.155 HD
ATOM     37  N   UNL     1      59.557  50.385  16.333  0.00  0.00    -0.214 NA
BRANCH   4   3
ATOM      1  C   UNL     1      56.066  51.142  13.843  0.00  0.00    +0.020 A 
ATOM      2  C   UNL     1      57.197  50.936  14.718  0.00  0.00    +0.013 A 
ATOM      3  C   UNL     1      58.554  51.208  14.259  0.00  0.00    +0.019 A 
ATOM     38  C   UNL     1      58.733  51.693  12.899  0.00  0.00    +0.120 A 
ATOM     39  N   UNL     1      57.625  51.882  12.079  0.00  0.00    -0.263 NA
ATOM     40  C   UNL     1      56.315  51.621  12.508  0.00  0.00    +0.111 A 
ENDBRANCH   4   3
ENDBRANCH  10   9
BRANCH  12  13
ATOM     13  N   UNL     1      63.428  46.217  20.395  0.00  0.00    -0.281 N 
ATOM     14  C   UNL     1      64.160  45.534  19.438  0.00  0.00    +0.248 C 
ATOM     30  O   UNL     1      64.255  45.873  18.268  0.00  0.00    -0.270 OA
ATOM     31  H   UNL     1      63.273  45.727  21.276  0.00  0.00    +0.155 HD
BRANCH  14  15
ATOM     15  C   UNL     1      64.879  44.285  19.835  0.00  0.00    +0.037 A 
ATOM     16  C   UNL     1      65.091  43.945  21.244  0.00  0.00    +0.013 A 
ATOM     17  C   UNL     1      65.803  42.743  21.599  0.00  0.00    +0.005 A 
ATOM     18  C   UNL     1      66.307  41.870  20.542  0.00  0.00    -0.033 A 
ATOM     28  C   UNL     1      66.079  42.229  19.152  0.00  0.00    +0.005 A 
ATOM     29  C   UNL     1      65.382  43.407  18.800  0.00  0.00    +0.013 A 
BRANCH  18  19
ATOM     19  C   UNL     1      67.096  40.579  20.828  0.00  0.00    +0.119 C 
BRANCH  19  20
ATOM     20  N   UNL     1      66.402  39.513  21.611  0.00  0.00    -0.302 NA
ATOM     21  C   UNL     1      67.302  38.298  21.851  0.00  0.00    +0.066 C 
ATOM     22  C   UNL     1      66.567  37.203  22.691  0.00  0.00    -0.064 C 
ATOM     23  N   UNL     1      65.281  36.791  21.973  0.00  0.00    +0.379 N 
ATOM     24  C   UNL     1      64.618  35.719  22.730  0.00  0.00    -0.096 C 
ATOM     25  H   UNL     1      65.567  36.375  20.979  0.00  0.00    -0.082 HD
ATOM     26  C   UNL     1      64.381  37.994  21.728  0.00  0.00    -0.064 C 
ATOM     27  C   UNL     1      65.130  39.089  20.918  0.00  0.00    +0.066 C 
ENDBRANCH  19  20
ENDBRANCH  18  19
ENDBRANCH  14  15
ENDBRANCH  12  13
TORSDOF 6
ENDMDL
MODEL 2
REMARK VINA RESULT:      -9.4      5.884     12.357
REMARK  Name = C:\Users\Docking\Desktop\test protocol\1iep_ligandH.pdb
REMARK  8 active torsions:
REMARK  status: ('A' for Active; 'I' for Inactive)
REMARK    1  A    between atoms: _5  and  _11
REMARK    2  A    between atoms: _19  and  _21
REMARK    3  A    between atoms: _22  and  _66
REMARK    4  A    between atoms: _27  and  _30
REMARK    5  A    between atoms: _32  and  _33
REMARK    6  A    between atoms: _38  and  _43
REMARK    7  A    between atoms: _43  and  _46
REMARK    8  A    between atoms: _53  and  _55
REMARK                            x       y       z     vdW  Elec       q    Type
REMARK                         _______ _______ _______ _____ _____    ______ ____
ROOT
ATOM     10  C   UNL     1      54.833  53.998   9.350  0.00  0.00    +0.038 A 
ATOM     11  C   UNL     1      55.865  53.605  10.241  0.00  0.00    +0.047 A 
ATOM     12  C   UNL     1      55.572  53.242  11.618  0.00  0.00    +0.035 A 
ATOM     32  C   UNL     1      54.216  53.288  12.055  0.00  0.00    +0.024 A 
ATOM     33  C   UNL     1      53.155  53.685  11.164  0.00  0.00    +0.007 A 
ATOM     34  C   UNL     1      53.438  54.047   9.805  0.00  0.00    -0.029 A 
ATOM     35  C   UNL     1      52.262  54.472   8.895  0.00  0.00    +0.045 C 
ENDROOT
BRANCH  10   9
ATOM      4  C   UNL     1      54.981  53.068   4.644  0.00  0.00    +0.077 A 
ATOM      5  C   UNL     1      54.357  51.788   4.817  0.00  0.00    +0.048 A 
ATOM      6  C   UNL     1      54.020  51.403   6.134  0.00  0.00    +0.116 A 
ATOM      7  N   UNL     1      54.291  52.244   7.192  0.00  0.00    -0.223 NA
ATOM      8  C   UNL     1      54.896  53.471   6.990  0.00  0.00    +0.220 A 
ATOM      9  N   UNL     1      55.171  54.336   8.038  0.00  0.00    -0.283 N 
ATOM     36  H   UNL     1      55.625  55.229   7.848  0.00  0.00    +0.155 HD
ATOM     37  N   UNL     1      55.229  53.861   5.742  0.00  0.00    -0.214 NA
BRANCH   4   3
ATOM      1  C   UNL     1      55.850  53.384   0.843  0.00  0.00    +0.020 A 
ATOM      2  C   UNL     1      55.446  52.805   2.104  0.00  0.00    +0.013 A 
ATOM      3  C   UNL     1      55.394  53.616   3.313  0.00  0.00    +0.019 A 
ATOM     38  C   UNL     1      55.759  55.021   3.213  0.00  0.00    +0.120 A 
ATOM     39  N   UNL     1      56.147  55.550   1.986  0.00  0.00    -0.263 NA
ATOM     40  C   UNL     1      56.202  54.779   0.815  0.00  0.00    +0.111 A 
ENDBRANCH   4   3
ENDBRANCH  10   9
BRANCH  12  13
ATOM     13  N   UNL     1      56.579  52.843  12.570  0.00  0.00    -0.281 N 
ATOM     14  C   UNL     1      57.215  51.617  12.674  0.00  0.00    +0.248 C 
ATOM     30  O   UNL     1      56.858  50.602  12.094  0.00  0.00    -0.270 OA
ATOM     31  H   UNL     1      56.857  53.551  13.250  0.00  0.00    +0.155 HD
BRANCH  14  15
ATOM     15  C   UNL     1      58.412  51.497  13.561  0.00  0.00    +0.037 A 
ATOM     16  C   UNL     1      59.638  52.251  13.289  0.00  0.00    +0.013 A 
ATOM     17  C   UNL     1      60.784  52.103  14.151  0.00  0.00    +0.005 A 
ATOM     18  C   UNL     1      60.708  51.199  15.295  0.00  0.00    -0.033 A 
ATOM     28  C   UNL     1      59.477  50.467  15.545  0.00  0.00    +0.005 A 
ATOM     29  C   UNL     1      58.352  50.608  14.702  0.00  0.00    +0.013 A 
BRANCH  18  19
ATOM     19  C   UNL     1      61.889  50.964  16.256  0.00  0.00    +0.119 C 
BRANCH  19  20
ATOM     20  N   UNL     1      61.678  49.997  17.374  0.00  0.00    -0.302 NA
ATOM     21  C   UNL     1      61.575  50.701  18.730  0.00  0.00    +0.066 C 
ATOM     22  C   UNL     1      61.332  49.677  19.886  0.00  0.00    -0.064 C 
ATOM     23  N   UNL     1      62.462  48.646  19.896  0.00  0.00    +0.379 N 
ATOM     24  C   UNL     1      62.268  47.716  21.018  0.00  0.00    -0.096 C 
ATOM     25  H   UNL     1      63.417  49.193  20.072  0.00  0.00    -0.082 HD
ATOM     26  C   UNL     1      62.574  47.943  18.551  0.00  0.00    -0.064 C 
ATOM     27  C   UNL     1      62.785  48.972  17.405  0.00  0.00    +0.066 C 
ENDBRANCH  19  20
ENDBRANCH  18  19
ENDBRANCH  14  15
ENDBRANCH  12  13
TORSDOF 6
ENDMDL
MODEL 3
REMARK VINA RESULT:      -9.3      1.874     13.590
REMARK  Name = C:\Users\Docking\Desktop\test protocol\1iep_ligandH.pdb
REMARK  8 active torsions:
REMARK  status: ('A' for Active; 'I' for Inactive)
REMARK    1  A    between atoms: _5  and  _11
REMARK    2  A    between atoms: _19  and  _21
REMARK    3  A    between atoms: _22  and  _66
REMARK    4  A    between atoms: _27  and  _30
REMARK    5  A    between atoms: _32  and  _33
REMARK    6  A    between atoms: _38  and  _43
REMARK    7  A    between atoms: _43  and  _46
REMARK    8  A    between atoms: _53  and  _55
REMARK                            x       y       z     vdW  Elec       q    Type
REMARK                         _______ _______ _______ _____ _____    ______ ____
ROOT
ATOM     10  C   UNL     1      65.829  42.745  20.445  0.00  0.00    +0.038 A 
ATOM     11  C   UNL     1      64.746  43.646  20.282  0.00  0.00    +0.047 A 
ATOM     12  C   UNL     1      64.629  44.474  19.091  0.00  0.00    +0.035 A 
ATOM     32  C   UNL     1      65.631  44.355  18.085  0.00  0.00    +0.024 A 
ATOM     33  C   UNL     1      66.739  43.445  18.235  0.00  0.00    +0.007 A 
ATOM     34  C   UNL     1      66.862  42.628  19.409  0.00  0.00    -0.029 A 
ATOM     35  C   UNL     1      68.074  41.674  19.519  0.00  0.00    +0.045 C 
ENDROOT
BRANCH  10   9
ATOM      4  C   UNL     1      65.372  38.586  22.798  0.00  0.00    +0.077 A 
ATOM      5  C   UNL     1      64.947  37.895  21.614  0.00  0.00    +0.048 A 
ATOM      6  C   UNL     1      64.851  38.648  20.423  0.00  0.00    +0.116 A 
ATOM      7  N   UNL     1      65.161  39.991  20.425  0.00  0.00    -0.223 NA
ATOM      8  C   UNL     1      65.567  40.627  21.584  0.00  0.00    +0.220 A 
ATOM      9  N   UNL     1      65.892  41.974  21.609  0.00  0.00    -0.283 N 
ATOM     36  H   UNL     1      66.180  42.408  22.485  0.00  0.00    +0.155 HD
ATOM     37  N   UNL     1      65.665  39.930  22.736  0.00  0.00    -0.214 NA
BRANCH   4   3
ATOM      1  C   UNL     1      66.733  36.422  25.759  0.00  0.00    +0.020 A 
ATOM      2  C   UNL     1      66.631  37.033  24.453  0.00  0.00    +0.013 A 
ATOM      3  C   UNL     1      65.525  37.927  24.133  0.00  0.00    +0.019 A 
ATOM     38  C   UNL     1      64.532  38.185  25.164  0.00  0.00    +0.120 A 
ATOM     39  N   UNL     1      64.655  37.581  26.412  0.00  0.00    -0.263 NA
ATOM     40  C   UNL     1      65.714  36.718  26.731  0.00  0.00    +0.111 A 
ENDBRANCH   4   3
ENDBRANCH  10   9
BRANCH  12  13
ATOM     13  N   UNL     1      63.556  45.413  18.874  0.00  0.00    -0.281 N 
ATOM     14  C   UNL     1      63.577  46.786  19.054  0.00  0.00    +0.248 C 
ATOM     30  O   UNL     1      64.464  47.393  19.636  0.00  0.00    -0.270 OA
ATOM     31  H   UNL     1      62.675  45.017  18.548  0.00  0.00    +0.155 HD
BRANCH  14  15
ATOM     15  C   UNL     1      62.443  47.601  18.522  0.00  0.00    +0.037 A 
ATOM     16  C   UNL     1      61.337  46.978  17.790  0.00  0.00    +0.013 A 
ATOM     17  C   UNL     1      60.264  47.790  17.273  0.00  0.00    +0.005 A 
ATOM     18  C   UNL     1      60.291  49.235  17.488  0.00  0.00    -0.033 A 
ATOM     28  C   UNL     1      61.398  49.826  18.222  0.00  0.00    +0.005 A 
ATOM     29  C   UNL     1      62.452  49.034  18.729  0.00  0.00    +0.013 A 
BRANCH  18  19
ATOM     19  C   UNL     1      59.199  50.180  16.954  0.00  0.00    +0.119 C 
BRANCH  19  20
ATOM     20  N   UNL     1      59.192  50.456  15.486  0.00  0.00    -0.302 NA
ATOM     21  C   UNL     1      60.022  51.692  15.129  0.00  0.00    +0.066 C 
ATOM     22  C   UNL     1      60.022  51.953  13.588  0.00  0.00    -0.064 C 
ATOM     23  N   UNL     1      58.580  52.109  13.100  0.00  0.00    +0.379 N 
ATOM     24  C   UNL     1      58.579  52.412  11.661  0.00  0.00    -0.096 C 
ATOM     25  H   UNL     1      58.137  52.984  13.630  0.00  0.00    -0.082 HD
ATOM     26  C   UNL     1      57.747  50.885  13.453  0.00  0.00    -0.064 C 
ATOM     27  C   UNL     1      57.778  50.618  14.984  0.00  0.00    +0.066 C 
ENDBRANCH  19  20
ENDBRANCH  18  19
ENDBRANCH  14  15
ENDBRANCH  12  13
TORSDOF 6
ENDMDL
MODEL 4
REMARK VINA RESULT:      -8.8      5.877     11.615
REMARK  Name = C:\Users\Docking\Desktop\test protocol\1iep_ligandH.pdb
REMARK  8 active torsions:
REMARK  status: ('A' for Active; 'I' for Inactive)
REMARK    1  A    between atoms: _5  and  _11
REMARK    2  A    between atoms: _19  and  _21
REMARK    3  A    between atoms: _22  and  _66
REMARK    4  A    between atoms: _27  and  _30
REMARK    5  A    between atoms: _32  and  _33
REMARK    6  A    between atoms: _38  and  _43
REMARK    7  A    between atoms: _43  and  _46
REMARK    8  A    between atoms: _53  and  _55
REMARK                            x       y       z     vdW  Elec       q    Type
REMARK                         _______ _______ _______ _____ _____    ______ ____
ROOT
ATOM     10  C   UNL     1      53.839  49.669  10.199  0.00  0.00    +0.038 A 
ATOM     11  C   UNL     1      55.125  49.911  10.745  0.00  0.00    +0.047 A 
ATOM     12  C   UNL     1      55.375  49.774  12.172  0.00  0.00    +0.035 A 
ATOM     32  C   UNL     1      54.292  49.386  13.013  0.00  0.00    +0.024 A 
ATOM     33  C   UNL     1      52.978  49.136  12.475  0.00  0.00    +0.007 A 
ATOM     34  C   UNL     1      52.725  49.273  11.069  0.00  0.00    -0.029 A 
ATOM     35  C   UNL     1      51.295  48.999  10.549  0.00  0.00    +0.045 C 
ENDROOT
BRANCH  10   9
ATOM      4  C   UNL     1      54.210  52.175   6.123  0.00  0.00    +0.077 A 
ATOM      5  C   UNL     1      54.794  53.298   6.797  0.00  0.00    +0.048 A 
ATOM      6  C   UNL     1      54.976  53.193   8.194  0.00  0.00    +0.116 A 
ATOM      7  N   UNL     1      54.598  52.046   8.857  0.00  0.00    -0.223 NA
ATOM      8  C   UNL     1      54.035  50.982   8.177  0.00  0.00    +0.220 A 
ATOM      9  N   UNL     1      53.655  49.815   8.822  0.00  0.00    -0.283 N 
ATOM     36  H   UNL     1      53.237  49.056   8.286  0.00  0.00    +0.155 HD
ATOM     37  N   UNL     1      53.850  51.058   6.843  0.00  0.00    -0.214 NA
BRANCH   4   3
ATOM      1  C   UNL     1      54.725  51.964   2.251  0.00  0.00    +0.020 A 
ATOM      2  C   UNL     1      55.024  52.000   3.664  0.00  0.00    +0.013 A 
ATOM      3  C   UNL     1      53.956  52.133   4.648  0.00  0.00    +0.019 A 
ATOM     38  C   UNL     1      52.587  52.226   4.164  0.00  0.00    +0.120 A 
ATOM     39  N   UNL     1      52.330  52.190   2.797  0.00  0.00    -0.263 NA
ATOM     40  C   UNL     1      53.349  52.064   1.842  0.00  0.00    +0.111 A 
ENDBRANCH   4   3
ENDBRANCH  10   9
BRANCH  12  13
ATOM     13  N   UNL     1      56.658  50.014  12.784  0.00  0.00    -0.281 N 
ATOM     14  C   UNL     1      57.123  51.188  13.355  0.00  0.00    +0.248 C 
ATOM     30  O   UNL     1      56.581  52.277  13.234  0.00  0.00    -0.270 OA
ATOM     31  H   UNL     1      57.302  49.223  12.799  0.00  0.00    +0.155 HD
BRANCH  14  15
ATOM     15  C   UNL     1      58.378  51.149  14.165  0.00  0.00    +0.037 A 
ATOM     16  C   UNL     1      59.612  51.777  13.686  0.00  0.00    +0.013 A 
ATOM     17  C   UNL     1      60.813  51.710  14.480  0.00  0.00    +0.005 A 
ATOM     18  C   UNL     1      60.786  51.013  15.763  0.00  0.00    -0.033 A 
ATOM     28  C   UNL     1      59.547  50.404  16.217  0.00  0.00    +0.005 A 
ATOM     29  C   UNL     1      58.368  50.466  15.442  0.00  0.00    +0.013 A 
BRANCH  18  19
ATOM     19  C   UNL     1      62.026  50.874  16.666  0.00  0.00    +0.119 C 
BRANCH  19  20
ATOM     20  N   UNL     1      61.921  49.949  17.834  0.00  0.00    -0.302 NA
ATOM     21  C   UNL     1      61.799  50.708  19.159  0.00  0.00    +0.066 C 
ATOM     22  C   UNL     1      61.668  49.725  20.367  0.00  0.00    -0.064 C 
ATOM     23  N   UNL     1      62.874  48.785  20.390  0.00  0.00    +0.379 N 
ATOM     24  C   UNL     1      62.783  47.898  21.559  0.00  0.00    -0.096 C 
ATOM     25  H   UNL     1      63.789  49.411  20.512  0.00  0.00    -0.082 HD
ATOM     26  C   UNL     1      63.004  48.029  19.076  0.00  0.00    -0.064 C 
ATOM     27  C   UNL     1      63.105  49.015  17.878  0.00  0.00    +0.066 C 
ENDBRANCH  19  20
ENDBRANCH  18  19
ENDBRANCH  14  15
ENDBRANCH  12  13
TORSDOF 6
ENDMDL
MODEL 5
REMARK VINA RESULT:      -8.7      6.022     12.095
REMARK  Name = C:\Users\Docking\Desktop\test protocol\1iep_ligandH.pdb
REMARK  8 active torsions:
REMARK  status: ('A' for Active; 'I' for Inactive)
REMARK    1  A    between atoms: _5  and  _11
REMARK    2  A    between atoms: _19  and  _21
REMARK    3  A    between atoms: _22  and  _66
REMARK    4  A    between atoms: _27  and  _30
REMARK    5  A    between atoms: _32  and  _33
REMARK    6  A    between atoms: _38  and  _43
REMARK    7  A    between atoms: _43  and  _46
REMARK    8  A    between atoms: _53  and  _55
REMARK                            x       y       z     vdW  Elec       q    Type
REMARK                         _______ _______ _______ _____ _____    ______ ____
ROOT
ATOM     10  C   UNL     1      52.673  52.490  11.850  0.00  0.00    +0.038 A 
ATOM     11  C   UNL     1      53.915  52.305  12.509  0.00  0.00    +0.047 A 
ATOM     12  C   UNL     1      55.027  51.641  11.846  0.00  0.00    +0.035 A 
ATOM     32  C   UNL     1      54.839  51.179  10.511  0.00  0.00    +0.024 A 
ATOM     33  C   UNL     1      53.583  51.358   9.827  0.00  0.00    +0.007 A 
ATOM     34  C   UNL     1      52.482  52.010  10.476  0.00  0.00    -0.029 A 
ATOM     35  C   UNL     1      51.156  52.169   9.697  0.00  0.00    +0.045 C 
ENDROOT
BRANCH  10   9
ATOM      4  C   UNL     1      50.337  56.448  13.234  0.00  0.00    +0.077 A 
ATOM      5  C   UNL     1      51.270  57.305  12.561  0.00  0.00    +0.048 A 
ATOM      6  C   UNL     1      52.341  56.688  11.876  0.00  0.00    +0.116 A 
ATOM      7  N   UNL     1      52.460  55.316  11.871  0.00  0.00    -0.223 NA
ATOM      8  C   UNL     1      51.544  54.518  12.532  0.00  0.00    +0.220 A 
ATOM      9  N   UNL     1      51.640  53.135  12.534  0.00  0.00    -0.283 N 
ATOM     36  H   UNL     1      50.948  52.582  13.040  0.00  0.00    +0.155 HD
ATOM     37  N   UNL     1      50.513  55.083  13.195  0.00  0.00    -0.214 NA
BRANCH   4   3
ATOM      1  C   UNL     1      47.979  58.658  15.437  0.00  0.00    +0.020 A 
ATOM      2  C   UNL     1      49.150  58.220  14.714  0.00  0.00    +0.013 A 
ATOM      3  C   UNL     1      49.152  56.950  13.999  0.00  0.00    +0.019 A 
ATOM     38  C   UNL     1      47.943  56.142  14.034  0.00  0.00    +0.120 A 
ATOM     39  N   UNL     1      46.830  56.589  14.740  0.00  0.00    -0.263 NA
ATOM     40  C   UNL     1      46.817  57.809  15.433  0.00  0.00    +0.111 A 
ENDBRANCH   4   3
ENDBRANCH  10   9
BRANCH  12  13
ATOM     13  N   UNL     1      56.309  51.417  12.468  0.00  0.00    -0.281 N 
ATOM     14  C   UNL     1      57.258  52.361  12.824  0.00  0.00    +0.248 C 
ATOM     30  O   UNL     1      57.240  53.529  12.467  0.00  0.00    -0.270 OA
ATOM     31  H   UNL     1      56.545  50.445  12.669  0.00  0.00    +0.155 HD
BRANCH  14  15
ATOM     15  C   UNL     1      58.401  51.943  13.692  0.00  0.00    +0.037 A 
ATOM     16  C   UNL     1      58.215  50.985  14.785  0.00  0.00    +0.013 A 
ATOM     17  C   UNL     1      59.330  50.612  15.618  0.00  0.00    +0.005 A 
ATOM     18  C   UNL     1      60.644  51.196  15.359  0.00  0.00    -0.033 A 
ATOM     28  C   UNL     1      60.802  52.140  14.265  0.00  0.00    +0.005 A 
ATOM     29  C   UNL     1      59.710  52.509  13.447  0.00  0.00    +0.013 A 
BRANCH  18  19
ATOM     19  C   UNL     1      61.886  50.872  16.210  0.00  0.00    +0.119 C 
BRANCH  19  20
ATOM     20  N   UNL     1      61.697  49.957  17.376  0.00  0.00    -0.302 NA
ATOM     21  C   UNL     1      61.510  50.728  18.686  0.00  0.00    +0.066 C 
ATOM     22  C   UNL     1      61.290  49.756  19.891  0.00  0.00    -0.064 C 
ATOM     23  N   UNL     1      62.477  48.797  19.991  0.00  0.00    +0.379 N 
ATOM     24  C   UNL     1      62.302  47.920  21.159  0.00  0.00    -0.096 C 
ATOM     25  H   UNL     1      63.393  49.409  20.163  0.00  0.00    -0.082 HD
ATOM     26  C   UNL     1      62.672  48.028  18.692  0.00  0.00    -0.064 C 
ATOM     27  C   UNL     1      62.860  49.003  17.496  0.00  0.00    +0.066 C 
ENDBRANCH  19  20
ENDBRANCH  18  19
ENDBRANCH  14  15
ENDBRANCH  12  13
TORSDOF 6
ENDMDL
