MODEL 1
REMARK VINA RESULT:      -8.1      0.000      0.000
REMARK  Name = C:\Users\Docking\Desktop\test protocol\1iep_ligandH.pdb
REMARK  8 active torsions:
REMARK  status: ('A' for Active; 'I' for Inactive)
REMARK    1  A    between atoms: _5  and  _11
REMARK    2  A    between atoms: _19  and  _21
REMARK    3  A    between atoms: _22  and  _66
REMARK    4  A    between atoms: _27  and  _30
REMARK    5  A    between atoms: _32  and  _33
REMARK    6  A    between atoms: _38  and  _43
REMARK    7  A    between atoms: _43  and  _46
REMARK    8  A    between atoms: _53  and  _55
REMARK                            x       y       z     vdW  Elec       q    Type
REMARK                         _______ _______ _______ _____ _____    ______ ____
ROOT
ATOM     10  C   UNL     1      18.715  25.839   2.259  0.00  0.00    +0.038 A 
ATOM     11  C   UNL     1      19.558  26.949   2.518  0.00  0.00    +0.047 A 
ATOM     12  C   UNL     1      20.503  27.426   1.519  0.00  0.00    +0.035 A 
ATOM     32  C   UNL     1      20.559  26.750   0.266  0.00  0.00    +0.024 A 
ATOM     33  C   UNL     1      19.709  25.619  -0.014  0.00  0.00    +0.007 A 
ATOM     34  C   UNL     1      18.778  25.143   0.968  0.00  0.00    -0.029 A 
ATOM     35  C   UNL     1      17.896  23.922   0.615  0.00  0.00    +0.045 C 
ENDROOT
BRANCH  10   9
ATOM      4  C   UNL     1      17.518  23.024   5.958  0.00  0.00    +0.077 A 
ATOM      5  C   UNL     1      18.756  22.303   5.885  0.00  0.00    +0.048 A 
ATOM      6  C   UNL     1      19.670  22.682   4.877  0.00  0.00    +0.116 A 
ATOM      7  N   UNL     1      19.360  23.709   4.012  0.00  0.00    -0.223 NA
ATOM      8  C   UNL     1      18.156  24.383   4.108  0.00  0.00    +0.220 A 
ATOM      9  N   UNL     1      17.826  25.424   3.253  0.00  0.00    -0.283 N 
ATOM     36  H   UNL     1      16.926  25.891   3.352  0.00  0.00    +0.155 HD
ATOM     37  N   UNL     1      17.265  24.039   5.061  0.00  0.00    -0.214 NA
BRANCH   4   3
ATOM      1  C   UNL     1      15.651  21.820   9.177  0.00  0.00    +0.020 A 
ATOM      2  C   UNL     1      16.717  22.067   8.234  0.00  0.00    +0.013 A 
ATOM      3  C   UNL     1      16.451  22.743   6.970  0.00  0.00    +0.019 A 
ATOM     38  C   UNL     1      15.086  23.160   6.690  0.00  0.00    +0.120 A 
ATOM     39  N   UNL     1      14.079  22.907   7.617  0.00  0.00    -0.263 NA
ATOM     40  C   UNL     1      14.323  22.256   8.835  0.00  0.00    +0.111 A 
ENDBRANCH   4   3
ENDBRANCH  10   9
BRANCH  12  13
ATOM     13  N   UNL     1      21.390  28.543   1.729  0.00  0.00    -0.281 N 
ATOM     14  C   UNL     1      21.366  29.779   1.105  0.00  0.00    +0.248 C 
ATOM     30  O   UNL     1      20.703  30.038   0.111  0.00  0.00    -0.270 OA
ATOM     31  H   UNL     1      22.126  28.405   2.422  0.00  0.00    +0.155 HD
BRANCH  14  15
ATOM     15  C   UNL     1      22.210  30.883   1.655  0.00  0.00    +0.037 A 
ATOM     16  C   UNL     1      22.241  31.173   3.090  0.00  0.00    +0.013 A 
ATOM     17  C   UNL     1      23.051  32.254   3.593  0.00  0.00    +0.005 A 
ATOM     18  C   UNL     1      23.839  33.053   2.657  0.00  0.00    -0.033 A 
ATOM     28  C   UNL     1      23.794  32.741   1.238  0.00  0.00    +0.005 A 
ATOM     29  C   UNL     1      23.000  31.682   0.742  0.00  0.00    +0.013 A 
BRANCH  18  19
ATOM     19  C   UNL     1      24.715  34.239   3.102  0.00  0.00    +0.119 C 
BRANCH  19  20
ATOM     20  N   UNL     1      24.824  35.397   2.165  0.00  0.00    -0.302 NA
ATOM     21  C   UNL     1      26.048  35.284   1.251  0.00  0.00    +0.066 C 
ATOM     22  C   UNL     1      26.134  36.493   0.263  0.00  0.00    -0.064 C 
ATOM     23  N   UNL     1      26.172  37.798   1.060  0.00  0.00    +0.379 N 
ATOM     24  C   UNL     1      26.312  38.933   0.136  0.00  0.00    -0.096 C 
ATOM     25  H   UNL     1      27.081  37.773   1.706  0.00  0.00    -0.082 HD
ATOM     26  C   UNL     1      24.961  37.917   1.974  0.00  0.00    -0.064 C 
ATOM     27  C   UNL     1      24.868  36.697   2.932  0.00  0.00    +0.066 C 
ENDBRANCH  19  20
ENDBRANCH  18  19
ENDBRANCH  14  15
ENDBRANCH  12  13
TORSDOF 6
ENDMDL
MODEL 2
REMARK VINA RESULT:      -8.0      3.704     12.951
REMARK  Name = C:\Users\Docking\Desktop\test protocol\1iep_ligandH.pdb
REMARK  8 active torsions:
REMARK  status: ('A' for Active; 'I' for Inactive)
REMARK    1  A    between atoms: _5  and  _11
REMARK    2  A    between atoms: _19  and  _21
REMARK    3  A    between atoms: _22  and  _66
REMARK    4  A    between atoms: _27  and  _30
REMARK    5  A    between atoms: _32  and  _33
REMARK    6  A    between atoms: _38  and  _43
REMARK    7  A    between atoms: _43  and  _46
REMARK    8  A    between atoms: _53  and  _55
REMARK                            x       y       z     vdW  Elec       q    Type
REMARK                         _______ _______ _______ _____ _____    ______ ____
ROOT
ATOM     10  C   UNL     1      20.491  25.912   3.372  0.00  0.00    +0.038 A 
ATOM     11  C   UNL     1      19.154  25.684   3.787  0.00  0.00    +0.047 A 
ATOM     12  C   UNL     1      18.540  24.371   3.659  0.00  0.00    +0.035 A 
ATOM     32  C   UNL     1      19.318  23.312   3.107  0.00  0.00    +0.024 A 
ATOM     33  C   UNL     1      20.678  23.527   2.679  0.00  0.00    +0.007 A 
ATOM     34  C   UNL     1      21.288  24.820   2.801  0.00  0.00    -0.029 A 
ATOM     35  C   UNL     1      22.748  24.994   2.320  0.00  0.00    +0.045 C 
ENDROOT
BRANCH  10   9
ATOM      4  C   UNL     1      21.684  30.225   1.637  0.00  0.00    +0.077 A 
ATOM      5  C   UNL     1      21.218  29.890   0.322  0.00  0.00    +0.048 A 
ATOM      6  C   UNL     1      20.684  28.596   0.132  0.00  0.00    +0.116 A 
ATOM      7  N   UNL     1      20.626  27.710   1.186  0.00  0.00    -0.223 NA
ATOM      8  C   UNL     1      21.086  28.064   2.442  0.00  0.00    +0.220 A 
ATOM      9  N   UNL     1      21.030  27.192   3.518  0.00  0.00    -0.283 N 
ATOM     36  H   UNL     1      21.387  27.488   4.426  0.00  0.00    +0.155 HD
ATOM     37  N   UNL     1      21.601  29.294   2.648  0.00  0.00    -0.214 NA
BRANCH   4   3
ATOM      1  C   UNL     1      23.770  33.037   3.381  0.00  0.00    +0.020 A 
ATOM      2  C   UNL     1      23.233  31.731   3.076  0.00  0.00    +0.013 A 
ATOM      3  C   UNL     1      22.271  31.555   1.996  0.00  0.00    +0.019 A 
ATOM     38  C   UNL     1      21.869  32.730   1.237  0.00  0.00    +0.120 A 
ATOM     39  N   UNL     1      22.402  33.976   1.555  0.00  0.00    -0.263 NA
ATOM     40  C   UNL     1      23.327  34.157   2.594  0.00  0.00    +0.111 A 
ENDBRANCH   4   3
ENDBRANCH  10   9
BRANCH  12  13
ATOM     13  N   UNL     1      17.184  24.082   4.055  0.00  0.00    -0.281 N 
ATOM     14  C   UNL     1      16.754  23.377   5.167  0.00  0.00    +0.248 C 
ATOM     30  O   UNL     1      17.480  22.701   5.881  0.00  0.00    -0.270 OA
ATOM     31  H   UNL     1      16.453  24.441   3.441  0.00  0.00    +0.155 HD
BRANCH  14  15
ATOM     15  C   UNL     1      15.304  23.417   5.531  0.00  0.00    +0.037 A 
ATOM     16  C   UNL     1      14.265  23.511   4.503  0.00  0.00    +0.013 A 
ATOM     17  C   UNL     1      12.875  23.565   4.882  0.00  0.00    +0.005 A 
ATOM     18  C   UNL     1      12.517  23.523   6.297  0.00  0.00    -0.033 A 
ATOM     28  C   UNL     1      13.568  23.424   7.297  0.00  0.00    +0.005 A 
ATOM     29  C   UNL     1      14.932  23.372   6.929  0.00  0.00    +0.013 A 
BRANCH  18  19
ATOM     19  C   UNL     1      11.061  23.596   6.794  0.00  0.00    +0.119 C 
BRANCH  19  20
ATOM     20  N   UNL     1      10.514  24.950   7.110  0.00  0.00    -0.302 NA
ATOM     21  C   UNL     1       9.663  24.943   8.383  0.00  0.00    +0.066 C 
ATOM     22  C   UNL     1       9.117  26.371   8.710  0.00  0.00    -0.064 C 
ATOM     23  N   UNL     1       8.307  26.889   7.520  0.00  0.00    +0.379 N 
ATOM     24  C   UNL     1       7.744  28.208   7.847  0.00  0.00    -0.096 C 
ATOM     25  H   UNL     1       7.456  26.188   7.359  0.00  0.00    -0.082 HD
ATOM     26  C   UNL     1       9.145  26.897   6.249  0.00  0.00    -0.064 C 
ATOM     27  C   UNL     1       9.707  25.479   5.949  0.00  0.00    +0.066 C 
ENDBRANCH  19  20
ENDBRANCH  18  19
ENDBRANCH  14  15
ENDBRANCH  12  13
TORSDOF 6
ENDMDL
MODEL 3
REMARK VINA RESULT:      -8.0      3.318     14.290
REMARK  Name = C:\Users\Docking\Desktop\test protocol\1iep_ligandH.pdb
REMARK  8 active torsions:
REMARK  status: ('A' for Active; 'I' for Inactive)
REMARK    1  A    between atoms: _5  and  _11
REMARK    2  A    between atoms: _19  and  _21
REMARK    3  A    between atoms: _22  and  _66
REMARK    4  A    between atoms: _27  and  _30
REMARK    5  A    between atoms: _32  and  _33
REMARK    6  A    between atoms: _38  and  _43
REMARK    7  A    between atoms: _43  and  _46
REMARK    8  A    between atoms: _53  and  _55
REMARK                            x       y       z     vdW  Elec       q    Type
REMARK                         _______ _______ _______ _____ _____    ______ ____
ROOT
ATOM     10  C   UNL     1      19.960  25.378   4.272  0.00  0.00    +0.038 A 
ATOM     11  C   UNL     1      18.631  25.337   4.766  0.00  0.00    +0.047 A 
ATOM     12  C   UNL     1      17.918  24.077   4.906  0.00  0.00    +0.035 A 
ATOM     32  C   UNL     1      18.591  22.876   4.535  0.00  0.00    +0.024 A 
ATOM     33  C   UNL     1      19.941  22.899   4.031  0.00  0.00    +0.007 A 
ATOM     34  C   UNL     1      20.648  24.140   3.888  0.00  0.00    -0.029 A 
ATOM     35  C   UNL     1      22.092  24.106   3.336  0.00  0.00    +0.045 C 
ENDROOT
BRANCH  10   9
ATOM      4  C   UNL     1      21.100  29.342   1.818  0.00  0.00    +0.077 A 
ATOM      5  C   UNL     1      20.390  28.897   0.654  0.00  0.00    +0.048 A 
ATOM      6  C   UNL     1      19.750  27.639   0.725  0.00  0.00    +0.116 A 
ATOM      7  N   UNL     1      19.822  26.891   1.880  0.00  0.00    -0.223 NA
ATOM      8  C   UNL     1      20.518  27.349   2.984  0.00  0.00    +0.220 A 
ATOM      9  N   UNL     1      20.597  26.616   4.159  0.00  0.00    -0.283 N 
ATOM     36  H   UNL     1      21.125  26.985   4.949  0.00  0.00    +0.155 HD
ATOM     37  N   UNL     1      21.138  28.546   2.941  0.00  0.00    -0.214 NA
BRANCH   4   3
ATOM      1  C   UNL     1      23.233  32.491   0.903  0.00  0.00    +0.020 A 
ATOM      2  C   UNL     1      22.551  31.224   0.773  0.00  0.00    +0.013 A 
ATOM      3  C   UNL     1      21.824  30.650   1.899  0.00  0.00    +0.019 A 
ATOM     38  C   UNL     1      21.806  31.390   3.151  0.00  0.00    +0.120 A 
ATOM     39  N   UNL     1      22.473  32.607   3.248  0.00  0.00    -0.263 NA
ATOM     40  C   UNL     1      23.178  33.168   2.172  0.00  0.00    +0.111 A 
ENDBRANCH   4   3
ENDBRANCH  10   9
BRANCH  12  13
ATOM     13  N   UNL     1      16.565  23.974   5.393  0.00  0.00    -0.281 N 
ATOM     14  C   UNL     1      15.549  23.160   4.921  0.00  0.00    +0.248 C 
ATOM     30  O   UNL     1      15.590  22.546   3.865  0.00  0.00    -0.270 OA
ATOM     31  H   UNL     1      16.328  24.576   6.183  0.00  0.00    +0.155 HD
BRANCH  14  15
ATOM     15  C   UNL     1      14.303  23.016   5.733  0.00  0.00    +0.037 A 
ATOM     16  C   UNL     1      13.258  22.059   5.360  0.00  0.00    +0.013 A 
ATOM     17  C   UNL     1      12.058  21.953   6.151  0.00  0.00    +0.005 A 
ATOM     18  C   UNL     1      11.896  22.807   7.325  0.00  0.00    -0.033 A 
ATOM     28  C   UNL     1      12.951  23.744   7.676  0.00  0.00    +0.005 A 
ATOM     29  C   UNL     1      14.128  23.851   6.903  0.00  0.00    +0.013 A 
BRANCH  18  19
ATOM     19  C   UNL     1      10.640  22.776   8.215  0.00  0.00    +0.119 C 
BRANCH  19  20
ATOM     20  N   UNL     1      10.384  21.528   8.995  0.00  0.00    -0.302 NA
ATOM     21  C   UNL     1       9.077  21.605   9.789  0.00  0.00    +0.066 C 
ATOM     22  C   UNL     1       8.815  20.283  10.581  0.00  0.00    -0.064 C 
ATOM     23  N   UNL     1       9.997  20.005  11.511  0.00  0.00    +0.379 N 
ATOM     24  C   UNL     1       9.728  18.794  12.299  0.00  0.00    -0.096 C 
ATOM     25  H   UNL     1      10.077  20.861  12.221  0.00  0.00    -0.082 HD
ATOM     26  C   UNL     1      11.302  19.930  10.730  0.00  0.00    -0.064 C 
ATOM     27  C   UNL     1      11.538  21.237   9.922  0.00  0.00    +0.066 C 
ENDBRANCH  19  20
ENDBRANCH  18  19
ENDBRANCH  14  15
ENDBRANCH  12  13
TORSDOF 6
ENDMDL
MODEL 4
REMARK VINA RESULT:      -7.9      5.291     10.025
REMARK  Name = C:\Users\Docking\Desktop\test protocol\1iep_ligandH.pdb
REMARK  8 active torsions:
REMARK  status: ('A' for Active; 'I' for Inactive)
REMARK    1  A    between atoms: _5  and  _11
REMARK    2  A    between atoms: _19  and  _21
REMARK    3  A    between atoms: _22  and  _66
REMARK    4  A    between atoms: _27  and  _30
REMARK    5  A    between atoms: _32  and  _33
REMARK    6  A    between atoms: _38  and  _43
REMARK    7  A    between atoms: _43  and  _46
REMARK    8  A    between atoms: _53  and  _55
REMARK                            x       y       z     vdW  Elec       q    Type
REMARK                         _______ _______ _______ _____ _____    ______ ____
ROOT
ATOM     10  C   UNL     1      12.266  23.444   7.622  0.00  0.00    +0.038 A 
ATOM     11  C   UNL     1      13.491  23.784   6.993  0.00  0.00    +0.047 A 
ATOM     12  C   UNL     1      14.748  23.190   7.423  0.00  0.00    +0.035 A 
ATOM     32  C   UNL     1      14.720  22.253   8.496  0.00  0.00    +0.024 A 
ATOM     33  C   UNL     1      13.484  21.897   9.148  0.00  0.00    +0.007 A 
ATOM     34  C   UNL     1      12.242  22.481   8.730  0.00  0.00    -0.029 A 
ATOM     35  C   UNL     1      10.948  22.068   9.469  0.00  0.00    +0.045 C 
ENDROOT
BRANCH  10   9
ATOM      4  C   UNL     1       9.166  27.106   7.475  0.00  0.00    +0.077 A 
ATOM      5  C   UNL     1       9.944  27.878   8.401  0.00  0.00    +0.048 A 
ATOM      6  C   UNL     1      11.131  27.294   8.897  0.00  0.00    +0.116 A 
ATOM      7  N   UNL     1      11.503  26.031   8.490  0.00  0.00    -0.223 NA
ATOM      8  C   UNL     1      10.730  25.313   7.597  0.00  0.00    +0.220 A 
ATOM      9  N   UNL     1      11.090  24.044   7.169  0.00  0.00    -0.283 N 
ATOM     36  H   UNL     1      10.488  23.544   6.515  0.00  0.00    +0.155 HD
ATOM     37  N   UNL     1       9.591  25.848   7.110  0.00  0.00    -0.214 NA
BRANCH   4   3
ATOM      1  C   UNL     1       5.547  28.514   7.006  0.00  0.00    +0.020 A 
ATOM      2  C   UNL     1       6.758  28.059   7.649  0.00  0.00    +0.013 A 
ATOM      3  C   UNL     1       7.889  27.587   6.860  0.00  0.00    +0.019 A 
ATOM     38  C   UNL     1       7.761  27.589   5.411  0.00  0.00    +0.120 A 
ATOM     39  N   UNL     1       6.582  28.031   4.819  0.00  0.00    -0.263 NA
ATOM     40  C   UNL     1       5.487  28.486   5.568  0.00  0.00    +0.111 A 
ENDBRANCH   4   3
ENDBRANCH  10   9
BRANCH  12  13
ATOM     13  N   UNL     1      16.024  23.502   6.827  0.00  0.00    -0.281 N 
ATOM     14  C   UNL     1      16.745  22.749   5.916  0.00  0.00    +0.248 C 
ATOM     30  O   UNL     1      16.501  21.585   5.635  0.00  0.00    -0.270 OA
ATOM     31  H   UNL     1      16.446  24.386   7.112  0.00  0.00    +0.155 HD
BRANCH  14  15
ATOM     15  C   UNL     1      17.915  23.374   5.228  0.00  0.00    +0.037 A 
ATOM     16  C   UNL     1      19.254  22.788   5.322  0.00  0.00    +0.013 A 
ATOM     17  C   UNL     1      20.369  23.421   4.662  0.00  0.00    +0.005 A 
ATOM     18  C   UNL     1      20.147  24.648   3.900  0.00  0.00    -0.033 A 
ATOM     28  C   UNL     1      18.807  25.205   3.819  0.00  0.00    +0.005 A 
ATOM     29  C   UNL     1      17.713  24.588   4.465  0.00  0.00    +0.013 A 
BRANCH  18  19
ATOM     19  C   UNL     1      21.282  25.402   3.182  0.00  0.00    +0.119 C 
BRANCH  19  20
ATOM     20  N   UNL     1      20.896  26.314   2.064  0.00  0.00    -0.302 NA
ATOM     21  C   UNL     1      20.912  25.600   0.709  0.00  0.00    +0.066 C 
ATOM     22  C   UNL     1      20.484  26.563  -0.446  0.00  0.00    -0.064 C 
ATOM     23  N   UNL     1      21.412  27.779  -0.463  0.00  0.00    +0.379 N 
ATOM     24  C   UNL     1      21.048  28.657  -1.585  0.00  0.00    -0.096 C 
ATOM     25  H   UNL     1      22.448  27.411  -0.644  0.00  0.00    -0.082 HD
ATOM     26  C   UNL     1      21.403  28.493   0.881  0.00  0.00    -0.064 C 
ATOM     27  C   UNL     1      21.802  27.520   2.026  0.00  0.00    +0.066 C 
ENDBRANCH  19  20
ENDBRANCH  18  19
ENDBRANCH  14  15
ENDBRANCH  12  13
TORSDOF 6
ENDMDL
MODEL 5
REMARK VINA RESULT:      -7.8      7.340     10.802
REMARK  Name = C:\Users\Docking\Desktop\test protocol\1iep_ligandH.pdb
REMARK  8 active torsions:
REMARK  status: ('A' for Active; 'I' for Inactive)
REMARK    1  A    between atoms: _5  and  _11
REMARK    2  A    between atoms: _19  and  _21
REMARK    3  A    between atoms: _22  and  _66
REMARK    4  A    between atoms: _27  and  _30
REMARK    5  A    between atoms: _32  and  _33
REMARK    6  A    between atoms: _38  and  _43
REMARK    7  A    between atoms: _43  and  _46
REMARK    8  A    between atoms: _53  and  _55
REMARK                            x       y       z     vdW  Elec       q    Type
REMARK                         _______ _______ _______ _____ _____    ______ ____
ROOT
ATOM     10  C   UNL     1      12.469  23.347   7.625  0.00  0.00    +0.038 A 
ATOM     11  C   UNL     1      13.721  23.623   7.020  0.00  0.00    +0.047 A 
ATOM     12  C   UNL     1      14.946  23.014   7.515  0.00  0.00    +0.035 A 
ATOM     32  C   UNL     1      14.858  22.125   8.625  0.00  0.00    +0.024 A 
ATOM     33  C   UNL     1      13.593  21.834   9.253  0.00  0.00    +0.007 A 
ATOM     34  C   UNL     1      12.382  22.434   8.771  0.00  0.00    -0.029 A 
ATOM     35  C   UNL     1      11.055  22.090   9.486  0.00  0.00    +0.045 C 
ENDROOT
BRANCH  10   9
ATOM      4  C   UNL     1       9.359  26.996   7.396  0.00  0.00    +0.077 A 
ATOM      5  C   UNL     1      10.059  27.733   8.409  0.00  0.00    +0.048 A 
ATOM      6  C   UNL     1      11.210  27.134   8.969  0.00  0.00    +0.116 A 
ATOM      7  N   UNL     1      11.622  25.891   8.539  0.00  0.00    -0.223 NA
ATOM      8  C   UNL     1      10.923  25.207   7.562  0.00  0.00    +0.220 A 
ATOM      9  N   UNL     1      11.324  23.959   7.109  0.00  0.00    -0.283 N 
ATOM     36  H   UNL     1      10.778  23.484   6.392  0.00  0.00    +0.155 HD
ATOM     37  N   UNL     1       9.820  25.756   7.013  0.00  0.00    -0.214 NA
BRANCH   4   3
ATOM      1  C   UNL     1       5.769  28.391   6.715  0.00  0.00    +0.020 A 
ATOM      2  C   UNL     1       6.932  27.915   7.428  0.00  0.00    +0.013 A 
ATOM      3  C   UNL     1       8.128  27.496   6.708  0.00  0.00    +0.019 A 
ATOM     38  C   UNL     1       8.114  27.573   5.255  0.00  0.00    +0.120 A 
ATOM     39  N   UNL     1       6.979  28.034   4.595  0.00  0.00    -0.263 NA
ATOM     40  C   UNL     1       5.822  28.438   5.278  0.00  0.00    +0.111 A 
ENDBRANCH   4   3
ENDBRANCH  10   9
BRANCH  12  13
ATOM     13  N   UNL     1      16.248  23.263   6.946  0.00  0.00    -0.281 N 
ATOM     14  C   UNL     1      16.879  22.570   5.926  0.00  0.00    +0.248 C 
ATOM     30  O   UNL     1      16.505  21.491   5.490  0.00  0.00    -0.270 OA
ATOM     31  H   UNL     1      16.767  24.045   7.345  0.00  0.00    +0.155 HD
BRANCH  14  15
ATOM     15  C   UNL     1      18.111  23.152   5.312  0.00  0.00    +0.037 A 
ATOM     16  C   UNL     1      18.086  24.462   4.656  0.00  0.00    +0.013 A 
ATOM     17  C   UNL     1      19.285  24.993   4.056  0.00  0.00    +0.005 A 
ATOM     18  C   UNL     1      20.519  24.213   4.111  0.00  0.00    -0.033 A 
ATOM     28  C   UNL     1      20.516  22.919   4.773  0.00  0.00    +0.005 A 
ATOM     29  C   UNL     1      19.343  22.395   5.361  0.00  0.00    +0.013 A 
BRANCH  18  19
ATOM     19  C   UNL     1      21.840  24.692   3.480  0.00  0.00    +0.119 C 
BRANCH  19  20
ATOM     20  N   UNL     1      22.720  23.654   2.867  0.00  0.00    -0.302 NA
ATOM     21  C   UNL     1      24.071  23.551   3.581  0.00  0.00    +0.066 C 
ATOM     22  C   UNL     1      24.971  22.445   2.941  0.00  0.00    -0.064 C 
ATOM     23  N   UNL     1      25.166  22.747   1.454  0.00  0.00    +0.379 N 
ATOM     24  C   UNL     1      26.059  21.740   0.862  0.00  0.00    -0.096 C 
ATOM     25  H   UNL     1      25.672  23.737   1.374  0.00  0.00    -0.082 HD
ATOM     26  C   UNL     1      23.828  22.853   0.737  0.00  0.00    -0.064 C 
ATOM     27  C   UNL     1      22.930  23.935   1.399  0.00  0.00    +0.066 C 
ENDBRANCH  19  20
ENDBRANCH  18  19
ENDBRANCH  14  15
ENDBRANCH  12  13
TORSDOF 6
ENDMDL
