MODEL 1
REMARK VINA RESULT:      -7.9      0.000      0.000
REMARK  Name = C:\Users\Docking\Desktop\test protocol\1iep_ligandH.pdb
REMARK  8 active torsions:
REMARK  status: ('A' for Active; 'I' for Inactive)
REMARK    1  A    between atoms: _5  and  _11
REMARK    2  A    between atoms: _19  and  _21
REMARK    3  A    between atoms: _22  and  _66
REMARK    4  A    between atoms: _27  and  _30
REMARK    5  A    between atoms: _32  and  _33
REMARK    6  A    between atoms: _38  and  _43
REMARK    7  A    between atoms: _43  and  _46
REMARK    8  A    between atoms: _53  and  _55
REMARK                            x       y       z     vdW  Elec       q    Type
REMARK                         _______ _______ _______ _____ _____    ______ ____
ROOT
ATOM     10  C   UNL     1      -7.485  34.615  -0.389  0.00  0.00    +0.038 A 
ATOM     11  C   UNL     1      -7.330  33.551  -1.314  0.00  0.00    +0.047 A 
ATOM     12  C   UNL     1      -6.298  32.541  -1.133  0.00  0.00    +0.035 A 
ATOM     32  C   UNL     1      -5.444  32.644   0.003  0.00  0.00    +0.024 A 
ATOM     33  C   UNL     1      -5.587  33.719   0.953  0.00  0.00    +0.007 A 
ATOM     34  C   UNL     1      -6.601  34.720   0.778  0.00  0.00    -0.029 A 
ATOM     35  C   UNL     1      -6.705  35.854   1.825  0.00  0.00    +0.045 C 
ENDROOT
BRANCH  10   9
ATOM      4  C   UNL     1     -12.030  36.117  -0.029  0.00  0.00    +0.077 A 
ATOM      5  C   UNL     1     -12.438  34.912   0.634  0.00  0.00    +0.048 A 
ATOM      6  C   UNL     1     -11.449  33.927   0.857  0.00  0.00    +0.116 A 
ATOM      7  N   UNL     1     -10.152  34.143   0.444  0.00  0.00    -0.223 NA
ATOM      8  C   UNL     1      -9.792  35.315  -0.194  0.00  0.00    +0.220 A 
ATOM      9  N   UNL     1      -8.492  35.556  -0.611  0.00  0.00    -0.283 N 
ATOM     36  H   UNL     1      -8.269  36.431  -1.085  0.00  0.00    +0.155 HD
ATOM     37  N   UNL     1     -10.718  36.270  -0.421  0.00  0.00    -0.214 NA
BRANCH   4   3
ATOM      1  C   UNL     1     -14.066  39.447   0.229  0.00  0.00    +0.020 A 
ATOM      2  C   UNL     1     -13.158  38.376   0.571  0.00  0.00    +0.013 A 
ATOM      3  C   UNL     1     -12.958  37.251  -0.334  0.00  0.00    +0.019 A 
ATOM     38  C   UNL     1     -13.697  37.241  -1.587  0.00  0.00    +0.120 A 
ATOM     39  N   UNL     1     -14.565  38.285  -1.889  0.00  0.00    -0.263 NA
ATOM     40  C   UNL     1     -14.767  39.372  -1.025  0.00  0.00    +0.111 A 
ENDBRANCH   4   3
ENDBRANCH  10   9
BRANCH  12  13
ATOM     13  N   UNL     1      -6.087  31.443  -2.044  0.00  0.00    -0.281 N 
ATOM     14  C   UNL     1      -7.014  30.512  -2.484  0.00  0.00    +0.248 C 
ATOM     30  O   UNL     1      -8.121  30.354  -1.992  0.00  0.00    -0.270 OA
ATOM     31  H   UNL     1      -5.140  31.340  -2.408  0.00  0.00    +0.155 HD
BRANCH  14  15
ATOM     15  C   UNL     1      -6.652  29.618  -3.626  0.00  0.00    +0.037 A 
ATOM     16  C   UNL     1      -7.629  28.692  -4.204  0.00  0.00    +0.013 A 
ATOM     17  C   UNL     1      -7.249  27.828  -5.294  0.00  0.00    +0.005 A 
ATOM     18  C   UNL     1      -5.885  27.888  -5.814  0.00  0.00    -0.033 A 
ATOM     28  C   UNL     1      -4.938  28.820  -5.225  0.00  0.00    +0.005 A 
ATOM     29  C   UNL     1      -5.306  29.668  -4.156  0.00  0.00    +0.013 A 
BRANCH  18  19
ATOM     19  C   UNL     1      -5.387  26.989  -6.961  0.00  0.00    +0.119 C 
BRANCH  19  20
ATOM     20  N   UNL     1      -6.421  26.287  -7.778  0.00  0.00    -0.302 NA
ATOM     21  C   UNL     1      -6.641  24.845  -7.311  0.00  0.00    +0.066 C 
ATOM     22  C   UNL     1      -7.741  24.133  -8.163  0.00  0.00    -0.064 C 
ATOM     23  N   UNL     1      -7.343  24.170  -9.639  0.00  0.00    +0.379 N 
ATOM     24  C   UNL     1      -8.348  23.450 -10.436  0.00  0.00    -0.096 C 
ATOM     25  H   UNL     1      -6.376  23.625  -9.742  0.00  0.00    -0.082 HD
ATOM     26  C   UNL     1      -7.120  25.600 -10.111  0.00  0.00    -0.064 C 
ATOM     27  C   UNL     1      -6.045  26.308  -9.239  0.00  0.00    +0.066 C 
ENDBRANCH  19  20
ENDBRANCH  18  19
ENDBRANCH  14  15
ENDBRANCH  12  13
TORSDOF 6
ENDMDL
MODEL 2
REMARK VINA RESULT:      -7.5     17.116     19.415
REMARK  Name = C:\Users\Docking\Desktop\test protocol\1iep_ligandH.pdb
REMARK  8 active torsions:
REMARK  status: ('A' for Active; 'I' for Inactive)
REMARK    1  A    between atoms: _5  and  _11
REMARK    2  A    between atoms: _19  and  _21
REMARK    3  A    between atoms: _22  and  _66
REMARK    4  A    between atoms: _27  and  _30
REMARK    5  A    between atoms: _32  and  _33
REMARK    6  A    between atoms: _38  and  _43
REMARK    7  A    between atoms: _43  and  _46
REMARK    8  A    between atoms: _53  and  _55
REMARK                            x       y       z     vdW  Elec       q    Type
REMARK                         _______ _______ _______ _____ _____    ______ ____
ROOT
ATOM     10  C   UNL     1       6.192  28.672 -14.314  0.00  0.00    +0.038 A 
ATOM     11  C   UNL     1       4.858  28.902 -14.736  0.00  0.00    +0.047 A 
ATOM     12  C   UNL     1       4.572  29.573 -15.995  0.00  0.00    +0.035 A 
ATOM     32  C   UNL     1       5.670  29.993 -16.801  0.00  0.00    +0.024 A 
ATOM     33  C   UNL     1       7.033  29.768 -16.387  0.00  0.00    +0.007 A 
ATOM     34  C   UNL     1       7.320  29.109 -15.145  0.00  0.00    -0.029 A 
ATOM     35  C   UNL     1       8.800  28.900 -14.747  0.00  0.00    +0.045 C 
ENDROOT
BRANCH  10   9
ATOM      4  C   UNL     1       6.787  28.699  -9.551  0.00  0.00    +0.077 A 
ATOM      5  C   UNL     1       6.685  30.128  -9.487  0.00  0.00    +0.048 A 
ATOM      6  C   UNL     1       6.486  30.820 -10.704  0.00  0.00    +0.116 A 
ATOM      7  N   UNL     1       6.398  30.123 -11.889  0.00  0.00    -0.223 NA
ATOM      8  C   UNL     1       6.502  28.745 -11.916  0.00  0.00    +0.220 A 
ATOM      9  N   UNL     1       6.408  28.023 -13.096  0.00  0.00    -0.283 N 
ATOM     36  H   UNL     1       6.498  27.008 -13.075  0.00  0.00    +0.155 HD
ATOM     37  N   UNL     1       6.693  28.061 -10.768  0.00  0.00    -0.214 NA
BRANCH   4   3
ATOM      1  C   UNL     1       7.680  25.664  -7.252  0.00  0.00    +0.020 A 
ATOM      2  C   UNL     1       7.498  26.463  -8.441  0.00  0.00    +0.013 A 
ATOM      3  C   UNL     1       6.994  27.827  -8.352  0.00  0.00    +0.019 A 
ATOM     38  C   UNL     1       6.681  28.357  -7.033  0.00  0.00    +0.120 A 
ATOM     39  N   UNL     1       6.865  27.564  -5.905  0.00  0.00    -0.263 NA
ATOM     40  C   UNL     1       7.348  26.249  -5.979  0.00  0.00    +0.111 A 
ENDBRANCH   4   3
ENDBRANCH  10   9
BRANCH  12  13
ATOM     13  N   UNL     1       3.238  29.842 -16.472  0.00  0.00    -0.281 N 
ATOM     14  C   UNL     1       2.501  31.006 -16.329  0.00  0.00    +0.248 C 
ATOM     30  O   UNL     1       2.798  31.924 -15.579  0.00  0.00    -0.270 OA
ATOM     31  H   UNL     1       2.782  29.082 -16.977  0.00  0.00    +0.155 HD
BRANCH  14  15
ATOM     15  C   UNL     1       1.245  31.168 -17.123  0.00  0.00    +0.037 A 
ATOM     16  C   UNL     1       0.728  30.079 -17.956  0.00  0.00    +0.013 A 
ATOM     17  C   UNL     1      -0.477  30.268 -18.725  0.00  0.00    +0.005 A 
ATOM     18  C   UNL     1      -1.174  31.550 -18.663  0.00  0.00    -0.033 A 
ATOM     28  C   UNL     1      -0.641  32.611 -17.823  0.00  0.00    +0.005 A 
ATOM     29  C   UNL     1       0.540  32.430 -17.069  0.00  0.00    +0.013 A 
BRANCH  18  19
ATOM     19  C   UNL     1      -2.454  31.847 -19.466  0.00  0.00    +0.119 C 
BRANCH  19  20
ATOM     20  N   UNL     1      -2.753  30.958 -20.629  0.00  0.00    -0.302 NA
ATOM     21  C   UNL     1      -2.870  31.745 -21.937  0.00  0.00    +0.066 C 
ATOM     22  C   UNL     1      -3.161  30.798 -23.147  0.00  0.00    -0.064 C 
ATOM     23  N   UNL     1      -4.440  30.005 -22.874  0.00  0.00    +0.379 N 
ATOM     24  C   UNL     1      -4.748  29.156 -24.034  0.00  0.00    -0.096 C 
ATOM     25  H   UNL     1      -5.273  30.737 -22.760  0.00  0.00    -0.082 HD
ATOM     26  C   UNL     1      -4.333  29.222 -21.573  0.00  0.00    -0.064 C 
ATOM     27  C   UNL     1      -4.015  30.169 -20.383  0.00  0.00    +0.066 C 
ENDBRANCH  19  20
ENDBRANCH  18  19
ENDBRANCH  14  15
ENDBRANCH  12  13
TORSDOF 6
ENDMDL
MODEL 3
REMARK VINA RESULT:      -7.5      7.984     14.732
REMARK  Name = C:\Users\Docking\Desktop\test protocol\1iep_ligandH.pdb
REMARK  8 active torsions:
REMARK  status: ('A' for Active; 'I' for Inactive)
REMARK    1  A    between atoms: _5  and  _11
REMARK    2  A    between atoms: _19  and  _21
REMARK    3  A    between atoms: _22  and  _66
REMARK    4  A    between atoms: _27  and  _30
REMARK    5  A    between atoms: _32  and  _33
REMARK    6  A    between atoms: _38  and  _43
REMARK    7  A    between atoms: _43  and  _46
REMARK    8  A    between atoms: _53  and  _55
REMARK                            x       y       z     vdW  Elec       q    Type
REMARK                         _______ _______ _______ _____ _____    ______ ____
ROOT
ATOM     10  C   UNL     1      -7.897  21.800  -8.960  0.00  0.00    +0.038 A 
ATOM     11  C   UNL     1      -6.942  20.758  -8.844  0.00  0.00    +0.047 A 
ATOM     12  C   UNL     1      -6.922  19.648  -9.783  0.00  0.00    +0.035 A 
ATOM     32  C   UNL     1      -7.888  19.632 -10.831  0.00  0.00    +0.024 A 
ATOM     33  C   UNL     1      -8.867  20.682 -10.964  0.00  0.00    +0.007 A 
ATOM     34  C   UNL     1      -8.893  21.779 -10.039  0.00  0.00    -0.029 A 
ATOM     35  C   UNL     1      -9.969  22.874 -10.225  0.00  0.00    +0.045 C 
ENDROOT
BRANCH  10   9
ATOM      4  C   UNL     1      -6.439  26.133  -7.499  0.00  0.00    +0.077 A 
ATOM      5  C   UNL     1      -5.641  26.326  -8.675  0.00  0.00    +0.048 A 
ATOM      6  C   UNL     1      -5.627  25.284  -9.628  0.00  0.00    +0.116 A 
ATOM      7  N   UNL     1      -6.361  24.138  -9.411  0.00  0.00    -0.223 NA
ATOM      8  C   UNL     1      -7.119  23.983  -8.266  0.00  0.00    +0.220 A 
ATOM      9  N   UNL     1      -7.871  22.842  -8.030  0.00  0.00    -0.283 N 
ATOM     36  H   UNL     1      -8.412  22.763  -7.169  0.00  0.00    +0.155 HD
ATOM     37  N   UNL     1      -7.148  24.964  -7.339  0.00  0.00    -0.214 NA
BRANCH   4   3
ATOM      1  C   UNL     1      -5.590  28.861  -4.827  0.00  0.00    +0.020 A 
ATOM      2  C   UNL     1      -5.420  27.895  -5.888  0.00  0.00    +0.013 A 
ATOM      3  C   UNL     1      -6.559  27.145  -6.402  0.00  0.00    +0.019 A 
ATOM     38  C   UNL     1      -7.867  27.401  -5.818  0.00  0.00    +0.120 A 
ATOM     39  N   UNL     1      -8.000  28.336  -4.797  0.00  0.00    -0.263 NA
ATOM     40  C   UNL     1      -6.911  29.062  -4.293  0.00  0.00    +0.111 A 
ENDBRANCH   4   3
ENDBRANCH  10   9
BRANCH  12  13
ATOM     13  N   UNL     1      -5.981  18.557  -9.710  0.00  0.00    -0.281 N 
ATOM     14  C   UNL     1      -6.235  17.233  -9.392  0.00  0.00    +0.248 C 
ATOM     30  O   UNL     1      -7.283  16.827  -8.911  0.00  0.00    -0.270 OA
ATOM     31  H   UNL     1      -5.010  18.790  -9.918  0.00  0.00    +0.155 HD
BRANCH  14  15
ATOM     15  C   UNL     1      -5.167  16.216  -9.629  0.00  0.00    +0.037 A 
ATOM     16  C   UNL     1      -5.119  15.438 -10.870  0.00  0.00    +0.013 A 
ATOM     17  C   UNL     1      -4.088  14.451 -11.066  0.00  0.00    +0.005 A 
ATOM     18  C   UNL     1      -3.093  14.237 -10.018  0.00  0.00    -0.033 A 
ATOM     28  C   UNL     1      -3.160  15.026  -8.799  0.00  0.00    +0.005 A 
ATOM     29  C   UNL     1      -4.170  15.994  -8.603  0.00  0.00    +0.013 A 
BRANCH  18  19
ATOM     19  C   UNL     1      -1.969  13.190 -10.133  0.00  0.00    +0.119 C 
BRANCH  19  20
ATOM     20  N   UNL     1      -0.748  13.578 -10.901  0.00  0.00    -0.302 NA
ATOM     21  C   UNL     1       0.261  12.431 -10.994  0.00  0.00    +0.066 C 
ATOM     22  C   UNL     1       1.522  12.847 -11.819  0.00  0.00    -0.064 C 
ATOM     23  N   UNL     1       2.162  14.081 -11.180  0.00  0.00    +0.379 N 
ATOM     24  C   UNL     1       3.380  14.440 -11.920  0.00  0.00    -0.096 C 
ATOM     25  H   UNL     1       2.464  13.806 -10.143  0.00  0.00    -0.082 HD
ATOM     26  C   UNL     1       1.164  15.226 -11.081  0.00  0.00    -0.064 C 
ATOM     27  C   UNL     1      -0.098  14.792 -10.284  0.00  0.00    +0.066 C 
ENDBRANCH  19  20
ENDBRANCH  18  19
ENDBRANCH  14  15
ENDBRANCH  12  13
TORSDOF 6
ENDMDL
MODEL 4
REMARK VINA RESULT:      -7.4     32.704     34.815
REMARK  Name = C:\Users\Docking\Desktop\test protocol\1iep_ligandH.pdb
REMARK  8 active torsions:
REMARK  status: ('A' for Active; 'I' for Inactive)
REMARK    1  A    between atoms: _5  and  _11
REMARK    2  A    between atoms: _19  and  _21
REMARK    3  A    between atoms: _22  and  _66
REMARK    4  A    between atoms: _27  and  _30
REMARK    5  A    between atoms: _32  and  _33
REMARK    6  A    between atoms: _38  and  _43
REMARK    7  A    between atoms: _43  and  _46
REMARK    8  A    between atoms: _53  and  _55
REMARK                            x       y       z     vdW  Elec       q    Type
REMARK                         _______ _______ _______ _____ _____    ______ ____
ROOT
ATOM     10  C   UNL     1     -28.783  57.649 -20.882  0.00  0.00    +0.038 A 
ATOM     11  C   UNL     1     -28.143  56.518 -21.450  0.00  0.00    +0.047 A 
ATOM     12  C   UNL     1     -27.190  56.661 -22.539  0.00  0.00    +0.035 A 
ATOM     32  C   UNL     1     -26.910  57.972 -23.025  0.00  0.00    +0.024 A 
ATOM     33  C   UNL     1     -27.552  59.132 -22.460  0.00  0.00    +0.007 A 
ATOM     34  C   UNL     1     -28.495  58.997 -21.387  0.00  0.00    -0.029 A 
ATOM     35  C   UNL     1     -29.159  60.276 -20.825  0.00  0.00    +0.045 C 
ENDROOT
BRANCH  10   9
ATOM      4  C   UNL     1     -29.831  57.149 -16.225  0.00  0.00    +0.077 A 
ATOM      5  C   UNL     1     -28.453  57.259 -15.842  0.00  0.00    +0.048 A 
ATOM      6  C   UNL     1     -27.505  57.436 -16.875  0.00  0.00    +0.116 A 
ATOM      7  N   UNL     1     -27.916  57.498 -18.189  0.00  0.00    -0.223 NA
ATOM      8  C   UNL     1     -29.253  57.387 -18.524  0.00  0.00    +0.220 A 
ATOM      9  N   UNL     1     -29.690  57.454 -19.838  0.00  0.00    -0.283 N 
ATOM     36  H   UNL     1     -30.684  57.361 -20.044  0.00  0.00    +0.155 HD
ATOM     37  N   UNL     1     -30.178  57.216 -17.556  0.00  0.00    -0.214 NA
BRANCH   4   3
ATOM      1  C   UNL     1     -33.123  55.913 -14.513  0.00  0.00    +0.020 A 
ATOM      2  C   UNL     1     -32.067  56.057 -15.488  0.00  0.00    +0.013 A 
ATOM      3  C   UNL     1     -30.951  56.962 -15.249  0.00  0.00    +0.019 A 
ATOM     38  C   UNL     1     -30.932  57.712 -14.002  0.00  0.00    +0.120 A 
ATOM     39  N   UNL     1     -31.963  57.554 -13.082  0.00  0.00    -0.263 NA
ATOM     40  C   UNL     1     -33.044  56.687 -13.302  0.00  0.00    +0.111 A 
ENDBRANCH   4   3
ENDBRANCH  10   9
BRANCH  12  13
ATOM     13  N   UNL     1     -26.515  55.549 -23.161  0.00  0.00    -0.281 N 
ATOM     14  C   UNL     1     -25.204  55.139 -22.979  0.00  0.00    +0.248 C 
ATOM     30  O   UNL     1     -24.345  55.799 -22.413  0.00  0.00    -0.270 OA
ATOM     31  H   UNL     1     -27.071  54.996 -23.814  0.00  0.00    +0.155 HD
BRANCH  14  15
ATOM     15  C   UNL     1     -24.782  53.810 -23.517  0.00  0.00    +0.037 A 
ATOM     16  C   UNL     1     -25.602  53.091 -24.496  0.00  0.00    +0.013 A 
ATOM     17  C   UNL     1     -25.180  51.802 -24.986  0.00  0.00    +0.005 A 
ATOM     18  C   UNL     1     -23.930  51.225 -24.498  0.00  0.00    -0.033 A 
ATOM     28  C   UNL     1     -23.133  51.962 -23.531  0.00  0.00    +0.005 A 
ATOM     29  C   UNL     1     -23.544  53.225 -23.048  0.00  0.00    +0.013 A 
BRANCH  18  19
ATOM     19  C   UNL     1     -23.413  49.846 -24.950  0.00  0.00    +0.119 C 
BRANCH  19  20
ATOM     20  N   UNL     1     -24.238  49.100 -25.946  0.00  0.00    -0.302 NA
ATOM     21  C   UNL     1     -24.826  47.814 -25.356  0.00  0.00    +0.066 C 
ATOM     22  C   UNL     1     -25.704  47.057 -26.404  0.00  0.00    -0.064 C 
ATOM     23  N   UNL     1     -24.863  46.749 -27.644  0.00  0.00    +0.379 N 
ATOM     24  C   UNL     1     -25.669  45.986 -28.608  0.00  0.00    -0.096 C 
ATOM     25  H   UNL     1     -24.015  46.100 -27.324  0.00  0.00    -0.082 HD
ATOM     26  C   UNL     1     -24.272  48.022 -28.235  0.00  0.00    -0.064 C 
ATOM     27  C   UNL     1     -23.425  48.781 -27.176  0.00  0.00    +0.066 C 
ENDBRANCH  19  20
ENDBRANCH  18  19
ENDBRANCH  14  15
ENDBRANCH  12  13
TORSDOF 6
ENDMDL
MODEL 5
REMARK VINA RESULT:      -7.2     31.463     32.806
REMARK  Name = C:\Users\Docking\Desktop\test protocol\1iep_ligandH.pdb
REMARK  8 active torsions:
REMARK  status: ('A' for Active; 'I' for Inactive)
REMARK    1  A    between atoms: _5  and  _11
REMARK    2  A    between atoms: _19  and  _21
REMARK    3  A    between atoms: _22  and  _66
REMARK    4  A    between atoms: _27  and  _30
REMARK    5  A    between atoms: _32  and  _33
REMARK    6  A    between atoms: _38  and  _43
REMARK    7  A    between atoms: _43  and  _46
REMARK    8  A    between atoms: _53  and  _55
REMARK                            x       y       z     vdW  Elec       q    Type
REMARK                         _______ _______ _______ _____ _____    ______ ____
ROOT
ATOM     10  C   UNL     1      14.022  22.911 -23.012  0.00  0.00    +0.038 A 
ATOM     11  C   UNL     1      13.630  21.552 -22.908  0.00  0.00    +0.047 A 
ATOM     12  C   UNL     1      14.467  20.578 -22.224  0.00  0.00    +0.035 A 
ATOM     32  C   UNL     1      15.695  21.024 -21.655  0.00  0.00    +0.024 A 
ATOM     33  C   UNL     1      16.109  22.401 -21.752  0.00  0.00    +0.007 A 
ATOM     34  C   UNL     1      15.290  23.366 -22.428  0.00  0.00    -0.029 A 
ATOM     35  C   UNL     1      15.787  24.828 -22.507  0.00  0.00    +0.045 C 
ENDROOT
BRANCH  10   9
ATOM      4  C   UNL     1      12.553  25.186 -26.975  0.00  0.00    +0.077 A 
ATOM      5  C   UNL     1      13.566  24.564 -27.778  0.00  0.00    +0.048 A 
ATOM      6  C   UNL     1      14.449  23.671 -27.132  0.00  0.00    +0.116 A 
ATOM      7  N   UNL     1      14.320  23.425 -25.782  0.00  0.00    -0.223 NA
ATOM      8  C   UNL     1      13.333  24.043 -25.036  0.00  0.00    +0.220 A 
ATOM      9  N   UNL     1      13.180  23.804 -23.679  0.00  0.00    -0.283 N 
ATOM     36  H   UNL     1      12.445  24.285 -23.162  0.00  0.00    +0.155 HD
ATOM     37  N   UNL     1      12.478  24.901 -25.630  0.00  0.00    -0.214 NA
BRANCH   4   3
ATOM      1  C   UNL     1       9.490  26.717 -28.865  0.00  0.00    +0.020 A 
ATOM      2  C   UNL     1      10.438  25.745 -28.372  0.00  0.00    +0.013 A 
ATOM      3  C   UNL     1      11.543  26.152 -27.513  0.00  0.00    +0.019 A 
ATOM     38  C   UNL     1      11.661  27.560 -27.168  0.00  0.00    +0.120 A 
ATOM     39  N   UNL     1      10.733  28.474 -27.659  0.00  0.00    -0.263 NA
ATOM     40  C   UNL     1       9.667  28.095 -28.488  0.00  0.00    +0.111 A 
ENDBRANCH   4   3
ENDBRANCH  10   9
BRANCH  12  13
ATOM     13  N   UNL     1      14.125  19.183 -22.094  0.00  0.00    -0.281 N 
ATOM     14  C   UNL     1      14.668  18.106 -22.776  0.00  0.00    +0.248 C 
ATOM     30  O   UNL     1      15.386  18.202 -23.760  0.00  0.00    -0.270 OA
ATOM     31  H   UNL     1      13.393  18.963 -21.418  0.00  0.00    +0.155 HD
BRANCH  14  15
ATOM     15  C   UNL     1      14.357  16.723 -22.304  0.00  0.00    +0.037 A 
ATOM     16  C   UNL     1      14.811  15.546 -23.049  0.00  0.00    +0.013 A 
ATOM     17  C   UNL     1      14.482  14.222 -22.581  0.00  0.00    +0.005 A 
ATOM     18  C   UNL     1      13.697  14.069 -21.359  0.00  0.00    -0.033 A 
ATOM     28  C   UNL     1      13.264  15.254 -20.636  0.00  0.00    +0.005 A 
ATOM     29  C   UNL     1      13.583  16.552 -21.093  0.00  0.00    +0.013 A 
BRANCH  18  19
ATOM     19  C   UNL     1      13.283  12.696 -20.798  0.00  0.00    +0.119 C 
BRANCH  19  20
ATOM     20  N   UNL     1      12.490  12.686 -19.532  0.00  0.00    -0.302 NA
ATOM     21  C   UNL     1      13.381  12.528 -18.297  0.00  0.00    +0.066 C 
ATOM     22  C   UNL     1      12.538  12.541 -16.981  0.00  0.00    -0.064 C 
ATOM     23  N   UNL     1      11.490  11.429 -17.038  0.00  0.00    +0.379 N 
ATOM     24  C   UNL     1      10.733  11.402 -15.778  0.00  0.00    -0.096 C 
ATOM     25  H   UNL     1      12.031  10.459 -17.129  0.00  0.00    -0.082 HD
ATOM     26  C   UNL     1      10.601  11.577 -18.265  0.00  0.00    -0.064 C 
ATOM     27  C   UNL     1      11.451  11.592 -19.566  0.00  0.00    +0.066 C 
ENDBRANCH  19  20
ENDBRANCH  18  19
ENDBRANCH  14  15
ENDBRANCH  12  13
TORSDOF 6
ENDMDL
