MODEL 1
REMARK VINA RESULT:      -6.9      0.000      0.000
REMARK  Name = C:\Users\Docking\Desktop\test protocol\1iep_ligandH.pdb
REMARK  8 active torsions:
REMARK  status: ('A' for Active; 'I' for Inactive)
REMARK    1  A    between atoms: _5  and  _11
REMARK    2  A    between atoms: _19  and  _21
REMARK    3  A    between atoms: _22  and  _66
REMARK    4  A    between atoms: _27  and  _30
REMARK    5  A    between atoms: _32  and  _33
REMARK    6  A    between atoms: _38  and  _43
REMARK    7  A    between atoms: _43  and  _46
REMARK    8  A    between atoms: _53  and  _55
REMARK                            x       y       z     vdW  Elec       q    Type
REMARK                         _______ _______ _______ _____ _____    ______ ____
ROOT
ATOM     10  C   UNL     1     -36.974   8.329 -45.248  0.00  0.00    +0.038 A 
ATOM     11  C   UNL     1     -37.406   7.319 -44.350  0.00  0.00    +0.047 A 
ATOM     12  C   UNL     1     -37.169   5.912 -44.629  0.00  0.00    +0.035 A 
ATOM     32  C   UNL     1     -36.486   5.567 -45.832  0.00  0.00    +0.024 A 
ATOM     33  C   UNL     1     -36.041   6.580 -46.757  0.00  0.00    +0.007 A 
ATOM     34  C   UNL     1     -36.274   7.970 -46.487  0.00  0.00    -0.029 A 
ATOM     35  C   UNL     1     -35.780   9.013 -47.517  0.00  0.00    +0.045 C 
ENDROOT
BRANCH  10   9
ATOM      4  C   UNL     1     -39.756  12.239 -45.311  0.00  0.00    +0.077 A 
ATOM      5  C   UNL     1     -40.778  11.572 -46.066  0.00  0.00    +0.048 A 
ATOM      6  C   UNL     1     -40.546  10.225 -46.424  0.00  0.00    +0.116 A 
ATOM      7  N   UNL     1     -39.375   9.602 -46.049  0.00  0.00    -0.223 NA
ATOM      8  C   UNL     1     -38.409  10.274 -45.323  0.00  0.00    +0.220 A 
ATOM      9  N   UNL     1     -37.228   9.664 -44.930  0.00  0.00    -0.283 N 
ATOM     36  H   UNL     1     -36.538  10.197 -44.401  0.00  0.00    +0.155 HD
ATOM     37  N   UNL     1     -38.607  11.562 -44.971  0.00  0.00    -0.214 NA
BRANCH   4   3
ATOM      1  C   UNL     1     -40.234  15.423 -43.089  0.00  0.00    +0.020 A 
ATOM      2  C   UNL     1     -40.149  14.034 -43.477  0.00  0.00    +0.013 A 
ATOM      3  C   UNL     1     -39.856  13.662 -44.856  0.00  0.00    +0.019 A 
ATOM     38  C   UNL     1     -39.652  14.728 -45.824  0.00  0.00    +0.120 A 
ATOM     39  N   UNL     1     -39.742  16.057 -45.422  0.00  0.00    -0.263 NA
ATOM     40  C   UNL     1     -40.025  16.427 -44.098  0.00  0.00    +0.111 A 
ENDBRANCH   4   3
ENDBRANCH  10   9
BRANCH  12  13
ATOM     13  N   UNL     1     -37.592   4.842 -43.759  0.00  0.00    -0.281 N 
ATOM     14  C   UNL     1     -36.829   4.141 -42.840  0.00  0.00    +0.248 C 
ATOM     30  O   UNL     1     -35.609   4.182 -42.779  0.00  0.00    -0.270 OA
ATOM     31  H   UNL     1     -38.572   4.570 -43.829  0.00  0.00    +0.155 HD
BRANCH  14  15
ATOM     15  C   UNL     1     -37.520   3.253 -41.856  0.00  0.00    +0.037 A 
ATOM     16  C   UNL     1     -37.825   1.856 -42.176  0.00  0.00    +0.013 A 
ATOM     17  C   UNL     1     -38.508   1.026 -41.215  0.00  0.00    +0.005 A 
ATOM     18  C   UNL     1     -38.890   1.592 -39.924  0.00  0.00    -0.033 A 
ATOM     28  C   UNL     1     -38.571   2.979 -39.630  0.00  0.00    +0.005 A 
ATOM     29  C   UNL     1     -37.903   3.796 -40.570  0.00  0.00    +0.013 A 
BRANCH  18  19
ATOM     19  C   UNL     1     -39.640   0.786 -38.847  0.00  0.00    +0.119 C 
BRANCH  19  20
ATOM     20  N   UNL     1     -38.853  -0.222 -38.075  0.00  0.00    -0.302 NA
ATOM     21  C   UNL     1     -37.357   0.104 -38.062  0.00  0.00    +0.066 C 
ATOM     22  C   UNL     1     -36.552  -0.949 -37.232  0.00  0.00    -0.064 C 
ATOM     23  N   UNL     1     -36.797  -2.344 -37.809  0.00  0.00    +0.379 N 
ATOM     24  C   UNL     1     -35.996  -3.329 -37.068  0.00  0.00    -0.096 C 
ATOM     25  H   UNL     1     -36.438  -2.341 -38.864  0.00  0.00    -0.082 HD
ATOM     26  C   UNL     1     -38.283  -2.675 -37.829  0.00  0.00    -0.064 C 
ATOM     27  C   UNL     1     -39.077  -1.607 -38.631  0.00  0.00    +0.066 C 
ENDBRANCH  19  20
ENDBRANCH  18  19
ENDBRANCH  14  15
ENDBRANCH  12  13
TORSDOF 6
ENDMDL
MODEL 2
REMARK VINA RESULT:      -6.9     25.449     27.795
REMARK  Name = C:\Users\Docking\Desktop\test protocol\1iep_ligandH.pdb
REMARK  8 active torsions:
REMARK  status: ('A' for Active; 'I' for Inactive)
REMARK    1  A    between atoms: _5  and  _11
REMARK    2  A    between atoms: _19  and  _21
REMARK    3  A    between atoms: _22  and  _66
REMARK    4  A    between atoms: _27  and  _30
REMARK    5  A    between atoms: _32  and  _33
REMARK    6  A    between atoms: _38  and  _43
REMARK    7  A    between atoms: _43  and  _46
REMARK    8  A    between atoms: _53  and  _55
REMARK                            x       y       z     vdW  Elec       q    Type
REMARK                         _______ _______ _______ _____ _____    ______ ____
ROOT
ATOM     10  C   UNL     1     -64.258  10.521 -30.354  0.00  0.00    +0.038 A 
ATOM     11  C   UNL     1     -62.941  10.527 -29.827  0.00  0.00    +0.047 A 
ATOM     12  C   UNL     1     -62.382  11.721 -29.213  0.00  0.00    +0.035 A 
ATOM     32  C   UNL     1     -63.193  12.892 -29.151  0.00  0.00    +0.024 A 
ATOM     33  C   UNL     1     -64.533  12.904 -29.683  0.00  0.00    +0.007 A 
ATOM     34  C   UNL     1     -65.089  11.729 -30.292  0.00  0.00    -0.029 A 
ATOM     35  C   UNL     1     -66.528  11.801 -30.852  0.00  0.00    +0.045 C 
ENDROOT
BRANCH  10   9
ATOM      4  C   UNL     1     -64.411   7.303 -33.912  0.00  0.00    +0.077 A 
ATOM      5  C   UNL     1     -63.462   8.038 -34.697  0.00  0.00    +0.048 A 
ATOM      6  C   UNL     1     -62.963   9.242 -34.152  0.00  0.00    +0.116 A 
ATOM      7  N   UNL     1     -63.389   9.670 -32.914  0.00  0.00    -0.223 NA
ATOM      8  C   UNL     1     -64.307   8.939 -32.183  0.00  0.00    +0.220 A 
ATOM      9  N   UNL     1     -64.744   9.346 -30.932  0.00  0.00    -0.283 N 
ATOM     36  H   UNL     1     -65.428   8.782 -30.428  0.00  0.00    +0.155 HD
ATOM     37  N   UNL     1     -64.799   7.785 -32.682  0.00  0.00    -0.214 NA
BRANCH   4   3
ATOM      1  C   UNL     1     -64.880   3.610 -35.115  0.00  0.00    +0.020 A 
ATOM      2  C   UNL     1     -64.237   4.835 -34.698  0.00  0.00    +0.013 A 
ATOM      3  C   UNL     1     -65.026   6.010 -34.350  0.00  0.00    +0.019 A 
ATOM     38  C   UNL     1     -66.475   5.911 -34.433  0.00  0.00    +0.120 A 
ATOM     39  N   UNL     1     -67.067   4.719 -34.839  0.00  0.00    -0.263 NA
ATOM     40  C   UNL     1     -66.318   3.582 -35.178  0.00  0.00    +0.111 A 
ENDBRANCH   4   3
ENDBRANCH  10   9
BRANCH  12  13
ATOM     13  N   UNL     1     -61.049  11.789 -28.668  0.00  0.00    -0.281 N 
ATOM     14  C   UNL     1     -60.675  11.832 -27.334  0.00  0.00    +0.248 C 
ATOM     30  O   UNL     1     -61.445  12.033 -26.407  0.00  0.00    -0.270 OA
ATOM     31  H   UNL     1     -60.288  11.809 -29.347  0.00  0.00    +0.155 HD
BRANCH  14  15
ATOM     15  C   UNL     1     -59.236  11.635 -26.981  0.00  0.00    +0.037 A 
ATOM     16  C   UNL     1     -58.197  11.612 -28.013  0.00  0.00    +0.013 A 
ATOM     17  C   UNL     1     -56.818  11.404 -27.647  0.00  0.00    +0.005 A 
ATOM     18  C   UNL     1     -56.471  11.219 -26.240  0.00  0.00    -0.033 A 
ATOM     28  C   UNL     1     -57.522  11.253 -25.236  0.00  0.00    +0.005 A 
ATOM     29  C   UNL     1     -58.874  11.455 -25.591  0.00  0.00    +0.013 A 
BRANCH  18  19
ATOM     19  C   UNL     1     -55.029  10.971 -25.760  0.00  0.00    +0.119 C 
BRANCH  19  20
ATOM     20  N   UNL     1     -54.313   9.790 -26.329  0.00  0.00    -0.302 NA
ATOM     21  C   UNL     1     -55.099   8.491 -26.129  0.00  0.00    +0.066 C 
ATOM     22  C   UNL     1     -54.346   7.269 -26.750  0.00  0.00    -0.064 C 
ATOM     23  N   UNL     1     -52.953   7.161 -26.127  0.00  0.00    +0.379 N 
ATOM     24  C   UNL     1     -52.264   5.980 -26.666  0.00  0.00    -0.096 C 
ATOM     25  H   UNL     1     -53.085   7.005 -25.031  0.00  0.00    -0.082 HD
ATOM     26  C   UNL     1     -52.166   8.450 -26.318  0.00  0.00    -0.064 C 
ATOM     27  C   UNL     1     -52.937   9.662 -25.724  0.00  0.00    +0.066 C 
ENDBRANCH  19  20
ENDBRANCH  18  19
ENDBRANCH  14  15
ENDBRANCH  12  13
TORSDOF 6
ENDMDL
MODEL 3
REMARK VINA RESULT:      -6.8     16.292     18.538
REMARK  Name = C:\Users\Docking\Desktop\test protocol\1iep_ligandH.pdb
REMARK  8 active torsions:
REMARK  status: ('A' for Active; 'I' for Inactive)
REMARK    1  A    between atoms: _5  and  _11
REMARK    2  A    between atoms: _19  and  _21
REMARK    3  A    between atoms: _22  and  _66
REMARK    4  A    between atoms: _27  and  _30
REMARK    5  A    between atoms: _32  and  _33
REMARK    6  A    between atoms: _38  and  _43
REMARK    7  A    between atoms: _43  and  _46
REMARK    8  A    between atoms: _53  and  _55
REMARK                            x       y       z     vdW  Elec       q    Type
REMARK                         _______ _______ _______ _____ _____    ______ ____
ROOT
ATOM     10  C   UNL     1     -47.322  -6.438 -38.558  0.00  0.00    +0.038 A 
ATOM     11  C   UNL     1     -47.535  -6.015 -37.222  0.00  0.00    +0.047 A 
ATOM     12  C   UNL     1     -47.100  -6.828 -36.097  0.00  0.00    +0.035 A 
ATOM     32  C   UNL     1     -46.447  -8.066 -36.370  0.00  0.00    +0.024 A 
ATOM     33  C   UNL     1     -46.223  -8.512 -37.723  0.00  0.00    +0.007 A 
ATOM     34  C   UNL     1     -46.653  -7.715 -38.836  0.00  0.00    -0.029 A 
ATOM     35  C   UNL     1     -46.392  -8.245 -40.265  0.00  0.00    +0.045 C 
ENDROOT
BRANCH  10   9
ATOM      4  C   UNL     1     -50.680  -4.951 -41.648  0.00  0.00    +0.077 A 
ATOM      5  C   UNL     1     -51.634  -5.908 -41.164  0.00  0.00    +0.048 A 
ATOM      6  C   UNL     1     -51.218  -6.769 -40.123  0.00  0.00    +0.116 A 
ATOM      7  N   UNL     1     -49.941  -6.671 -39.613  0.00  0.00    -0.223 NA
ATOM      8  C   UNL     1     -49.046  -5.739 -40.104  0.00  0.00    +0.220 A 
ATOM      9  N   UNL     1     -47.760  -5.618 -39.601  0.00  0.00    -0.283 N 
ATOM     36  H   UNL     1     -47.127  -4.922 -39.995  0.00  0.00    +0.155 HD
ATOM     37  N   UNL     1     -49.418  -4.906 -41.099  0.00  0.00    -0.214 NA
BRANCH   4   3
ATOM      1  C   UNL     1     -51.113  -3.308 -45.172  0.00  0.00    +0.020 A 
ATOM      2  C   UNL     1     -50.818  -4.292 -44.155  0.00  0.00    +0.013 A 
ATOM      3  C   UNL     1     -50.971  -3.971 -42.742  0.00  0.00    +0.019 A 
ATOM     38  C   UNL     1     -51.429  -2.636 -42.388  0.00  0.00    +0.120 A 
ATOM     39  N   UNL     1     -51.703  -1.709 -43.389  0.00  0.00    -0.263 NA
ATOM     40  C   UNL     1     -51.558  -2.006 -44.752  0.00  0.00    +0.111 A 
ENDBRANCH   4   3
ENDBRANCH  10   9
BRANCH  12  13
ATOM     13  N   UNL     1     -47.296  -6.455 -34.718  0.00  0.00    -0.281 N 
ATOM     14  C   UNL     1     -48.405  -6.690 -33.922  0.00  0.00    +0.248 C 
ATOM     30  O   UNL     1     -49.488  -7.072 -34.340  0.00  0.00    -0.270 OA
ATOM     31  H   UNL     1     -46.524  -5.956 -34.275  0.00  0.00    +0.155 HD
BRANCH  14  15
ATOM     15  C   UNL     1     -48.301  -6.452 -32.450  0.00  0.00    +0.037 A 
ATOM     16  C   UNL     1     -47.050  -5.993 -31.841  0.00  0.00    +0.013 A 
ATOM     17  C   UNL     1     -46.971  -5.788 -30.416  0.00  0.00    +0.005 A 
ATOM     18  C   UNL     1     -48.149  -6.041 -29.590  0.00  0.00    -0.033 A 
ATOM     28  C   UNL     1     -49.379  -6.491 -30.221  0.00  0.00    +0.005 A 
ATOM     29  C   UNL     1     -49.460  -6.694 -31.617  0.00  0.00    +0.013 A 
BRANCH  18  19
ATOM     19  C   UNL     1     -48.150  -5.869 -28.060  0.00  0.00    +0.119 C 
BRANCH  19  20
ATOM     20  N   UNL     1     -47.869  -4.503 -27.525  0.00  0.00    -0.302 NA
ATOM     21  C   UNL     1     -48.087  -3.417 -28.582  0.00  0.00    +0.066 C 
ATOM     22  C   UNL     1     -47.810  -1.992 -27.999  0.00  0.00    -0.064 C 
ATOM     23  N   UNL     1     -46.383  -1.937 -27.450  0.00  0.00    +0.379 N 
ATOM     24  C   UNL     1     -46.101  -0.582 -26.954  0.00  0.00    -0.096 C 
ATOM     25  H   UNL     1     -45.688  -2.139 -28.298  0.00  0.00    -0.082 HD
ATOM     26  C   UNL     1     -46.158  -3.016 -26.401  0.00  0.00    -0.064 C 
ATOM     27  C   UNL     1     -46.464  -4.425 -26.982  0.00  0.00    +0.066 C 
ENDBRANCH  19  20
ENDBRANCH  18  19
ENDBRANCH  14  15
ENDBRANCH  12  13
TORSDOF 6
ENDMDL
MODEL 4
REMARK VINA RESULT:      -6.8      7.239     15.903
REMARK  Name = C:\Users\Docking\Desktop\test protocol\1iep_ligandH.pdb
REMARK  8 active torsions:
REMARK  status: ('A' for Active; 'I' for Inactive)
REMARK    1  A    between atoms: _5  and  _11
REMARK    2  A    between atoms: _19  and  _21
REMARK    3  A    between atoms: _22  and  _66
REMARK    4  A    between atoms: _27  and  _30
REMARK    5  A    between atoms: _32  and  _33
REMARK    6  A    between atoms: _38  and  _43
REMARK    7  A    between atoms: _43  and  _46
REMARK    8  A    between atoms: _53  and  _55
REMARK                            x       y       z     vdW  Elec       q    Type
REMARK                         _______ _______ _______ _____ _____    ______ ____
ROOT
ATOM     10  C   UNL     1     -44.914  -4.691 -40.145  0.00  0.00    +0.038 A 
ATOM     11  C   UNL     1     -43.979  -3.656 -39.885  0.00  0.00    +0.047 A 
ATOM     12  C   UNL     1     -42.881  -3.386 -40.800  0.00  0.00    +0.035 A 
ATOM     32  C   UNL     1     -42.767  -4.188 -41.974  0.00  0.00    +0.024 A 
ATOM     33  C   UNL     1     -43.708  -5.244 -42.253  0.00  0.00    +0.007 A 
ATOM     34  C   UNL     1     -44.791  -5.517 -41.352  0.00  0.00    -0.029 A 
ATOM     35  C   UNL     1     -45.766  -6.666 -41.700  0.00  0.00    +0.045 C 
ENDROOT
BRANCH  10   9
ATOM      4  C   UNL     1     -46.804  -6.924 -36.340  0.00  0.00    +0.077 A 
ATOM      5  C   UNL     1     -45.643  -7.750 -36.174  0.00  0.00    +0.048 A 
ATOM      6  C   UNL     1     -44.584  -7.573 -37.092  0.00  0.00    +0.116 A 
ATOM      7  N   UNL     1     -44.690  -6.638 -38.099  0.00  0.00    -0.223 NA
ATOM      8  C   UNL     1     -45.824  -5.859 -38.232  0.00  0.00    +0.220 A 
ATOM      9  N   UNL     1     -45.949  -4.906 -39.232  0.00  0.00    -0.283 N 
ATOM     36  H   UNL     1     -46.805  -4.357 -39.301  0.00  0.00    +0.155 HD
ATOM     37  N   UNL     1     -46.850  -6.009 -37.369  0.00  0.00    -0.214 NA
BRANCH   4   3
ATOM      1  C   UNL     1     -49.425  -6.138 -33.545  0.00  0.00    +0.020 A 
ATOM      2  C   UNL     1     -48.250  -6.030 -34.379  0.00  0.00    +0.013 A 
ATOM      3  C   UNL     1     -48.004  -6.990 -35.447  0.00  0.00    +0.019 A 
ATOM     38  C   UNL     1     -48.975  -8.055 -35.649  0.00  0.00    +0.120 A 
ATOM     39  N   UNL     1     -50.097  -8.135 -34.829  0.00  0.00    -0.263 NA
ATOM     40  C   UNL     1     -50.343  -7.218 -33.796  0.00  0.00    +0.111 A 
ENDBRANCH   4   3
ENDBRANCH  10   9
BRANCH  12  13
ATOM     13  N   UNL     1     -41.897  -2.355 -40.585  0.00  0.00    -0.281 N 
ATOM     14  C   UNL     1     -40.604  -2.498 -40.110  0.00  0.00    +0.248 C 
ATOM     30  O   UNL     1     -40.166  -3.515 -39.594  0.00  0.00    -0.270 OA
ATOM     31  H   UNL     1     -42.189  -1.404 -40.809  0.00  0.00    +0.155 HD
BRANCH  14  15
ATOM     15  C   UNL     1     -39.666  -1.339 -40.209  0.00  0.00    +0.037 A 
ATOM     16  C   UNL     1     -38.231  -1.539 -40.432  0.00  0.00    +0.013 A 
ATOM     17  C   UNL     1     -37.346  -0.404 -40.507  0.00  0.00    +0.005 A 
ATOM     18  C   UNL     1     -37.893   0.943 -40.361  0.00  0.00    -0.033 A 
ATOM     28  C   UNL     1     -39.321   1.113 -40.146  0.00  0.00    +0.005 A 
ATOM     29  C   UNL     1     -40.192   0.002 -40.071  0.00  0.00    +0.013 A 
BRANCH  18  19
ATOM     19  C   UNL     1     -37.020   2.210 -40.406  0.00  0.00    +0.119 C 
BRANCH  19  20
ATOM     20  N   UNL     1     -36.918   2.924 -41.714  0.00  0.00    -0.302 NA
ATOM     21  C   UNL     1     -35.482   3.356 -42.023  0.00  0.00    +0.066 C 
ATOM     22  C   UNL     1     -35.391   4.082 -43.405  0.00  0.00    -0.064 C 
ATOM     23  N   UNL     1     -36.331   5.288 -43.408  0.00  0.00    +0.379 N 
ATOM     24  C   UNL     1     -36.205   6.006 -44.685  0.00  0.00    -0.096 C 
ATOM     25  H   UNL     1     -35.999   5.977 -42.597  0.00  0.00    -0.082 HD
ATOM     26  C   UNL     1     -37.761   4.867 -43.099  0.00  0.00    -0.064 C 
ATOM     27  C   UNL     1     -37.836   4.121 -41.737  0.00  0.00    +0.066 C 
ENDBRANCH  19  20
ENDBRANCH  18  19
ENDBRANCH  14  15
ENDBRANCH  12  13
TORSDOF 6
ENDMDL
MODEL 5
REMARK VINA RESULT:      -6.7      7.373     11.668
REMARK  Name = C:\Users\Docking\Desktop\test protocol\1iep_ligandH.pdb
REMARK  8 active torsions:
REMARK  status: ('A' for Active; 'I' for Inactive)
REMARK    1  A    between atoms: _5  and  _11
REMARK    2  A    between atoms: _19  and  _21
REMARK    3  A    between atoms: _22  and  _66
REMARK    4  A    between atoms: _27  and  _30
REMARK    5  A    between atoms: _32  and  _33
REMARK    6  A    between atoms: _38  and  _43
REMARK    7  A    between atoms: _43  and  _46
REMARK    8  A    between atoms: _53  and  _55
REMARK                            x       y       z     vdW  Elec       q    Type
REMARK                         _______ _______ _______ _____ _____    ______ ____
ROOT
ATOM     10  C   UNL     1     -39.199  -0.946 -40.347  0.00  0.00    +0.038 A 
ATOM     11  C   UNL     1     -40.443  -1.397 -40.856  0.00  0.00    +0.047 A 
ATOM     12  C   UNL     1     -41.260  -2.345 -40.115  0.00  0.00    +0.035 A 
ATOM     32  C   UNL     1     -40.781  -2.811 -38.856  0.00  0.00    +0.024 A 
ATOM     33  C   UNL     1     -39.517  -2.363 -38.324  0.00  0.00    +0.007 A 
ATOM     34  C   UNL     1     -38.706  -1.430 -39.052  0.00  0.00    -0.029 A 
ATOM     35  C   UNL     1     -37.357  -0.990 -38.436  0.00  0.00    +0.045 C 
ENDROOT
BRANCH  10   9
ATOM      4  C   UNL     1     -38.214   3.510 -41.836  0.00  0.00    +0.077 A 
ATOM      5  C   UNL     1     -39.290   4.067 -41.068  0.00  0.00    +0.048 A 
ATOM      6  C   UNL     1     -40.077   3.173 -40.308  0.00  0.00    +0.116 A 
ATOM      7  N   UNL     1     -39.800   1.823 -40.324  0.00  0.00    -0.223 NA
ATOM      8  C   UNL     1     -38.756   1.318 -41.077  0.00  0.00    +0.220 A 
ATOM      9  N   UNL     1     -38.455  -0.035 -41.101  0.00  0.00    -0.283 N 
ATOM     36  H   UNL     1     -37.681  -0.369 -41.676  0.00  0.00    +0.155 HD
ATOM     37  N   UNL     1     -37.991   2.151 -41.812  0.00  0.00    -0.214 NA
BRANCH   4   3
ATOM      1  C   UNL     1     -36.761   6.333 -44.120  0.00  0.00    +0.020 A 
ATOM      2  C   UNL     1     -37.691   5.583 -43.308  0.00  0.00    +0.013 A 
ATOM      3  C   UNL     1     -37.292   4.326 -42.687  0.00  0.00    +0.019 A 
ATOM     38  C   UNL     1     -35.933   3.853 -42.908  0.00  0.00    +0.120 A 
ATOM     39  N   UNL     1     -35.060   4.597 -43.696  0.00  0.00    -0.263 NA
ATOM     40  C   UNL     1     -35.434   5.806 -44.300  0.00  0.00    +0.111 A 
ENDBRANCH   4   3
ENDBRANCH  10   9
BRANCH  12  13
ATOM     13  N   UNL     1     -42.528  -2.845 -40.585  0.00  0.00    -0.281 N 
ATOM     14  C   UNL     1     -42.825  -4.118 -41.043  0.00  0.00    +0.248 C 
ATOM     30  O   UNL     1     -41.989  -4.966 -41.319  0.00  0.00    -0.270 OA
ATOM     31  H   UNL     1     -43.301  -2.179 -40.580  0.00  0.00    +0.155 HD
BRANCH  14  15
ATOM     15  C   UNL     1     -44.257  -4.501 -41.235  0.00  0.00    +0.037 A 
ATOM     16  C   UNL     1     -45.041  -3.974 -42.355  0.00  0.00    +0.013 A 
ATOM     17  C   UNL     1     -46.425  -4.347 -42.507  0.00  0.00    +0.005 A 
ATOM     18  C   UNL     1     -47.034  -5.253 -41.536  0.00  0.00    -0.033 A 
ATOM     28  C   UNL     1     -46.232  -5.765 -40.438  0.00  0.00    +0.005 A 
ATOM     29  C   UNL     1     -44.875  -5.402 -40.285  0.00  0.00    +0.013 A 
BRANCH  18  19
ATOM     19  C   UNL     1     -48.510  -5.687 -41.609  0.00  0.00    +0.119 C 
BRANCH  19  20
ATOM     20  N   UNL     1     -49.413  -4.894 -42.495  0.00  0.00    -0.302 NA
ATOM     21  C   UNL     1     -50.394  -4.033 -41.694  0.00  0.00    +0.066 C 
ATOM     22  C   UNL     1     -51.316  -3.194 -42.638  0.00  0.00    -0.064 C 
ATOM     23  N   UNL     1     -52.067  -4.135 -43.581  0.00  0.00    +0.379 N 
ATOM     24  C   UNL     1     -52.978  -3.353 -44.430  0.00  0.00    -0.096 C 
ATOM     25  H   UNL     1     -52.689  -4.816 -42.955  0.00  0.00    -0.082 HD
ATOM     26  C   UNL     1     -51.099  -4.997 -44.380  0.00  0.00    -0.064 C 
ATOM     27  C   UNL     1     -50.168  -5.804 -43.433  0.00  0.00    +0.066 C 
ENDBRANCH  19  20
ENDBRANCH  18  19
ENDBRANCH  14  15
ENDBRANCH  12  13
TORSDOF 6
ENDMDL
