MODEL 1
REMARK VINA RESULT:      -8.8      0.000      0.000
REMARK  Name = C:\Users\Docking\Desktop\test protocol\1iep_ligandH.pdb
REMARK  8 active torsions:
REMARK  status: ('A' for Active; 'I' for Inactive)
REMARK    1  A    between atoms: _5  and  _11
REMARK    2  A    between atoms: _19  and  _21
REMARK    3  A    between atoms: _22  and  _66
REMARK    4  A    between atoms: _27  and  _30
REMARK    5  A    between atoms: _32  and  _33
REMARK    6  A    between atoms: _38  and  _43
REMARK    7  A    between atoms: _43  and  _46
REMARK    8  A    between atoms: _53  and  _55
REMARK                            x       y       z     vdW  Elec       q    Type
REMARK                         _______ _______ _______ _____ _____    ______ ____
ROOT
ATOM     10  C   UNL     1      29.083  23.502  22.801  0.00  0.00    +0.038 A 
ATOM     11  C   UNL     1      27.770  23.315  23.304  0.00  0.00    +0.047 A 
ATOM     12  C   UNL     1      26.878  22.321  22.727  0.00  0.00    +0.035 A 
ATOM     32  C   UNL     1      27.357  21.533  21.640  0.00  0.00    +0.024 A 
ATOM     33  C   UNL     1      28.688  21.711  21.116  0.00  0.00    +0.007 A 
ATOM     34  C   UNL     1      29.571  22.691  21.679  0.00  0.00    -0.029 A 
ATOM     35  C   UNL     1      30.986  22.843  21.073  0.00  0.00    +0.045 C 
ENDROOT
BRANCH  10   9
ATOM      4  C   UNL     1      31.479  25.300  26.551  0.00  0.00    +0.077 A 
ATOM      5  C   UNL     1      31.051  24.235  27.411  0.00  0.00    +0.048 A 
ATOM      6  C   UNL     1      30.209  23.248  26.851  0.00  0.00    +0.116 A 
ATOM      7  N   UNL     1      29.830  23.330  25.529  0.00  0.00    -0.223 NA
ATOM      8  C   UNL     1      30.259  24.372  24.728  0.00  0.00    +0.220 A 
ATOM      9  N   UNL     1      29.897  24.470  23.393  0.00  0.00    -0.283 N 
ATOM     36  H   UNL     1      30.228  25.258  22.837  0.00  0.00    +0.155 HD
ATOM     37  N   UNL     1      31.063  25.328  25.239  0.00  0.00    -0.214 NA
BRANCH   4   3
ATOM      1  C   UNL     1      32.778  28.676  28.040  0.00  0.00    +0.020 A 
ATOM      2  C   UNL     1      31.872  27.628  27.630  0.00  0.00    +0.013 A 
ATOM      3  C   UNL     1      32.373  26.416  26.995  0.00  0.00    +0.019 A 
ATOM     38  C   UNL     1      33.808  26.294  26.788  0.00  0.00    +0.120 A 
ATOM     39  N   UNL     1      34.657  27.320  27.192  0.00  0.00    -0.263 NA
ATOM     40  C   UNL     1      34.186  28.492  27.803  0.00  0.00    +0.111 A 
ENDBRANCH   4   3
ENDBRANCH  10   9
BRANCH  12  13
ATOM     13  N   UNL     1      25.532  22.092  23.191  0.00  0.00    -0.281 N 
ATOM     14  C   UNL     1      24.345  22.443  22.568  0.00  0.00    +0.248 C 
ATOM     30  O   UNL     1      24.264  23.203  21.615  0.00  0.00    -0.270 OA
ATOM     31  H   UNL     1      25.443  21.612  24.086  0.00  0.00    +0.155 HD
BRANCH  14  15
ATOM     15  C   UNL     1      23.062  21.881  23.089  0.00  0.00    +0.037 A 
ATOM     16  C   UNL     1      22.442  20.706  22.474  0.00  0.00    +0.013 A 
ATOM     17  C   UNL     1      21.195  20.194  22.985  0.00  0.00    +0.005 A 
ATOM     18  C   UNL     1      20.561  20.858  24.122  0.00  0.00    -0.033 A 
ATOM     28  C   UNL     1      21.201  22.020  24.717  0.00  0.00    +0.005 A 
ATOM     29  C   UNL     1      22.422  22.525  24.217  0.00  0.00    +0.013 A 
BRANCH  18  19
ATOM     19  C   UNL     1      19.220  20.394  24.720  0.00  0.00    +0.119 C 
BRANCH  19  20
ATOM     20  N   UNL     1      18.560  21.302  25.705  0.00  0.00    -0.302 NA
ATOM     21  C   UNL     1      18.183  20.571  26.997  0.00  0.00    +0.066 C 
ATOM     22  C   UNL     1      17.514  21.541  28.025  0.00  0.00    -0.064 C 
ATOM     23  N   UNL     1      16.281  22.184  27.388  0.00  0.00    +0.379 N 
ATOM     24  C   UNL     1      15.617  23.052  28.371  0.00  0.00    -0.096 C 
ATOM     25  H   UNL     1      15.572  21.366  27.124  0.00  0.00    -0.082 HD
ATOM     26  C   UNL     1      16.646  22.910  26.101  0.00  0.00    -0.064 C 
ATOM     27  C   UNL     1      17.337  21.945  25.098  0.00  0.00    +0.066 C 
ENDBRANCH  19  20
ENDBRANCH  18  19
ENDBRANCH  14  15
ENDBRANCH  12  13
TORSDOF 6
ENDMDL
MODEL 2
REMARK VINA RESULT:      -8.5      3.546      5.335
REMARK  Name = C:\Users\Docking\Desktop\test protocol\1iep_ligandH.pdb
REMARK  8 active torsions:
REMARK  status: ('A' for Active; 'I' for Inactive)
REMARK    1  A    between atoms: _5  and  _11
REMARK    2  A    between atoms: _19  and  _21
REMARK    3  A    between atoms: _22  and  _66
REMARK    4  A    between atoms: _27  and  _30
REMARK    5  A    between atoms: _32  and  _33
REMARK    6  A    between atoms: _38  and  _43
REMARK    7  A    between atoms: _43  and  _46
REMARK    8  A    between atoms: _53  and  _55
REMARK                            x       y       z     vdW  Elec       q    Type
REMARK                         _______ _______ _______ _____ _____    ______ ____
ROOT
ATOM     10  C   UNL     1      31.191  23.484  26.070  0.00  0.00    +0.038 A 
ATOM     11  C   UNL     1      29.921  23.128  25.550  0.00  0.00    +0.047 A 
ATOM     12  C   UNL     1      28.711  23.809  25.986  0.00  0.00    +0.035 A 
ATOM     32  C   UNL     1      28.833  24.851  26.951  0.00  0.00    +0.024 A 
ATOM     33  C   UNL     1      30.117  25.225  27.491  0.00  0.00    +0.007 A 
ATOM     34  C   UNL     1      31.313  24.555  27.067  0.00  0.00    -0.029 A 
ATOM     35  C   UNL     1      32.661  24.993  27.684  0.00  0.00    +0.045 C 
ENDROOT
BRANCH  10   9
ATOM      4  C   UNL     1      34.970  23.015  23.147  0.00  0.00    +0.077 A 
ATOM      5  C   UNL     1      34.654  24.227  22.448  0.00  0.00    +0.048 A 
ATOM      6  C   UNL     1      33.507  24.938  22.867  0.00  0.00    +0.116 A 
ATOM      7  N   UNL     1      32.740  24.463  23.909  0.00  0.00    -0.223 NA
ATOM      8  C   UNL     1      33.072  23.289  24.561  0.00  0.00    +0.220 A 
ATOM      9  N   UNL     1      32.319  22.797  25.616  0.00  0.00    -0.283 N 
ATOM     36  H   UNL     1      32.593  21.924  26.066  0.00  0.00    +0.155 HD
ATOM     37  N   UNL     1      34.161  22.591  24.179  0.00  0.00    -0.214 NA
BRANCH   4   3
ATOM      1  C   UNL     1      37.729  20.247  23.313  0.00  0.00    +0.020 A 
ATOM      2  C   UNL     1      36.581  21.048  23.671  0.00  0.00    +0.013 A 
ATOM      3  C   UNL     1      36.151  22.154  22.824  0.00  0.00    +0.019 A 
ATOM     38  C   UNL     1      36.910  22.424  21.612  0.00  0.00    +0.120 A 
ATOM     39  N   UNL     1      38.012  21.637  21.294  0.00  0.00    -0.263 NA
ATOM     40  C   UNL     1      38.436  20.571  22.102  0.00  0.00    +0.111 A 
ENDBRANCH   4   3
ENDBRANCH  10   9
BRANCH  12  13
ATOM     13  N   UNL     1      27.393  23.486  25.499  0.00  0.00    -0.281 N 
ATOM     14  C   UNL     1      26.943  23.494  24.189  0.00  0.00    +0.248 C 
ATOM     30  O   UNL     1      27.551  23.991  23.252  0.00  0.00    -0.270 OA
ATOM     31  H   UNL     1      26.709  23.217  26.206  0.00  0.00    +0.155 HD
BRANCH  14  15
ATOM     15  C   UNL     1      25.620  22.875  23.876  0.00  0.00    +0.037 A 
ATOM     16  C   UNL     1      24.392  23.332  24.532  0.00  0.00    +0.013 A 
ATOM     17  C   UNL     1      23.131  22.705  24.224  0.00  0.00    +0.005 A 
ATOM     18  C   UNL     1      23.091  21.614  23.253  0.00  0.00    -0.033 A 
ATOM     28  C   UNL     1      24.323  21.184  22.613  0.00  0.00    +0.005 A 
ATOM     29  C   UNL     1      25.562  21.795  22.913  0.00  0.00    +0.013 A 
BRANCH  18  19
ATOM     19  C   UNL     1      21.794  20.874  22.880  0.00  0.00    +0.119 C 
BRANCH  19  20
ATOM     20  N   UNL     1      20.531  21.339  23.527  0.00  0.00    -0.302 NA
ATOM     21  C   UNL     1      20.341  20.730  24.919  0.00  0.00    +0.066 C 
ATOM     22  C   UNL     1      19.026  21.244  25.591  0.00  0.00    -0.064 C 
ATOM     23  N   UNL     1      17.834  20.917  24.689  0.00  0.00    +0.379 N 
ATOM     24  C   UNL     1      16.591  21.348  25.345  0.00  0.00    -0.096 C 
ATOM     25  H   UNL     1      17.790  19.809  24.575  0.00  0.00    -0.082 HD
ATOM     26  C   UNL     1      18.016  21.517  23.302  0.00  0.00    -0.064 C 
ATOM     27  C   UNL     1      19.340  21.022  22.655  0.00  0.00    +0.066 C 
ENDBRANCH  19  20
ENDBRANCH  18  19
ENDBRANCH  14  15
ENDBRANCH  12  13
TORSDOF 6
ENDMDL
MODEL 3
REMARK VINA RESULT:      -8.5      3.896      8.909
REMARK  Name = C:\Users\Docking\Desktop\test protocol\1iep_ligandH.pdb
REMARK  8 active torsions:
REMARK  status: ('A' for Active; 'I' for Inactive)
REMARK    1  A    between atoms: _5  and  _11
REMARK    2  A    between atoms: _19  and  _21
REMARK    3  A    between atoms: _22  and  _66
REMARK    4  A    between atoms: _27  and  _30
REMARK    5  A    between atoms: _32  and  _33
REMARK    6  A    between atoms: _38  and  _43
REMARK    7  A    between atoms: _43  and  _46
REMARK    8  A    between atoms: _53  and  _55
REMARK                            x       y       z     vdW  Elec       q    Type
REMARK                         _______ _______ _______ _____ _____    ______ ____
ROOT
ATOM     10  C   UNL     1      20.121  21.448  24.365  0.00  0.00    +0.038 A 
ATOM     11  C   UNL     1      19.147  22.058  25.197  0.00  0.00    +0.047 A 
ATOM     12  C   UNL     1      17.727  21.940  24.903  0.00  0.00    +0.035 A 
ATOM     32  C   UNL     1      17.334  21.192  23.755  0.00  0.00    +0.024 A 
ATOM     33  C   UNL     1      18.311  20.567  22.899  0.00  0.00    +0.007 A 
ATOM     34  C   UNL     1      19.713  20.682  23.182  0.00  0.00    -0.029 A 
ATOM     35  C   UNL     1      20.716  19.996  22.225  0.00  0.00    +0.045 C 
ENDROOT
BRANCH  10   9
ATOM      4  C   UNL     1      24.402  23.555  23.843  0.00  0.00    +0.077 A 
ATOM      5  C   UNL     1      23.915  24.421  22.809  0.00  0.00    +0.048 A 
ATOM      6  C   UNL     1      22.559  24.288  22.435  0.00  0.00    +0.116 A 
ATOM      7  N   UNL     1      21.759  23.355  23.057  0.00  0.00    -0.223 NA
ATOM      8  C   UNL     1      22.260  22.534  24.050  0.00  0.00    +0.220 A 
ATOM      9  N   UNL     1      21.470  21.593  24.694  0.00  0.00    -0.283 N 
ATOM     36  H   UNL     1      21.880  21.001  25.417  0.00  0.00    +0.155 HD
ATOM     37  N   UNL     1      23.552  22.640  24.424  0.00  0.00    -0.214 NA
BRANCH   4   3
ATOM      1  C   UNL     1      27.530  23.938  26.160  0.00  0.00    +0.020 A 
ATOM      2  C   UNL     1      26.154  23.933  25.721  0.00  0.00    +0.013 A 
ATOM      3  C   UNL     1      25.811  23.577  24.350  0.00  0.00    +0.019 A 
ATOM     38  C   UNL     1      26.892  23.229  23.441  0.00  0.00    +0.120 A 
ATOM     39  N   UNL     1      28.209  23.244  23.892  0.00  0.00    -0.263 NA
ATOM     40  C   UNL     1      28.551  23.587  25.209  0.00  0.00    +0.111 A 
ENDBRANCH   4   3
ENDBRANCH  10   9
BRANCH  12  13
ATOM     13  N   UNL     1      16.693  22.544  25.707  0.00  0.00    -0.281 N 
ATOM     14  C   UNL     1      16.505  22.434  27.075  0.00  0.00    +0.248 C 
ATOM     30  O   UNL     1      17.076  21.624  27.789  0.00  0.00    -0.270 OA
ATOM     31  H   UNL     1      16.017  23.121  25.206  0.00  0.00    +0.155 HD
BRANCH  14  15
ATOM     15  C   UNL     1      15.530  23.349  27.745  0.00  0.00    +0.037 A 
ATOM     16  C   UNL     1      14.630  22.863  28.793  0.00  0.00    +0.013 A 
ATOM     17  C   UNL     1      13.688  23.762  29.411  0.00  0.00    +0.005 A 
ATOM     18  C   UNL     1      13.643  25.158  28.982  0.00  0.00    -0.033 A 
ATOM     28  C   UNL     1      14.551  25.614  27.944  0.00  0.00    +0.005 A 
ATOM     29  C   UNL     1      15.475  24.736  27.335  0.00  0.00    +0.013 A 
BRANCH  18  19
ATOM     19  C   UNL     1      12.655  26.183  29.572  0.00  0.00    +0.119 C 
BRANCH  19  20
ATOM     20  N   UNL     1      11.236  26.107  29.112  0.00  0.00    -0.302 NA
ATOM     21  C   UNL     1      10.418  25.108  29.936  0.00  0.00    +0.066 C 
ATOM     22  C   UNL     1       8.931  25.058  29.457  0.00  0.00    -0.064 C 
ATOM     23  N   UNL     1       8.889  24.698  27.971  0.00  0.00    +0.379 N 
ATOM     24  C   UNL     1       7.490  24.593  27.531  0.00  0.00    -0.096 C 
ATOM     25  H   UNL     1       9.356  23.693  27.854  0.00  0.00    -0.082 HD
ATOM     26  C   UNL     1       9.702  25.684  27.145  0.00  0.00    -0.064 C 
ATOM     27  C   UNL     1      11.171  25.748  27.648  0.00  0.00    +0.066 C 
ENDBRANCH  19  20
ENDBRANCH  18  19
ENDBRANCH  14  15
ENDBRANCH  12  13
TORSDOF 6
ENDMDL
MODEL 4
REMARK VINA RESULT:      -8.1      9.116     13.871
REMARK  Name = C:\Users\Docking\Desktop\test protocol\1iep_ligandH.pdb
REMARK  8 active torsions:
REMARK  status: ('A' for Active; 'I' for Inactive)
REMARK    1  A    between atoms: _5  and  _11
REMARK    2  A    between atoms: _19  and  _21
REMARK    3  A    between atoms: _22  and  _66
REMARK    4  A    between atoms: _27  and  _30
REMARK    5  A    between atoms: _32  and  _33
REMARK    6  A    between atoms: _38  and  _43
REMARK    7  A    between atoms: _43  and  _46
REMARK    8  A    between atoms: _53  and  _55
REMARK                            x       y       z     vdW  Elec       q    Type
REMARK                         _______ _______ _______ _____ _____    ______ ____
ROOT
ATOM     10  C   UNL     1      17.809  22.909  20.553  0.00  0.00    +0.038 A 
ATOM     11  C   UNL     1      17.575  22.369  21.843  0.00  0.00    +0.047 A 
ATOM     12  C   UNL     1      18.430  22.713  22.969  0.00  0.00    +0.035 A 
ATOM     32  C   UNL     1      19.512  23.613  22.746  0.00  0.00    +0.024 A 
ATOM     33  C   UNL     1      19.764  24.172  21.441  0.00  0.00    +0.007 A 
ATOM     34  C   UNL     1      18.926  23.834  20.326  0.00  0.00    -0.029 A 
ATOM     35  C   UNL     1      19.248  24.457  18.947  0.00  0.00    +0.045 C 
ENDROOT
BRANCH  10   9
ATOM      4  C   UNL     1      14.015  23.686  17.717  0.00  0.00    +0.077 A 
ATOM      5  C   UNL     1      13.686  24.909  18.392  0.00  0.00    +0.048 A 
ATOM      6  C   UNL     1      14.514  25.298  19.468  0.00  0.00    +0.116 A 
ATOM      7  N   UNL     1      15.589  24.517  19.834  0.00  0.00    -0.223 NA
ATOM      8  C   UNL     1      15.877  23.343  19.162  0.00  0.00    +0.220 A 
ATOM      9  N   UNL     1      16.957  22.545  19.508  0.00  0.00    -0.283 N 
ATOM     36  H   UNL     1      17.132  21.682  18.992  0.00  0.00    +0.155 HD
ATOM     37  N   UNL     1      15.101  22.948  18.132  0.00  0.00    -0.214 NA
BRANCH   4   3
ATOM      1  C   UNL     1      12.929  21.562  14.617  0.00  0.00    +0.020 A 
ATOM      2  C   UNL     1      13.719  22.049  15.724  0.00  0.00    +0.013 A 
ATOM      3  C   UNL     1      13.238  23.143  16.558  0.00  0.00    +0.019 A 
ATOM     38  C   UNL     1      11.942  23.725  16.244  0.00  0.00    +0.120 A 
ATOM     39  N   UNL     1      11.203  23.236  15.171  0.00  0.00    -0.263 NA
ATOM     40  C   UNL     1      11.657  22.185  14.360  0.00  0.00    +0.111 A 
ENDBRANCH   4   3
ENDBRANCH  10   9
BRANCH  12  13
ATOM     13  N   UNL     1      18.246  22.189  24.300  0.00  0.00    -0.281 N 
ATOM     14  C   UNL     1      18.808  21.049  24.851  0.00  0.00    +0.248 C 
ATOM     30  O   UNL     1      19.389  20.185  24.210  0.00  0.00    -0.270 OA
ATOM     31  H   UNL     1      17.627  22.723  24.909  0.00  0.00    +0.155 HD
BRANCH  14  15
ATOM     15  C   UNL     1      18.695  20.829  26.325  0.00  0.00    +0.037 A 
ATOM     16  C   UNL     1      19.433  19.752  26.991  0.00  0.00    +0.013 A 
ATOM     17  C   UNL     1      19.293  19.551  28.412  0.00  0.00    +0.005 A 
ATOM     18  C   UNL     1      18.412  20.431  29.176  0.00  0.00    -0.033 A 
ATOM     28  C   UNL     1      17.696  21.494  28.491  0.00  0.00    +0.005 A 
ATOM     29  C   UNL     1      17.830  21.693  27.099  0.00  0.00    +0.013 A 
BRANCH  18  19
ATOM     19  C   UNL     1      18.187  20.276  30.692  0.00  0.00    +0.119 C 
BRANCH  19  20
ATOM     20  N   UNL     1      19.278  20.746  31.597  0.00  0.00    -0.302 NA
ATOM     21  C   UNL     1      18.993  20.407  33.063  0.00  0.00    +0.066 C 
ATOM     22  C   UNL     1      20.155  20.885  33.994  0.00  0.00    -0.064 C 
ATOM     23  N   UNL     1      20.361  22.390  33.816  0.00  0.00    +0.379 N 
ATOM     24  C   UNL     1      21.413  22.853  34.731  0.00  0.00    -0.096 C 
ATOM     25  H   UNL     1      19.411  22.898  34.107  0.00  0.00    -0.082 HD
ATOM     26  C   UNL     1      20.641  22.736  32.360  0.00  0.00    -0.064 C 
ATOM     27  C   UNL     1      19.494  22.231  31.441  0.00  0.00    +0.066 C 
ENDBRANCH  19  20
ENDBRANCH  18  19
ENDBRANCH  14  15
ENDBRANCH  12  13
TORSDOF 6
ENDMDL
MODEL 5
REMARK VINA RESULT:      -8.1      2.511     13.348
REMARK  Name = C:\Users\Docking\Desktop\test protocol\1iep_ligandH.pdb
REMARK  8 active torsions:
REMARK  status: ('A' for Active; 'I' for Inactive)
REMARK    1  A    between atoms: _5  and  _11
REMARK    2  A    between atoms: _19  and  _21
REMARK    3  A    between atoms: _22  and  _66
REMARK    4  A    between atoms: _27  and  _30
REMARK    5  A    between atoms: _32  and  _33
REMARK    6  A    between atoms: _38  and  _43
REMARK    7  A    between atoms: _43  and  _46
REMARK    8  A    between atoms: _53  and  _55
REMARK                            x       y       z     vdW  Elec       q    Type
REMARK                         _______ _______ _______ _____ _____    ______ ____
ROOT
ATOM     10  C   UNL     1      26.796  22.737  23.729  0.00  0.00    +0.038 A 
ATOM     11  C   UNL     1      27.554  23.580  24.581  0.00  0.00    +0.047 A 
ATOM     12  C   UNL     1      28.896  24.007  24.217  0.00  0.00    +0.035 A 
ATOM     32  C   UNL     1      29.435  23.558  22.976  0.00  0.00    +0.024 A 
ATOM     33  C   UNL     1      28.678  22.700  22.099  0.00  0.00    +0.007 A 
ATOM     34  C   UNL     1      27.355  22.273  22.454  0.00  0.00    -0.029 A 
ATOM     35  C   UNL     1      26.592  21.348  21.477  0.00  0.00    +0.045 C 
ENDROOT
BRANCH  10   9
ATOM      4  C   UNL     1      22.017  23.158  23.573  0.00  0.00    +0.077 A 
ATOM      5  C   UNL     1      22.085  24.243  22.637  0.00  0.00    +0.048 A 
ATOM      6  C   UNL     1      23.368  24.668  22.226  0.00  0.00    +0.116 A 
ATOM      7  N   UNL     1      24.494  24.045  22.721  0.00  0.00    -0.223 NA
ATOM      8  C   UNL     1      24.394  23.003  23.624  0.00  0.00    +0.220 A 
ATOM      9  N   UNL     1      25.512  22.358  24.129  0.00  0.00    -0.283 N 
ATOM     36  H   UNL     1      25.397  21.598  24.798  0.00  0.00    +0.155 HD
ATOM     37  N   UNL     1      23.179  22.580  24.033  0.00  0.00    -0.214 NA
BRANCH   4   3
ATOM      1  C   UNL     1      19.419  21.016  25.562  0.00  0.00    +0.020 A 
ATOM      2  C   UNL     1      20.685  21.524  25.087  0.00  0.00    +0.013 A 
ATOM      3  C   UNL     1      20.734  22.594  24.099  0.00  0.00    +0.019 A 
ATOM     38  C   UNL     1      19.474  23.133  23.609  0.00  0.00    +0.120 A 
ATOM     39  N   UNL     1      18.270  22.623  24.084  0.00  0.00    -0.263 NA
ATOM     40  C   UNL     1      18.211  21.592  25.034  0.00  0.00    +0.111 A 
ENDBRANCH   4   3
ENDBRANCH  10   9
BRANCH  12  13
ATOM     13  N   UNL     1      29.716  24.856  25.046  0.00  0.00    -0.281 N 
ATOM     14  C   UNL     1      30.444  24.502  26.170  0.00  0.00    +0.248 C 
ATOM     30  O   UNL     1      30.328  23.439  26.762  0.00  0.00    -0.270 OA
ATOM     31  H   UNL     1      29.767  25.836  24.769  0.00  0.00    +0.155 HD
BRANCH  14  15
ATOM     15  C   UNL     1      31.432  25.476  26.726  0.00  0.00    +0.037 A 
ATOM     16  C   UNL     1      31.237  26.921  26.585  0.00  0.00    +0.013 A 
ATOM     17  C   UNL     1      32.214  27.838  27.116  0.00  0.00    +0.005 A 
ATOM     18  C   UNL     1      33.396  27.311  27.795  0.00  0.00    -0.033 A 
ATOM     28  C   UNL     1      33.562  25.873  27.925  0.00  0.00    +0.005 A 
ATOM     29  C   UNL     1      32.607  24.971  27.405  0.00  0.00    +0.013 A 
BRANCH  18  19
ATOM     19  C   UNL     1      34.501  28.215  28.373  0.00  0.00    +0.119 C 
BRANCH  19  20
ATOM     20  N   UNL     1      35.905  27.713  28.296  0.00  0.00    -0.302 NA
ATOM     21  C   UNL     1      36.770  28.248  29.441  0.00  0.00    +0.066 C 
ATOM     22  C   UNL     1      38.230  27.695  29.358  0.00  0.00    -0.064 C 
ATOM     23  N   UNL     1      38.836  28.065  28.003  0.00  0.00    +0.379 N 
ATOM     24  C   UNL     1      40.229  27.597  27.944  0.00  0.00    -0.096 C 
ATOM     25  H   UNL     1      38.850  29.177  27.931  0.00  0.00    -0.082 HD
ATOM     26  C   UNL     1      37.981  27.539  26.859  0.00  0.00    -0.064 C 
ATOM     27  C   UNL     1      36.524  28.071  26.967  0.00  0.00    +0.066 C 
ENDBRANCH  19  20
ENDBRANCH  18  19
ENDBRANCH  14  15
ENDBRANCH  12  13
TORSDOF 6
ENDMDL
