MODEL 1
REMARK VINA RESULT:      -8.6      0.000      0.000
REMARK  Name = C:\Users\Docking\Desktop\test protocol\1iep_ligandH.pdb
REMARK  8 active torsions:
REMARK  status: ('A' for Active; 'I' for Inactive)
REMARK    1  A    between atoms: _5  and  _11
REMARK    2  A    between atoms: _19  and  _21
REMARK    3  A    between atoms: _22  and  _66
REMARK    4  A    between atoms: _27  and  _30
REMARK    5  A    between atoms: _32  and  _33
REMARK    6  A    between atoms: _38  and  _43
REMARK    7  A    between atoms: _43  and  _46
REMARK    8  A    between atoms: _53  and  _55
REMARK                            x       y       z     vdW  Elec       q    Type
REMARK                         _______ _______ _______ _____ _____    ______ ____
ROOT
ATOM     10  C   UNL     1      31.373  54.963  51.127  0.00  0.00    +0.038 A 
ATOM     11  C   UNL     1      30.114  55.336  51.663  0.00  0.00    +0.047 A 
ATOM     12  C   UNL     1      28.888  54.682  51.231  0.00  0.00    +0.035 A 
ATOM     32  C   UNL     1      28.983  53.648  50.253  0.00  0.00    +0.024 A 
ATOM     33  C   UNL     1      30.254  53.257  49.698  0.00  0.00    +0.007 A 
ATOM     34  C   UNL     1      31.466  53.900  50.118  0.00  0.00    -0.029 A 
ATOM     35  C   UNL     1      32.801  53.444  49.484  0.00  0.00    +0.045 C 
ENDROOT
BRANCH  10   9
ATOM      4  C   UNL     1      35.017  55.498  54.205  0.00  0.00    +0.077 A 
ATOM      5  C   UNL     1      34.589  54.381  54.998  0.00  0.00    +0.048 A 
ATOM      6  C   UNL     1      33.422  53.700  54.583  0.00  0.00    +0.116 A 
ATOM      7  N   UNL     1      32.742  54.114  53.458  0.00  0.00    -0.223 NA
ATOM      8  C   UNL     1      33.181  55.196  52.717  0.00  0.00    +0.220 A 
ATOM      9  N   UNL     1      32.517  55.624  51.578  0.00  0.00    -0.283 N 
ATOM     36  H   UNL     1      32.868  56.431  51.063  0.00  0.00    +0.155 HD
ATOM     37  N   UNL     1      34.291  55.864  53.093  0.00  0.00    -0.214 NA
BRANCH   4   3
ATOM      1  C   UNL     1      37.645  58.394  54.285  0.00  0.00    +0.020 A 
ATOM      2  C   UNL     1      36.454  57.645  53.956  0.00  0.00    +0.013 A 
ATOM      3  C   UNL     1      36.232  56.317  54.513  0.00  0.00    +0.019 A 
ATOM     38  C   UNL     1      37.242  55.771  55.407  0.00  0.00    +0.120 A 
ATOM     39  N   UNL     1      38.379  56.514  55.704  0.00  0.00    -0.263 NA
ATOM     40  C   UNL     1      38.605  57.793  55.174  0.00  0.00    +0.111 A 
ENDBRANCH   4   3
ENDBRANCH  10   9
BRANCH  12  13
ATOM     13  N   UNL     1      27.581  55.024  51.733  0.00  0.00    -0.281 N 
ATOM     14  C   UNL     1      27.153  55.047  53.050  0.00  0.00    +0.248 C 
ATOM     30  O   UNL     1      27.775  54.568  53.987  0.00  0.00    -0.270 OA
ATOM     31  H   UNL     1      26.886  55.280  51.031  0.00  0.00    +0.155 HD
BRANCH  14  15
ATOM     15  C   UNL     1      25.839  55.682  53.372  0.00  0.00    +0.037 A 
ATOM     16  C   UNL     1      25.747  56.808  54.304  0.00  0.00    +0.013 A 
ATOM     17  C   UNL     1      24.464  57.391  54.610  0.00  0.00    +0.005 A 
ATOM     18  C   UNL     1      23.263  56.848  53.981  0.00  0.00    -0.033 A 
ATOM     28  C   UNL     1      23.383  55.733  53.056  0.00  0.00    +0.005 A 
ATOM     29  C   UNL     1      24.639  55.159  52.755  0.00  0.00    +0.013 A 
BRANCH  18  19
ATOM     19  C   UNL     1      21.851  57.393  54.265  0.00  0.00    +0.119 C 
BRANCH  19  20
ATOM     20  N   UNL     1      20.791  57.109  53.252  0.00  0.00    -0.302 NA
ATOM     21  C   UNL     1      20.388  58.365  52.474  0.00  0.00    +0.066 C 
ATOM     22  C   UNL     1      19.295  58.045  51.403  0.00  0.00    -0.064 C 
ATOM     23  N   UNL     1      18.079  57.420  52.090  0.00  0.00    +0.379 N 
ATOM     24  C   UNL     1      17.027  57.171  51.094  0.00  0.00    -0.096 C 
ATOM     25  H   UNL     1      17.685  58.163  52.821  0.00  0.00    -0.082 HD
ATOM     26  C   UNL     1      18.472  56.172  52.868  0.00  0.00    -0.064 C 
ATOM     27  C   UNL     1      19.580  56.495  53.909  0.00  0.00    +0.066 C 
ENDBRANCH  19  20
ENDBRANCH  18  19
ENDBRANCH  14  15
ENDBRANCH  12  13
TORSDOF 6
ENDMDL
MODEL 2
REMARK VINA RESULT:      -8.4      7.017     11.739
REMARK  Name = C:\Users\Docking\Desktop\test protocol\1iep_ligandH.pdb
REMARK  8 active torsions:
REMARK  status: ('A' for Active; 'I' for Inactive)
REMARK    1  A    between atoms: _5  and  _11
REMARK    2  A    between atoms: _19  and  _21
REMARK    3  A    between atoms: _22  and  _66
REMARK    4  A    between atoms: _27  and  _30
REMARK    5  A    between atoms: _32  and  _33
REMARK    6  A    between atoms: _38  and  _43
REMARK    7  A    between atoms: _43  and  _46
REMARK    8  A    between atoms: _53  and  _55
REMARK                            x       y       z     vdW  Elec       q    Type
REMARK                         _______ _______ _______ _____ _____    ______ ____
ROOT
ATOM     10  C   UNL     1      20.211  55.979  53.549  0.00  0.00    +0.038 A 
ATOM     11  C   UNL     1      19.624  55.305  54.650  0.00  0.00    +0.047 A 
ATOM     12  C   UNL     1      18.328  55.706  55.174  0.00  0.00    +0.035 A 
ATOM     32  C   UNL     1      17.656  56.798  54.551  0.00  0.00    +0.024 A 
ATOM     33  C   UNL     1      18.239  57.495  53.431  0.00  0.00    +0.007 A 
ATOM     34  C   UNL     1      19.518  57.105  52.912  0.00  0.00    -0.029 A 
ATOM     35  C   UNL     1      20.098  57.893  51.714  0.00  0.00    +0.045 C 
ENDROOT
BRANCH  10   9
ATOM      4  C   UNL     1      25.009  56.101  53.587  0.00  0.00    +0.077 A 
ATOM      5  C   UNL     1      25.034  57.121  54.595  0.00  0.00    +0.048 A 
ATOM      6  C   UNL     1      23.791  57.593  55.071  0.00  0.00    +0.116 A 
ATOM      7  N   UNL     1      22.616  57.075  54.571  0.00  0.00    -0.223 NA
ATOM      8  C   UNL     1      22.627  56.092  53.598  0.00  0.00    +0.220 A 
ATOM      9  N   UNL     1      21.458  55.552  53.086  0.00  0.00    -0.283 N 
ATOM     36  H   UNL     1      21.508  54.833  52.364  0.00  0.00    +0.155 HD
ATOM     37  N   UNL     1      23.802  55.626  53.125  0.00  0.00    -0.214 NA
BRANCH   4   3
ATOM      1  C   UNL     1      28.628  54.693  53.115  0.00  0.00    +0.020 A 
ATOM      2  C   UNL     1      27.467  55.280  53.743  0.00  0.00    +0.013 A 
ATOM      3  C   UNL     1      26.241  55.498  52.986  0.00  0.00    +0.019 A 
ATOM     38  C   UNL     1      26.223  55.108  51.584  0.00  0.00    +0.120 A 
ATOM     39  N   UNL     1      27.357  54.547  51.005  0.00  0.00    -0.263 NA
ATOM     40  C   UNL     1      28.543  54.334  51.724  0.00  0.00    +0.111 A 
ENDBRANCH   4   3
ENDBRANCH  10   9
BRANCH  12  13
ATOM     13  N   UNL     1      17.686  55.064  56.294  0.00  0.00    -0.281 N 
ATOM     14  C   UNL     1      17.616  55.508  57.605  0.00  0.00    +0.248 C 
ATOM     30  O   UNL     1      18.283  56.425  58.060  0.00  0.00    -0.270 OA
ATOM     31  H   UNL     1      17.227  54.175  56.097  0.00  0.00    +0.155 HD
BRANCH  14  15
ATOM     15  C   UNL     1      16.682  54.824  58.550  0.00  0.00    +0.037 A 
ATOM     16  C   UNL     1      17.149  54.306  59.838  0.00  0.00    +0.013 A 
ATOM     17  C   UNL     1      16.230  53.635  60.724  0.00  0.00    +0.005 A 
ATOM     18  C   UNL     1      14.834  53.480  60.323  0.00  0.00    -0.033 A 
ATOM     28  C   UNL     1      14.396  54.008  59.042  0.00  0.00    +0.005 A 
ATOM     29  C   UNL     1      15.294  54.665  58.171  0.00  0.00    +0.013 A 
BRANCH  18  19
ATOM     19  C   UNL     1      13.789  52.760  61.196  0.00  0.00    +0.119 C 
BRANCH  19  20
ATOM     20  N   UNL     1      13.589  53.270  62.585  0.00  0.00    -0.302 NA
ATOM     21  C   UNL     1      13.231  52.148  63.564  0.00  0.00    +0.066 C 
ATOM     22  C   UNL     1      13.048  52.697  65.016  0.00  0.00    -0.064 C 
ATOM     23  N   UNL     1      11.967  53.780  65.016  0.00  0.00    +0.379 N 
ATOM     24  C   UNL     1      11.751  54.257  66.390  0.00  0.00    -0.096 C 
ATOM     25  H   UNL     1      11.018  53.310  64.668  0.00  0.00    -0.082 HD
ATOM     26  C   UNL     1      12.313  54.898  64.044  0.00  0.00    -0.064 C 
ATOM     27  C   UNL     1      12.523  54.338  62.609  0.00  0.00    +0.066 C 
ENDBRANCH  19  20
ENDBRANCH  18  19
ENDBRANCH  14  15
ENDBRANCH  12  13
TORSDOF 6
ENDMDL
MODEL 3
REMARK VINA RESULT:      -8.3      3.875      5.756
REMARK  Name = C:\Users\Docking\Desktop\test protocol\1iep_ligandH.pdb
REMARK  8 active torsions:
REMARK  status: ('A' for Active; 'I' for Inactive)
REMARK    1  A    between atoms: _5  and  _11
REMARK    2  A    between atoms: _19  and  _21
REMARK    3  A    between atoms: _22  and  _66
REMARK    4  A    between atoms: _27  and  _30
REMARK    5  A    between atoms: _32  and  _33
REMARK    6  A    between atoms: _38  and  _43
REMARK    7  A    between atoms: _43  and  _46
REMARK    8  A    between atoms: _53  and  _55
REMARK                            x       y       z     vdW  Elec       q    Type
REMARK                         _______ _______ _______ _____ _____    ______ ____
ROOT
ATOM     10  C   UNL     1      28.446  55.012  54.764  0.00  0.00    +0.038 A 
ATOM     11  C   UNL     1      27.152  55.228  54.227  0.00  0.00    +0.047 A 
ATOM     12  C   UNL     1      26.320  56.329  54.687  0.00  0.00    +0.035 A 
ATOM     32  C   UNL     1      26.840  57.193  55.695  0.00  0.00    +0.024 A 
ATOM     33  C   UNL     1      28.153  56.987  56.253  0.00  0.00    +0.007 A 
ATOM     34  C   UNL     1      28.977  55.901  55.805  0.00  0.00    -0.029 A 
ATOM     35  C   UNL     1      30.374  55.724  56.443  0.00  0.00    +0.045 C 
ENDROOT
BRANCH  10   9
ATOM      4  C   UNL     1      30.856  52.752  51.282  0.00  0.00    +0.077 A 
ATOM      5  C   UNL     1      30.562  53.783  50.329  0.00  0.00    +0.048 A 
ATOM      6  C   UNL     1      29.782  54.874  50.773  0.00  0.00    +0.116 A 
ATOM      7  N   UNL     1      29.335  54.920  52.075  0.00  0.00    -0.223 NA
ATOM      8  C   UNL     1      29.634  53.909  52.969  0.00  0.00    +0.220 A 
ATOM      9  N   UNL     1      29.201  53.939  54.285  0.00  0.00    -0.283 N 
ATOM     36  H   UNL     1      29.437  53.169  54.912  0.00  0.00    +0.155 HD
ATOM     37  N   UNL     1      30.376  52.855  52.569  0.00  0.00    -0.214 NA
BRANCH   4   3
ATOM      1  C   UNL     1      32.770  49.940  49.351  0.00  0.00    +0.020 A 
ATOM      2  C   UNL     1      31.978  51.121  49.603  0.00  0.00    +0.013 A 
ATOM      3  C   UNL     1      31.671  51.537  50.966  0.00  0.00    +0.019 A 
ATOM     38  C   UNL     1      32.186  50.728  52.060  0.00  0.00    +0.120 A 
ATOM     39  N   UNL     1      32.944  49.594  51.788  0.00  0.00    -0.263 NA
ATOM     40  C   UNL     1      33.245  49.184  50.480  0.00  0.00    +0.111 A 
ENDBRANCH   4   3
ENDBRANCH  10   9
BRANCH  12  13
ATOM     13  N   UNL     1      24.995  56.593  54.184  0.00  0.00    -0.281 N 
ATOM     14  C   UNL     1      23.794  56.065  54.629  0.00  0.00    +0.248 C 
ATOM     30  O   UNL     1      23.697  55.116  55.392  0.00  0.00    -0.270 OA
ATOM     31  H   UNL     1      24.935  57.250  53.405  0.00  0.00    +0.155 HD
BRANCH  14  15
ATOM     15  C   UNL     1      22.516  56.669  54.144  0.00  0.00    +0.037 A 
ATOM     16  C   UNL     1      22.216  58.087  54.359  0.00  0.00    +0.013 A 
ATOM     17  C   UNL     1      20.968  58.640  53.896  0.00  0.00    +0.005 A 
ATOM     18  C   UNL     1      20.010  57.774  53.212  0.00  0.00    -0.033 A 
ATOM     28  C   UNL     1      20.336  56.373  53.007  0.00  0.00    +0.005 A 
ATOM     29  C   UNL     1      21.557  55.827  53.461  0.00  0.00    +0.013 A 
BRANCH  18  19
ATOM     19  C   UNL     1      18.645  58.275  52.703  0.00  0.00    +0.119 C 
BRANCH  19  20
ATOM     20  N   UNL     1      18.511  58.524  51.237  0.00  0.00    -0.302 NA
ATOM     21  C   UNL     1      17.922  57.318  50.501  0.00  0.00    +0.066 C 
ATOM     22  C   UNL     1      17.768  57.604  48.971  0.00  0.00    -0.064 C 
ATOM     23  N   UNL     1      19.130  57.983  48.387  0.00  0.00    +0.379 N 
ATOM     24  C   UNL     1      19.000  58.197  46.938  0.00  0.00    -0.096 C 
ATOM     25  H   UNL     1      19.816  57.119  48.541  0.00  0.00    -0.082 HD
ATOM     26  C   UNL     1      19.724  59.180  49.115  0.00  0.00    -0.064 C 
ATOM     27  C   UNL     1      19.846  58.896  50.638  0.00  0.00    +0.066 C 
ENDBRANCH  19  20
ENDBRANCH  18  19
ENDBRANCH  14  15
ENDBRANCH  12  13
TORSDOF 6
ENDMDL
MODEL 4
REMARK VINA RESULT:      -8.2     17.142     23.378
REMARK  Name = C:\Users\Docking\Desktop\test protocol\1iep_ligandH.pdb
REMARK  8 active torsions:
REMARK  status: ('A' for Active; 'I' for Inactive)
REMARK    1  A    between atoms: _5  and  _11
REMARK    2  A    between atoms: _19  and  _21
REMARK    3  A    between atoms: _22  and  _66
REMARK    4  A    between atoms: _27  and  _30
REMARK    5  A    between atoms: _32  and  _33
REMARK    6  A    between atoms: _38  and  _43
REMARK    7  A    between atoms: _43  and  _46
REMARK    8  A    between atoms: _53  and  _55
REMARK                            x       y       z     vdW  Elec       q    Type
REMARK                         _______ _______ _______ _____ _____    ______ ____
ROOT
ATOM     10  C   UNL     1       8.185  50.529  55.641  0.00  0.00    +0.038 A 
ATOM     11  C   UNL     1       8.529  51.335  56.756  0.00  0.00    +0.047 A 
ATOM     12  C   UNL     1       9.919  51.547  57.131  0.00  0.00    +0.035 A 
ATOM     32  C   UNL     1      10.933  50.925  56.346  0.00  0.00    +0.024 A 
ATOM     33  C   UNL     1      10.601  50.102  55.209  0.00  0.00    +0.007 A 
ATOM     34  C   UNL     1       9.232  49.887  54.837  0.00  0.00    -0.029 A 
ATOM     35  C   UNL     1       8.934  48.990  53.613  0.00  0.00    +0.045 C 
ENDROOT
BRANCH  10   9
ATOM      4  C   UNL     1       4.284  51.556  53.041  0.00  0.00    +0.077 A 
ATOM      5  C   UNL     1       4.988  52.532  52.261  0.00  0.00    +0.048 A 
ATOM      6  C   UNL     1       6.351  52.745  52.565  0.00  0.00    +0.116 A 
ATOM      7  N   UNL     1       6.955  52.029  53.576  0.00  0.00    -0.223 NA
ATOM      8  C   UNL     1       6.246  51.096  54.310  0.00  0.00    +0.220 A 
ATOM      9  N   UNL     1       6.835  50.359  55.326  0.00  0.00    -0.283 N 
ATOM     36  H   UNL     1       6.276  49.686  55.850  0.00  0.00    +0.155 HD
ATOM     37  N   UNL     1       4.943  50.875  54.040  0.00  0.00    -0.214 NA
BRANCH   4   3
ATOM      1  C   UNL     1       0.742  51.116  51.440  0.00  0.00    +0.020 A 
ATOM      2  C   UNL     1       2.136  51.464  51.585  0.00  0.00    +0.013 A 
ATOM      3  C   UNL     1       2.840  51.215  52.837  0.00  0.00    +0.019 A 
ATOM     38  C   UNL     1       2.098  50.608  53.931  0.00  0.00    +0.120 A 
ATOM     39  N   UNL     1       0.755  50.284  53.763  0.00  0.00    -0.263 NA
ATOM     40  C   UNL     1       0.067  50.521  52.563  0.00  0.00    +0.111 A 
ENDBRANCH   4   3
ENDBRANCH  10   9
BRANCH  12  13
ATOM     13  N   UNL     1      10.329  52.348  58.258  0.00  0.00    -0.281 N 
ATOM     14  C   UNL     1      11.569  52.379  58.874  0.00  0.00    +0.248 C 
ATOM     30  O   UNL     1      12.457  51.562  58.683  0.00  0.00    -0.270 OA
ATOM     31  H   UNL     1       9.618  52.967  58.649  0.00  0.00    +0.155 HD
BRANCH  14  15
ATOM     15  C   UNL     1      11.860  53.468  59.856  0.00  0.00    +0.037 A 
ATOM     16  C   UNL     1      10.793  54.075  60.656  0.00  0.00    +0.013 A 
ATOM     17  C   UNL     1      11.098  55.135  61.584  0.00  0.00    +0.005 A 
ATOM     18  C   UNL     1      12.479  55.595  61.717  0.00  0.00    -0.033 A 
ATOM     28  C   UNL     1      13.518  54.971  60.915  0.00  0.00    +0.005 A 
ATOM     29  C   UNL     1      13.222  53.932  60.004  0.00  0.00    +0.013 A 
BRANCH  18  19
ATOM     19  C   UNL     1      12.893  56.735  62.666  0.00  0.00    +0.119 C 
BRANCH  19  20
ATOM     20  N   UNL     1      14.061  57.572  62.260  0.00  0.00    -0.302 NA
ATOM     21  C   UNL     1      14.622  58.382  63.432  0.00  0.00    +0.066 C 
ATOM     22  C   UNL     1      15.857  59.235  62.995  0.00  0.00    -0.064 C 
ATOM     23  N   UNL     1      15.454  60.157  61.843  0.00  0.00    +0.379 N 
ATOM     24  C   UNL     1      16.597  61.002  61.468  0.00  0.00    -0.096 C 
ATOM     25  H   UNL     1      14.645  60.828  62.215  0.00  0.00    -0.082 HD
ATOM     26  C   UNL     1      14.892  59.361  60.674  0.00  0.00    -0.064 C 
ATOM     27  C   UNL     1      13.684  58.494  61.126  0.00  0.00    +0.066 C 
ENDBRANCH  19  20
ENDBRANCH  18  19
ENDBRANCH  14  15
ENDBRANCH  12  13
TORSDOF 6
ENDMDL
MODEL 5
REMARK VINA RESULT:      -8.0     29.704     32.965
REMARK  Name = C:\Users\Docking\Desktop\test protocol\1iep_ligandH.pdb
REMARK  8 active torsions:
REMARK  status: ('A' for Active; 'I' for Inactive)
REMARK    1  A    between atoms: _5  and  _11
REMARK    2  A    between atoms: _19  and  _21
REMARK    3  A    between atoms: _22  and  _66
REMARK    4  A    between atoms: _27  and  _30
REMARK    5  A    between atoms: _32  and  _33
REMARK    6  A    between atoms: _38  and  _43
REMARK    7  A    between atoms: _43  and  _46
REMARK    8  A    between atoms: _53  and  _55
REMARK                            x       y       z     vdW  Elec       q    Type
REMARK                         _______ _______ _______ _____ _____    ______ ____
ROOT
ATOM     10  C   UNL     1       3.174  37.267  55.418  0.00  0.00    +0.038 A 
ATOM     11  C   UNL     1       2.512  38.251  54.638  0.00  0.00    +0.047 A 
ATOM     12  C   UNL     1       3.070  39.585  54.479  0.00  0.00    +0.035 A 
ATOM     32  C   UNL     1       4.304  39.883  55.126  0.00  0.00    +0.024 A 
ATOM     33  C   UNL     1       4.990  38.896  55.923  0.00  0.00    +0.007 A 
ATOM     34  C   UNL     1       4.444  37.579  56.085  0.00  0.00    -0.029 A 
ATOM     35  C   UNL     1       5.218  36.563  56.956  0.00  0.00    +0.045 C 
ENDROOT
BRANCH  10   9
ATOM      4  C   UNL     1       2.448  32.782  53.872  0.00  0.00    +0.077 A 
ATOM      5  C   UNL     1       3.272  32.984  52.715  0.00  0.00    +0.048 A 
ATOM      6  C   UNL     1       3.859  34.259  52.551  0.00  0.00    +0.116 A 
ATOM      7  N   UNL     1       3.631  35.250  53.481  0.00  0.00    -0.223 NA
ATOM      8  C   UNL     1       2.830  35.022  54.585  0.00  0.00    +0.220 A 
ATOM      9  N   UNL     1       2.594  36.002  55.537  0.00  0.00    -0.283 N 
ATOM     36  H   UNL     1       1.991  35.797  56.333  0.00  0.00    +0.155 HD
ATOM     37  N   UNL     1       2.257  33.814  54.763  0.00  0.00    -0.214 NA
BRANCH   4   3
ATOM      1  C   UNL     1       1.217  29.561  55.720  0.00  0.00    +0.020 A 
ATOM      2  C   UNL     1       1.902  30.808  55.467  0.00  0.00    +0.013 A 
ATOM      3  C   UNL     1       1.761  31.489  54.186  0.00  0.00    +0.019 A 
ATOM     38  C   UNL     1       0.912  30.878  53.175  0.00  0.00    +0.120 A 
ATOM     39  N   UNL     1       0.266  29.676  53.446  0.00  0.00    -0.263 NA
ATOM     40  C   UNL     1       0.395  29.010  54.674  0.00  0.00    +0.111 A 
ENDBRANCH   4   3
ENDBRANCH  10   9
BRANCH  12  13
ATOM     13  N   UNL     1       2.439  40.626  53.707  0.00  0.00    -0.281 N 
ATOM     14  C   UNL     1       1.440  40.496  52.756  0.00  0.00    +0.248 C 
ATOM     30  O   UNL     1       1.085  39.433  52.268  0.00  0.00    -0.270 OA
ATOM     31  H   UNL     1       2.769  41.575  53.882  0.00  0.00    +0.155 HD
BRANCH  14  15
ATOM     15  C   UNL     1       0.746  41.724  52.264  0.00  0.00    +0.037 A 
ATOM     16  C   UNL     1      -0.679  41.707  51.922  0.00  0.00    +0.013 A 
ATOM     17  C   UNL     1      -1.320  42.902  51.434  0.00  0.00    +0.005 A 
ATOM     18  C   UNL     1      -0.536  44.126  51.286  0.00  0.00    -0.033 A 
ATOM     28  C   UNL     1       0.874  44.117  51.638  0.00  0.00    +0.005 A 
ATOM     29  C   UNL     1       1.506  42.947  52.116  0.00  0.00    +0.013 A 
BRANCH  18  19
ATOM     19  C   UNL     1      -1.133  45.442  50.753  0.00  0.00    +0.119 C 
BRANCH  19  20
ATOM     20  N   UNL     1      -0.690  46.709  51.408  0.00  0.00    -0.302 NA
ATOM     21  C   UNL     1      -1.853  47.446  52.078  0.00  0.00    +0.066 C 
ATOM     22  C   UNL     1      -1.368  48.757  52.778  0.00  0.00    -0.064 C 
ATOM     23  N   UNL     1      -0.678  49.655  51.750  0.00  0.00    +0.379 N 
ATOM     24  C   UNL     1      -0.272  50.914  52.392  0.00  0.00    -0.096 C 
ATOM     25  H   UNL     1      -1.426  49.903  50.961  0.00  0.00    -0.082 HD
ATOM     26  C   UNL     1       0.478  48.929  51.076  0.00  0.00    -0.064 C 
ATOM     27  C   UNL     1      -0.009  47.613  50.410  0.00  0.00    +0.066 C 
ENDBRANCH  19  20
ENDBRANCH  18  19
ENDBRANCH  14  15
ENDBRANCH  12  13
TORSDOF 6
ENDMDL
