MODEL 1
REMARK VINA RESULT:      -6.6      0.000      0.000
REMARK  Name = C:\Users\Docking\Desktop\test protocol\1iep_ligandH.pdb
REMARK  8 active torsions:
REMARK  status: ('A' for Active; 'I' for Inactive)
REMARK    1  A    between atoms: _5  and  _11
REMARK    2  A    between atoms: _19  and  _21
REMARK    3  A    between atoms: _22  and  _66
REMARK    4  A    between atoms: _27  and  _30
REMARK    5  A    between atoms: _32  and  _33
REMARK    6  A    between atoms: _38  and  _43
REMARK    7  A    between atoms: _43  and  _46
REMARK    8  A    between atoms: _53  and  _55
REMARK                            x       y       z     vdW  Elec       q    Type
REMARK                         _______ _______ _______ _____ _____    ______ ____
ROOT
ATOM     10  C   UNL     1       4.358  15.664  -0.615  0.00  0.00    +0.038 A 
ATOM     11  C   UNL     1       3.244  14.837  -0.911  0.00  0.00    +0.047 A 
ATOM     12  C   UNL     1       1.882  15.317  -0.734  0.00  0.00    +0.035 A 
ATOM     32  C   UNL     1       1.691  16.647  -0.256  0.00  0.00    +0.024 A 
ATOM     33  C   UNL     1       2.812  17.500   0.051  0.00  0.00    +0.007 A 
ATOM     34  C   UNL     1       4.157  17.031  -0.119  0.00  0.00    -0.029 A 
ATOM     35  C   UNL     1       5.321  17.988   0.231  0.00  0.00    +0.045 C 
ENDROOT
BRANCH  10   9
ATOM      4  C   UNL     1       8.070  14.471  -3.413  0.00  0.00    +0.077 A 
ATOM      5  C   UNL     1       7.380  14.878  -4.603  0.00  0.00    +0.048 A 
ATOM      6  C   UNL     1       6.068  15.382  -4.453  0.00  0.00    +0.116 A 
ATOM      7  N   UNL     1       5.500  15.469  -3.201  0.00  0.00    -0.223 NA
ATOM      8  C   UNL     1       6.192  15.066  -2.073  0.00  0.00    +0.220 A 
ATOM      9  N   UNL     1       5.643  15.152  -0.803  0.00  0.00    -0.283 N 
ATOM     36  H   UNL     1       6.184  14.838   0.002  0.00  0.00    +0.155 HD
ATOM     37  N   UNL     1       7.446  14.580  -2.191  0.00  0.00    -0.214 NA
BRANCH   4   3
ATOM      1  C   UNL     1      11.558  13.131  -4.570  0.00  0.00    +0.020 A 
ATOM      2  C   UNL     1      10.216  13.663  -4.629  0.00  0.00    +0.013 A 
ATOM      3  C   UNL     1       9.462  13.921  -3.409  0.00  0.00    +0.019 A 
ATOM     38  C   UNL     1      10.101  13.630  -2.134  0.00  0.00    +0.120 A 
ATOM     39  N   UNL     1      11.394  13.117  -2.108  0.00  0.00    -0.263 NA
ATOM     40  C   UNL     1      12.129  12.863  -3.276  0.00  0.00    +0.111 A 
ENDBRANCH   4   3
ENDBRANCH  10   9
BRANCH  12  13
ATOM     13  N   UNL     1       0.712  14.521  -1.010  0.00  0.00    -0.281 N 
ATOM     14  C   UNL     1      -0.166  14.639  -2.074  0.00  0.00    +0.248 C 
ATOM     30  O   UNL     1      -0.200  15.590  -2.841  0.00  0.00    -0.270 OA
ATOM     31  H   UNL     1       0.507  13.780  -0.339  0.00  0.00    +0.155 HD
BRANCH  14  15
ATOM     15  C   UNL     1      -1.161  13.549  -2.313  0.00  0.00    +0.037 A 
ATOM     16  C   UNL     1      -1.278  12.412  -1.397  0.00  0.00    +0.013 A 
ATOM     17  C   UNL     1      -2.234  11.366  -1.660  0.00  0.00    +0.005 A 
ATOM     18  C   UNL     1      -3.082  11.453  -2.846  0.00  0.00    -0.033 A 
ATOM     28  C   UNL     1      -2.949  12.595  -3.736  0.00  0.00    +0.005 A 
ATOM     29  C   UNL     1      -2.012  13.622  -3.482  0.00  0.00    +0.013 A 
BRANCH  18  19
ATOM     19  C   UNL     1      -4.115  10.373  -3.217  0.00  0.00    +0.119 C 
BRANCH  19  20
ATOM     20  N   UNL     1      -5.555  10.769  -3.203  0.00  0.00    -0.302 NA
ATOM     21  C   UNL     1      -5.926  11.537  -1.931  0.00  0.00    +0.066 C 
ATOM     22  C   UNL     1      -7.431  11.963  -1.943  0.00  0.00    -0.064 C 
ATOM     23  N   UNL     1      -8.309  10.721  -2.101  0.00  0.00    +0.379 N 
ATOM     24  C   UNL     1      -9.725  11.112  -2.054  0.00  0.00    -0.096 C 
ATOM     25  H   UNL     1      -8.112  10.055  -1.229  0.00  0.00    -0.082 HD
ATOM     26  C   UNL     1      -7.944   9.950  -3.362  0.00  0.00    -0.064 C 
ATOM     27  C   UNL     1      -6.440   9.556  -3.354  0.00  0.00    +0.066 C 
ENDBRANCH  19  20
ENDBRANCH  18  19
ENDBRANCH  14  15
ENDBRANCH  12  13
TORSDOF 6
ENDMDL
MODEL 2
REMARK VINA RESULT:      -6.5      7.409     13.775
REMARK  Name = C:\Users\Docking\Desktop\test protocol\1iep_ligandH.pdb
REMARK  8 active torsions:
REMARK  status: ('A' for Active; 'I' for Inactive)
REMARK    1  A    between atoms: _5  and  _11
REMARK    2  A    between atoms: _19  and  _21
REMARK    3  A    between atoms: _22  and  _66
REMARK    4  A    between atoms: _27  and  _30
REMARK    5  A    between atoms: _32  and  _33
REMARK    6  A    between atoms: _38  and  _43
REMARK    7  A    between atoms: _43  and  _46
REMARK    8  A    between atoms: _53  and  _55
REMARK                            x       y       z     vdW  Elec       q    Type
REMARK                         _______ _______ _______ _____ _____    ______ ____
ROOT
ATOM     10  C   UNL     1      -6.861   7.716  -3.912  0.00  0.00    +0.038 A 
ATOM     11  C   UNL     1      -7.938   7.892  -4.818  0.00  0.00    +0.047 A 
ATOM     12  C   UNL     1      -9.009   6.912  -4.913  0.00  0.00    +0.035 A 
ATOM     32  C   UNL     1      -8.952   5.765  -4.069  0.00  0.00    +0.024 A 
ATOM     33  C   UNL     1      -7.864   5.569  -3.144  0.00  0.00    +0.007 A 
ATOM     34  C   UNL     1      -6.803   6.531  -3.047  0.00  0.00    -0.029 A 
ATOM     35  C   UNL     1      -5.658   6.267  -2.042  0.00  0.00    +0.045 C 
ENDROOT
BRANCH  10   9
ATOM      4  C   UNL     1      -5.175  11.987  -2.514  0.00  0.00    +0.077 A 
ATOM      5  C   UNL     1      -6.402  12.320  -1.850  0.00  0.00    +0.048 A 
ATOM      6  C   UNL     1      -7.445  11.368  -1.898  0.00  0.00    +0.116 A 
ATOM      7  N   UNL     1      -7.263  10.175  -2.563  0.00  0.00    -0.223 NA
ATOM      8  C   UNL     1      -6.067   9.885  -3.194  0.00  0.00    +0.220 A 
ATOM      9  N   UNL     1      -5.859   8.688  -3.862  0.00  0.00    -0.283 N 
ATOM     36  H   UNL     1      -4.966   8.516  -4.321  0.00  0.00    +0.155 HD
ATOM     37  N   UNL     1      -5.057  10.779  -3.164  0.00  0.00    -0.214 NA
BRANCH   4   3
ATOM      1  C   UNL     1      -1.721  13.572  -3.441  0.00  0.00    +0.020 A 
ATOM      2  C   UNL     1      -2.851  12.672  -3.446  0.00  0.00    +0.013 A 
ATOM      3  C   UNL     1      -3.980  12.888  -2.549  0.00  0.00    +0.019 A 
ATOM     38  C   UNL     1      -3.934  14.033  -1.653  0.00  0.00    +0.120 A 
ATOM     39  N   UNL     1      -2.831  14.882  -1.670  0.00  0.00    -0.263 NA
ATOM     40  C   UNL     1      -1.739  14.684  -2.527  0.00  0.00    +0.111 A 
ENDBRANCH   4   3
ENDBRANCH  10   9
BRANCH  12  13
ATOM     13  N   UNL     1     -10.124   7.034  -5.819  0.00  0.00    -0.281 N 
ATOM     14  C   UNL     1     -11.194   7.910  -5.740  0.00  0.00    +0.248 C 
ATOM     30  O   UNL     1     -11.466   8.581  -4.755  0.00  0.00    -0.270 OA
ATOM     31  H   UNL     1     -10.124   6.397  -6.616  0.00  0.00    +0.155 HD
BRANCH  14  15
ATOM     15  C   UNL     1     -12.102   8.049  -6.919  0.00  0.00    +0.037 A 
ATOM     16  C   UNL     1     -12.930   6.931  -7.377  0.00  0.00    +0.013 A 
ATOM     17  C   UNL     1     -13.785   7.088  -8.528  0.00  0.00    +0.005 A 
ATOM     18  C   UNL     1     -13.815   8.370  -9.228  0.00  0.00    -0.033 A 
ATOM     28  C   UNL     1     -12.987   9.464  -8.748  0.00  0.00    +0.005 A 
ATOM     29  C   UNL     1     -12.148   9.314  -7.622  0.00  0.00    +0.013 A 
BRANCH  18  19
ATOM     19  C   UNL     1     -14.681   8.620 -10.477  0.00  0.00    +0.119 C 
BRANCH  19  20
ATOM     20  N   UNL     1     -13.976   8.713 -11.790  0.00  0.00    -0.302 NA
ATOM     21  C   UNL     1     -14.263  10.036 -12.504  0.00  0.00    +0.066 C 
ATOM     22  C   UNL     1     -13.500  10.126 -13.865  0.00  0.00    -0.064 C 
ATOM     23  N   UNL     1     -13.893   8.939 -14.746  0.00  0.00    +0.379 N 
ATOM     24  C   UNL     1     -13.221   9.051 -16.049  0.00  0.00    -0.096 C 
ATOM     25  H   UNL     1     -14.991   9.000 -14.926  0.00  0.00    -0.082 HD
ATOM     26  C   UNL     1     -13.613   7.618 -14.043  0.00  0.00    -0.064 C 
ATOM     27  C   UNL     1     -14.353   7.552 -12.678  0.00  0.00    +0.066 C 
ENDBRANCH  19  20
ENDBRANCH  18  19
ENDBRANCH  14  15
ENDBRANCH  12  13
TORSDOF 6
ENDMDL
MODEL 3
REMARK VINA RESULT:      -6.4      6.676     12.348
REMARK  Name = C:\Users\Docking\Desktop\test protocol\1iep_ligandH.pdb
REMARK  8 active torsions:
REMARK  status: ('A' for Active; 'I' for Inactive)
REMARK    1  A    between atoms: _5  and  _11
REMARK    2  A    between atoms: _19  and  _21
REMARK    3  A    between atoms: _22  and  _66
REMARK    4  A    between atoms: _27  and  _30
REMARK    5  A    between atoms: _32  and  _33
REMARK    6  A    between atoms: _38  and  _43
REMARK    7  A    between atoms: _43  and  _46
REMARK    8  A    between atoms: _53  and  _55
REMARK                            x       y       z     vdW  Elec       q    Type
REMARK                         _______ _______ _______ _____ _____    ______ ____
ROOT
ATOM     10  C   UNL     1      15.786  11.900  -2.468  0.00  0.00    +0.038 A 
ATOM     11  C   UNL     1      14.697  12.692  -2.914  0.00  0.00    +0.047 A 
ATOM     12  C   UNL     1      13.384  12.583  -2.297  0.00  0.00    +0.035 A 
ATOM     32  C   UNL     1      13.217  11.659  -1.225  0.00  0.00    +0.024 A 
ATOM     33  C   UNL     1      14.313  10.845  -0.759  0.00  0.00    +0.007 A 
ATOM     34  C   UNL     1      15.609  10.947  -1.366  0.00  0.00    -0.029 A 
ATOM     35  C   UNL     1      16.746  10.045  -0.831  0.00  0.00    +0.045 C 
ENDROOT
BRANCH  10   9
ATOM      4  C   UNL     1      20.059  14.029  -2.960  0.00  0.00    +0.077 A 
ATOM      5  C   UNL     1      19.791  14.947  -1.890  0.00  0.00    +0.048 A 
ATOM      6  C   UNL     1      18.539  14.843  -1.244  0.00  0.00    +0.116 A 
ATOM      7  N   UNL     1      17.630  13.888  -1.646  0.00  0.00    -0.223 NA
ATOM      8  C   UNL     1      17.920  13.019  -2.682  0.00  0.00    +0.220 A 
ATOM      9  N   UNL     1      17.024  12.046  -3.097  0.00  0.00    -0.283 N 
ATOM     36  H   UNL     1      17.272  11.429  -3.871  0.00  0.00    +0.155 HD
ATOM     37  N   UNL     1      19.108  13.099  -3.316  0.00  0.00    -0.214 NA
BRANCH   4   3
ATOM      1  C   UNL     1      23.855  14.075  -3.904  0.00  0.00    +0.020 A 
ATOM      2  C   UNL     1      22.650  14.096  -3.107  0.00  0.00    +0.013 A 
ATOM      3  C   UNL     1      21.339  14.012  -3.737  0.00  0.00    +0.019 A 
ATOM     38  C   UNL     1      21.281  13.907  -5.187  0.00  0.00    +0.120 A 
ATOM     39  N   UNL     1      22.458  13.890  -5.929  0.00  0.00    -0.263 NA
ATOM     40  C   UNL     1      23.726  13.972  -5.333  0.00  0.00    +0.111 A 
ENDBRANCH   4   3
ENDBRANCH  10   9
BRANCH  12  13
ATOM     13  N   UNL     1      12.240  13.355  -2.712  0.00  0.00    -0.281 N 
ATOM     14  C   UNL     1      11.586  13.319  -3.933  0.00  0.00    +0.248 C 
ATOM     30  O   UNL     1      12.019  12.767  -4.933  0.00  0.00    -0.270 OA
ATOM     31  H   UNL     1      11.866  14.008  -2.023  0.00  0.00    +0.155 HD
BRANCH  14  15
ATOM     15  C   UNL     1      10.265  14.007  -4.065  0.00  0.00    +0.037 A 
ATOM     16  C   UNL     1       9.076  13.287  -4.528  0.00  0.00    +0.013 A 
ATOM     17  C   UNL     1       7.819  13.978  -4.663  0.00  0.00    +0.005 A 
ATOM     18  C   UNL     1       7.744  15.400  -4.333  0.00  0.00    -0.033 A 
ATOM     28  C   UNL     1       8.938  16.088  -3.872  0.00  0.00    +0.005 A 
ATOM     29  C   UNL     1      10.173  15.414  -3.739  0.00  0.00    +0.013 A 
BRANCH  18  19
ATOM     19  C   UNL     1       6.450  16.223  -4.468  0.00  0.00    +0.119 C 
BRANCH  19  20
ATOM     20  N   UNL     1       5.689  16.511  -3.216  0.00  0.00    -0.302 NA
ATOM     21  C   UNL     1       4.800  15.336  -2.800  0.00  0.00    +0.066 C 
ATOM     22  C   UNL     1       4.029  15.647  -1.475  0.00  0.00    -0.064 C 
ATOM     23  N   UNL     1       3.197  16.917  -1.658  0.00  0.00    +0.379 N 
ATOM     24  C   UNL     1       2.427  17.179  -0.434  0.00  0.00    -0.096 C 
ATOM     25  H   UNL     1       2.470  16.729  -2.482  0.00  0.00    -0.082 HD
ATOM     26  C   UNL     1       4.073  18.090  -2.075  0.00  0.00    -0.064 C 
ATOM     27  C   UNL     1       4.857  17.760  -3.376  0.00  0.00    +0.066 C 
ENDBRANCH  19  20
ENDBRANCH  18  19
ENDBRANCH  14  15
ENDBRANCH  12  13
TORSDOF 6
ENDMDL
MODEL 4
REMARK VINA RESULT:      -6.3      9.164     13.105
REMARK  Name = C:\Users\Docking\Desktop\test protocol\1iep_ligandH.pdb
REMARK  8 active torsions:
REMARK  status: ('A' for Active; 'I' for Inactive)
REMARK    1  A    between atoms: _5  and  _11
REMARK    2  A    between atoms: _19  and  _21
REMARK    3  A    between atoms: _22  and  _66
REMARK    4  A    between atoms: _27  and  _30
REMARK    5  A    between atoms: _32  and  _33
REMARK    6  A    between atoms: _38  and  _43
REMARK    7  A    between atoms: _43  and  _46
REMARK    8  A    between atoms: _53  and  _55
REMARK                            x       y       z     vdW  Elec       q    Type
REMARK                         _______ _______ _______ _____ _____    ______ ____
ROOT
ATOM     10  C   UNL     1      15.134  11.993  -2.566  0.00  0.00    +0.038 A 
ATOM     11  C   UNL     1      14.185  12.824  -3.214  0.00  0.00    +0.047 A 
ATOM     12  C   UNL     1      12.801  12.874  -2.770  0.00  0.00    +0.035 A 
ATOM     32  C   UNL     1      12.418  12.067  -1.659  0.00  0.00    +0.024 A 
ATOM     33  C   UNL     1      13.370  11.216  -0.989  0.00  0.00    +0.007 A 
ATOM     34  C   UNL     1      14.736  11.161  -1.425  0.00  0.00    -0.029 A 
ATOM     35  C   UNL     1      15.712  10.226  -0.673  0.00  0.00    +0.045 C 
ENDROOT
BRANCH  10   9
ATOM      4  C   UNL     1      19.660  13.590  -2.507  0.00  0.00    +0.077 A 
ATOM      5  C   UNL     1      19.373  14.542  -1.472  0.00  0.00    +0.048 A 
ATOM      6  C   UNL     1      18.047  14.594  -0.988  0.00  0.00    +0.116 A 
ATOM      7  N   UNL     1      17.087  13.751  -1.506  0.00  0.00    -0.223 NA
ATOM      8  C   UNL     1      17.397  12.846  -2.505  0.00  0.00    +0.220 A 
ATOM      9  N   UNL     1      16.450  11.984  -3.035  0.00  0.00    -0.283 N 
ATOM     36  H   UNL     1      16.716  11.336  -3.776  0.00  0.00    +0.155 HD
ATOM     37  N   UNL     1      18.656  12.778  -2.985  0.00  0.00    -0.214 NA
BRANCH   4   3
ATOM      1  C   UNL     1      23.260  12.275  -3.290  0.00  0.00    +0.020 A 
ATOM      2  C   UNL     1      21.964  12.405  -2.664  0.00  0.00    +0.013 A 
ATOM      3  C   UNL     1      21.015  13.413  -3.119  0.00  0.00    +0.019 A 
ATOM     38  C   UNL     1      21.410  14.280  -4.219  0.00  0.00    +0.120 A 
ATOM     39  N   UNL     1      22.665  14.133  -4.801  0.00  0.00    -0.263 NA
ATOM     40  C   UNL     1      23.588  13.168  -4.371  0.00  0.00    +0.111 A 
ENDBRANCH   4   3
ENDBRANCH  10   9
BRANCH  12  13
ATOM     13  N   UNL     1      11.790  13.692  -3.394  0.00  0.00    -0.281 N 
ATOM     14  C   UNL     1      10.610  13.281  -3.990  0.00  0.00    +0.248 C 
ATOM     30  O   UNL     1      10.344  12.121  -4.268  0.00  0.00    -0.270 OA
ATOM     31  H   UNL     1      11.967  14.697  -3.396  0.00  0.00    +0.155 HD
BRANCH  14  15
ATOM     15  C   UNL     1       9.582  14.307  -4.342  0.00  0.00    +0.037 A 
ATOM     16  C   UNL     1       8.163  13.958  -4.445  0.00  0.00    +0.013 A 
ATOM     17  C   UNL     1       7.195  14.964  -4.803  0.00  0.00    +0.005 A 
ATOM     18  C   UNL     1       7.643  16.331  -5.059  0.00  0.00    -0.033 A 
ATOM     28  C   UNL     1       9.056  16.651  -4.945  0.00  0.00    +0.005 A 
ATOM     29  C   UNL     1      10.009  15.667  -4.595  0.00  0.00    +0.013 A 
BRANCH  18  19
ATOM     19  C   UNL     1       6.683  17.463  -5.467  0.00  0.00    +0.119 C 
BRANCH  19  20
ATOM     20  N   UNL     1       7.186  18.864  -5.346  0.00  0.00    -0.302 NA
ATOM     21  C   UNL     1       6.672  19.552  -4.078  0.00  0.00    +0.066 C 
ATOM     22  C   UNL     1       7.227  21.008  -3.956  0.00  0.00    -0.064 C 
ATOM     23  N   UNL     1       6.836  21.806  -5.201  0.00  0.00    +0.379 N 
ATOM     24  C   UNL     1       7.307  23.192  -5.063  0.00  0.00    -0.096 C 
ATOM     25  H   UNL     1       5.723  21.830  -5.252  0.00  0.00    -0.082 HD
ATOM     26  C   UNL     1       7.342  21.128  -6.466  0.00  0.00    -0.064 C 
ATOM     27  C   UNL     1       6.808  19.671  -6.563  0.00  0.00    +0.066 C 
ENDBRANCH  19  20
ENDBRANCH  18  19
ENDBRANCH  14  15
ENDBRANCH  12  13
TORSDOF 6
ENDMDL
MODEL 5
REMARK VINA RESULT:      -6.2     14.226     16.150
REMARK  Name = C:\Users\Docking\Desktop\test protocol\1iep_ligandH.pdb
REMARK  8 active torsions:
REMARK  status: ('A' for Active; 'I' for Inactive)
REMARK    1  A    between atoms: _5  and  _11
REMARK    2  A    between atoms: _19  and  _21
REMARK    3  A    between atoms: _22  and  _66
REMARK    4  A    between atoms: _27  and  _30
REMARK    5  A    between atoms: _32  and  _33
REMARK    6  A    between atoms: _38  and  _43
REMARK    7  A    between atoms: _43  and  _46
REMARK    8  A    between atoms: _53  and  _55
REMARK                            x       y       z     vdW  Elec       q    Type
REMARK                         _______ _______ _______ _____ _____    ______ ____
ROOT
ATOM     10  C   UNL     1       6.623   5.316 -11.993  0.00  0.00    +0.038 A 
ATOM     11  C   UNL     1       6.155   4.489 -10.941  0.00  0.00    +0.047 A 
ATOM     12  C   UNL     1       6.980   3.419 -10.401  0.00  0.00    +0.035 A 
ATOM     32  C   UNL     1       8.279   3.223 -10.953  0.00  0.00    +0.024 A 
ATOM     33  C   UNL     1       8.771   4.055 -12.024  0.00  0.00    +0.007 A 
ATOM     34  C   UNL     1       7.960   5.109 -12.563  0.00  0.00    -0.029 A 
ATOM     35  C   UNL     1       8.536   5.965 -13.715  0.00  0.00    +0.045 C 
ENDROOT
BRANCH  10   9
ATOM      4  C   UNL     1       2.850   6.838 -14.540  0.00  0.00    +0.077 A 
ATOM      5  C   UNL     1       2.529   5.507 -14.970  0.00  0.00    +0.048 A 
ATOM      6  C   UNL     1       3.364   4.460 -14.519  0.00  0.00    +0.116 A 
ATOM      7  N   UNL     1       4.437   4.735 -13.700  0.00  0.00    -0.223 NA
ATOM      8  C   UNL     1       4.720   6.030 -13.305  0.00  0.00    +0.220 A 
ATOM      9  N   UNL     1       5.789   6.328 -12.474  0.00  0.00    -0.283 N 
ATOM     36  H   UNL     1       5.968   7.297 -12.211  0.00  0.00    +0.155 HD
ATOM     37  N   UNL     1       3.938   7.047 -13.722  0.00  0.00    -0.214 NA
BRANCH   4   3
ATOM      1  C   UNL     1       0.148   9.183 -16.121  0.00  0.00    +0.020 A 
ATOM      2  C   UNL     1       0.875   7.984 -15.775  0.00  0.00    +0.013 A 
ATOM      3  C   UNL     1       2.060   8.049 -14.928  0.00  0.00    +0.019 A 
ATOM     38  C   UNL     1       2.485   9.353 -14.444  0.00  0.00    +0.120 A 
ATOM     39  N   UNL     1       1.766  10.491 -14.794  0.00  0.00    -0.263 NA
ATOM     40  C   UNL     1       0.625  10.441 -15.610  0.00  0.00    +0.111 A 
ENDBRANCH   4   3
ENDBRANCH  10   9
BRANCH  12  13
ATOM     13  N   UNL     1       6.555   2.542  -9.338  0.00  0.00    -0.281 N 
ATOM     14  C   UNL     1       5.843   1.358  -9.445  0.00  0.00    +0.248 C 
ATOM     30  O   UNL     1       5.276   0.981 -10.460  0.00  0.00    -0.270 OA
ATOM     31  H   UNL     1       6.809   2.828  -8.393  0.00  0.00    +0.155 HD
BRANCH  14  15
ATOM     15  C   UNL     1       5.733   0.471  -8.247  0.00  0.00    +0.037 A 
ATOM     16  C   UNL     1       4.864  -0.708  -8.252  0.00  0.00    +0.013 A 
ATOM     17  C   UNL     1       4.763  -1.537  -7.077  0.00  0.00    +0.005 A 
ATOM     18  C   UNL     1       5.536  -1.190  -5.887  0.00  0.00    -0.033 A 
ATOM     28  C   UNL     1       6.395  -0.017  -5.911  0.00  0.00    +0.005 A 
ATOM     29  C   UNL     1       6.495   0.798  -7.061  0.00  0.00    +0.013 A 
BRANCH  18  19
ATOM     19  C   UNL     1       5.474  -2.005  -4.582  0.00  0.00    +0.119 C 
BRANCH  19  20
ATOM     20  N   UNL     1       4.141  -2.140  -3.922  0.00  0.00    -0.302 NA
ATOM     21  C   UNL     1       3.952  -1.120  -2.795  0.00  0.00    +0.066 C 
ATOM     22  C   UNL     1       2.543  -1.260  -2.131  0.00  0.00    -0.064 C 
ATOM     23  N   UNL     1       2.369  -2.687  -1.607  0.00  0.00    +0.379 N 
ATOM     24  C   UNL     1       1.069  -2.806  -0.931  0.00  0.00    -0.096 C 
ATOM     25  H   UNL     1       3.164  -2.866  -0.846  0.00  0.00    -0.082 HD
ATOM     26  C   UNL     1       2.558  -3.707  -2.721  0.00  0.00    -0.064 C 
ATOM     27  C   UNL     1       3.949  -3.540  -3.393  0.00  0.00    +0.066 C 
ENDBRANCH  19  20
ENDBRANCH  18  19
ENDBRANCH  14  15
ENDBRANCH  12  13
TORSDOF 6
ENDMDL
