MODEL 1
REMARK VINA RESULT:      -8.2      0.000      0.000
REMARK  Name = C:\Users\Docking\Desktop\test protocol\1iep_ligandH.pdb
REMARK  8 active torsions:
REMARK  status: ('A' for Active; 'I' for Inactive)
REMARK    1  A    between atoms: _5  and  _11
REMARK    2  A    between atoms: _19  and  _21
REMARK    3  A    between atoms: _22  and  _66
REMARK    4  A    between atoms: _27  and  _30
REMARK    5  A    between atoms: _32  and  _33
REMARK    6  A    between atoms: _38  and  _43
REMARK    7  A    between atoms: _43  and  _46
REMARK    8  A    between atoms: _53  and  _55
REMARK                            x       y       z     vdW  Elec       q    Type
REMARK                         _______ _______ _______ _____ _____    ______ ____
ROOT
ATOM     10  C   UNL     1      11.508  26.859   8.120  0.00  0.00    +0.038 A 
ATOM     11  C   UNL     1      10.795  28.068   7.920  0.00  0.00    +0.047 A 
ATOM     12  C   UNL     1      10.405  28.500   6.587  0.00  0.00    +0.035 A 
ATOM     32  C   UNL     1      10.755  27.674   5.480  0.00  0.00    +0.024 A 
ATOM     33  C   UNL     1      11.480  26.441   5.665  0.00  0.00    +0.007 A 
ATOM     34  C   UNL     1      11.870  26.012   6.977  0.00  0.00    -0.029 A 
ATOM     35  C   UNL     1      12.652  24.685   7.116  0.00  0.00    +0.045 C 
ENDROOT
BRANCH  10   9
ATOM      4  C   UNL     1      10.648  24.560  12.245  0.00  0.00    +0.077 A 
ATOM      5  C   UNL     1       9.384  24.070  11.777  0.00  0.00    +0.048 A 
ATOM      6  C   UNL     1       8.988  24.438  10.472  0.00  0.00    +0.116 A 
ATOM      7  N   UNL     1       9.804  25.237   9.700  0.00  0.00    -0.223 NA
ATOM      8  C   UNL     1      11.017  25.694  10.183  0.00  0.00    +0.220 A 
ATOM      9  N   UNL     1      11.857  26.492   9.422  0.00  0.00    -0.283 N 
ATOM     36  H   UNL     1      12.740  26.815   9.817  0.00  0.00    +0.155 HD
ATOM     37  N   UNL     1      11.417  25.358  11.427  0.00  0.00    -0.214 NA
BRANCH   4   3
ATOM      1  C   UNL     1      13.104  24.105  15.255  0.00  0.00    +0.020 A 
ATOM      2  C   UNL     1      12.617  24.412  13.931  0.00  0.00    +0.013 A 
ATOM      3  C   UNL     1      11.206  24.256  13.601  0.00  0.00    +0.019 A 
ATOM     38  C   UNL     1      10.307  23.783  14.643  0.00  0.00    +0.120 A 
ATOM     39  N   UNL     1      10.805  23.493  15.909  0.00  0.00    -0.263 NA
ATOM     40  C   UNL     1      12.161  23.638  16.238  0.00  0.00    +0.111 A 
ENDBRANCH   4   3
ENDBRANCH  10   9
BRANCH  12  13
ATOM     13  N   UNL     1       9.687  29.722   6.322  0.00  0.00    -0.281 N 
ATOM     14  C   UNL     1      10.210  30.964   6.000  0.00  0.00    +0.248 C 
ATOM     30  O   UNL     1      11.390  31.264   6.101  0.00  0.00    -0.270 OA
ATOM     31  H   UNL     1       8.670  29.665   6.378  0.00  0.00    +0.155 HD
BRANCH  14  15
ATOM     15  C   UNL     1       9.286  32.031   5.508  0.00  0.00    +0.037 A 
ATOM     16  C   UNL     1       8.949  32.149   4.087  0.00  0.00    +0.013 A 
ATOM     17  C   UNL     1       8.068  33.198   3.637  0.00  0.00    +0.005 A 
ATOM     18  C   UNL     1       7.518  34.137   4.611  0.00  0.00    -0.033 A 
ATOM     28  C   UNL     1       7.864  33.994   6.015  0.00  0.00    +0.005 A 
ATOM     29  C   UNL     1       8.728  32.968   6.459  0.00  0.00    +0.013 A 
BRANCH  18  19
ATOM     19  C   UNL     1       6.587  35.300   4.217  0.00  0.00    +0.119 C 
BRANCH  19  20
ATOM     20  N   UNL     1       5.119  35.025   4.199  0.00  0.00    -0.302 NA
ATOM     21  C   UNL     1       4.526  35.161   2.794  0.00  0.00    +0.066 C 
ATOM     22  C   UNL     1       2.994  34.848   2.790  0.00  0.00    -0.064 C 
ATOM     23  N   UNL     1       2.283  35.782   3.772  0.00  0.00    +0.379 N 
ATOM     24  C   UNL     1       0.836  35.530   3.727  0.00  0.00    -0.096 C 
ATOM     25  H   UNL     1       2.455  36.828   3.427  0.00  0.00    -0.082 HD
ATOM     26  C   UNL     1       2.869  35.654   5.171  0.00  0.00    -0.064 C 
ATOM     27  C   UNL     1       4.397  35.939   5.159  0.00  0.00    +0.066 C 
ENDBRANCH  19  20
ENDBRANCH  18  19
ENDBRANCH  14  15
ENDBRANCH  12  13
TORSDOF 6
ENDMDL
MODEL 2
REMARK VINA RESULT:      -8.1     13.641     16.797
REMARK  Name = C:\Users\Docking\Desktop\test protocol\1iep_ligandH.pdb
REMARK  8 active torsions:
REMARK  status: ('A' for Active; 'I' for Inactive)
REMARK    1  A    between atoms: _5  and  _11
REMARK    2  A    between atoms: _19  and  _21
REMARK    3  A    between atoms: _22  and  _66
REMARK    4  A    between atoms: _27  and  _30
REMARK    5  A    between atoms: _32  and  _33
REMARK    6  A    between atoms: _38  and  _43
REMARK    7  A    between atoms: _43  and  _46
REMARK    8  A    between atoms: _53  and  _55
REMARK                            x       y       z     vdW  Elec       q    Type
REMARK                         _______ _______ _______ _____ _____    ______ ____
ROOT
ATOM     10  C   UNL     1       1.066  36.267  17.811  0.00  0.00    +0.038 A 
ATOM     11  C   UNL     1       1.184  37.678  17.877  0.00  0.00    +0.047 A 
ATOM     12  C   UNL     1       1.438  38.354  19.140  0.00  0.00    +0.035 A 
ATOM     32  C   UNL     1       1.570  37.560  20.316  0.00  0.00    +0.024 A 
ATOM     33  C   UNL     1       1.452  36.124  20.268  0.00  0.00    +0.007 A 
ATOM     34  C   UNL     1       1.199  35.452  19.025  0.00  0.00    -0.029 A 
ATOM     35  C   UNL     1       1.075  33.911  19.033  0.00  0.00    +0.045 C 
ENDROOT
BRANCH  10   9
ATOM      4  C   UNL     1       2.528  34.606  13.551  0.00  0.00    +0.077 A 
ATOM      5  C   UNL     1       3.889  34.982  13.805  0.00  0.00    +0.048 A 
ATOM      6  C   UNL     1       4.169  35.608  15.041  0.00  0.00    +0.116 A 
ATOM      7  N   UNL     1       3.157  35.834  15.948  0.00  0.00    -0.223 NA
ATOM      8  C   UNL     1       1.855  35.460  15.671  0.00  0.00    +0.220 A 
ATOM      9  N   UNL     1       0.822  35.670  16.572  0.00  0.00    -0.283 N 
ATOM     36  H   UNL     1      -0.126  35.387  16.327  0.00  0.00    +0.155 HD
ATOM     37  N   UNL     1       1.560  34.862  14.497  0.00  0.00    -0.214 NA
BRANCH   4   3
ATOM      1  C   UNL     1       0.295  33.252  10.639  0.00  0.00    +0.020 A 
ATOM      2  C   UNL     1       0.681  33.915  11.863  0.00  0.00    +0.013 A 
ATOM      3  C   UNL     1       2.074  33.934  12.293  0.00  0.00    +0.019 A 
ATOM     38  C   UNL     1       3.059  33.268  11.454  0.00  0.00    +0.120 A 
ATOM     39  N   UNL     1       2.658  32.636  10.281  0.00  0.00    -0.263 NA
ATOM     40  C   UNL     1       1.320  32.610   9.858  0.00  0.00    +0.111 A 
ENDBRANCH   4   3
ENDBRANCH  10   9
BRANCH  12  13
ATOM     13  N   UNL     1       1.560  39.785  19.270  0.00  0.00    -0.281 N 
ATOM     14  C   UNL     1       2.706  40.555  19.164  0.00  0.00    +0.248 C 
ATOM     30  O   UNL     1       3.842  40.106  19.154  0.00  0.00    -0.270 OA
ATOM     31  H   UNL     1       0.695  40.291  19.463  0.00  0.00    +0.155 HD
BRANCH  14  15
ATOM     15  C   UNL     1       2.571  42.041  19.072  0.00  0.00    +0.037 A 
ATOM     16  C   UNL     1       1.380  42.729  19.575  0.00  0.00    +0.013 A 
ATOM     17  C   UNL     1       1.268  44.161  19.458  0.00  0.00    +0.005 A 
ATOM     18  C   UNL     1       2.353  44.916  18.836  0.00  0.00    -0.033 A 
ATOM     28  C   UNL     1       3.526  44.209  18.350  0.00  0.00    +0.005 A 
ATOM     29  C   UNL     1       3.639  42.805  18.462  0.00  0.00    +0.013 A 
BRANCH  18  19
ATOM     19  C   UNL     1       2.309  46.444  18.650  0.00  0.00    +0.119 C 
BRANCH  19  20
ATOM     20  N   UNL     1       1.521  46.970  17.495  0.00  0.00    -0.302 NA
ATOM     21  C   UNL     1       0.014  46.933  17.764  0.00  0.00    +0.066 C 
ATOM     22  C   UNL     1      -0.794  47.508  16.555  0.00  0.00    -0.064 C 
ATOM     23  N   UNL     1      -0.449  46.717  15.293  0.00  0.00    +0.379 N 
ATOM     24  C   UNL     1      -1.250  47.217  14.166  0.00  0.00    -0.096 C 
ATOM     25  H   UNL     1      -0.739  45.655  15.469  0.00  0.00    -0.082 HD
ATOM     26  C   UNL     1       1.048  46.746  15.019  0.00  0.00    -0.064 C 
ATOM     27  C   UNL     1       1.843  46.200  16.238  0.00  0.00    +0.066 C 
ENDBRANCH  19  20
ENDBRANCH  18  19
ENDBRANCH  14  15
ENDBRANCH  12  13
TORSDOF 6
ENDMDL
MODEL 3
REMARK VINA RESULT:      -8.0     17.900     21.587
REMARK  Name = C:\Users\Docking\Desktop\test protocol\1iep_ligandH.pdb
REMARK  8 active torsions:
REMARK  status: ('A' for Active; 'I' for Inactive)
REMARK    1  A    between atoms: _5  and  _11
REMARK    2  A    between atoms: _19  and  _21
REMARK    3  A    between atoms: _22  and  _66
REMARK    4  A    between atoms: _27  and  _30
REMARK    5  A    between atoms: _32  and  _33
REMARK    6  A    between atoms: _38  and  _43
REMARK    7  A    between atoms: _43  and  _46
REMARK    8  A    between atoms: _53  and  _55
REMARK                            x       y       z     vdW  Elec       q    Type
REMARK                         _______ _______ _______ _____ _____    ______ ____
ROOT
ATOM     10  C   UNL     1       2.993  45.648  19.874  0.00  0.00    +0.038 A 
ATOM     11  C   UNL     1       3.304  44.266  19.811  0.00  0.00    +0.047 A 
ATOM     12  C   UNL     1       2.571  43.370  18.930  0.00  0.00    +0.035 A 
ATOM     32  C   UNL     1       1.529  43.916  18.125  0.00  0.00    +0.024 A 
ATOM     33  C   UNL     1       1.199  45.319  18.178  0.00  0.00    +0.007 A 
ATOM     34  C   UNL     1       1.917  46.207  19.047  0.00  0.00    -0.029 A 
ATOM     35  C   UNL     1       1.516  47.701  19.067  0.00  0.00    +0.045 C 
ENDROOT
BRANCH  10   9
ATOM      4  C   UNL     1       3.763  47.667  24.160  0.00  0.00    +0.077 A 
ATOM      5  C   UNL     1       2.585  47.070  24.719  0.00  0.00    +0.048 A 
ATOM      6  C   UNL     1       1.804  46.256  23.868  0.00  0.00    +0.116 A 
ATOM      7  N   UNL     1       2.183  46.060  22.558  0.00  0.00    -0.223 NA
ATOM      8  C   UNL     1       3.325  46.652  22.050  0.00  0.00    +0.220 A 
ATOM      9  N   UNL     1       3.729  46.463  20.738  0.00  0.00    -0.283 N 
ATOM     36  H   UNL     1       4.574  46.924  20.399  0.00  0.00    +0.155 HD
ATOM     37  N   UNL     1       4.086  47.436  22.842  0.00  0.00    -0.214 NA
BRANCH   4   3
ATOM      1  C   UNL     1       6.992  49.254  25.696  0.00  0.00    +0.020 A 
ATOM      2  C   UNL     1       6.139  48.373  24.932  0.00  0.00    +0.013 A 
ATOM      3  C   UNL     1       4.692  48.550  24.933  0.00  0.00    +0.019 A 
ATOM     38  C   UNL     1       4.136  49.638  25.724  0.00  0.00    +0.120 A 
ATOM     39  N   UNL     1       4.982  50.470  26.451  0.00  0.00    -0.263 NA
ATOM     40  C   UNL     1       6.376  50.308  26.458  0.00  0.00    +0.111 A 
ENDBRANCH   4   3
ENDBRANCH  10   9
BRANCH  12  13
ATOM     13  N   UNL     1       2.836  41.956  18.829  0.00  0.00    -0.281 N 
ATOM     14  C   UNL     1       2.187  40.919  19.478  0.00  0.00    +0.248 C 
ATOM     30  O   UNL     1       1.413  41.066  20.413  0.00  0.00    -0.270 OA
ATOM     31  H   UNL     1       3.596  41.687  18.202  0.00  0.00    +0.155 HD
BRANCH  14  15
ATOM     15  C   UNL     1       2.444  39.515  19.033  0.00  0.00    +0.037 A 
ATOM     16  C   UNL     1       1.340  38.594  18.750  0.00  0.00    +0.013 A 
ATOM     17  C   UNL     1       1.616  37.240  18.340  0.00  0.00    +0.005 A 
ATOM     18  C   UNL     1       3.003  36.800  18.208  0.00  0.00    -0.033 A 
ATOM     28  C   UNL     1       4.078  37.736  18.491  0.00  0.00    +0.005 A 
ATOM     29  C   UNL     1       3.812  39.064  18.894  0.00  0.00    +0.013 A 
BRANCH  18  19
ATOM     19  C   UNL     1       3.390  35.367  17.796  0.00  0.00    +0.119 C 
BRANCH  19  20
ATOM     20  N   UNL     1       2.947  34.900  16.449  0.00  0.00    -0.302 NA
ATOM     21  C   UNL     1       3.161  33.395  16.264  0.00  0.00    +0.066 C 
ATOM     22  C   UNL     1       2.672  32.919  14.858  0.00  0.00    -0.064 C 
ATOM     23  N   UNL     1       3.405  33.708  13.771  0.00  0.00    +0.379 N 
ATOM     24  C   UNL     1       2.989  33.223  12.447  0.00  0.00    -0.096 C 
ATOM     25  H   UNL     1       4.495  33.501  13.881  0.00  0.00    -0.082 HD
ATOM     26  C   UNL     1       3.199  35.206  13.950  0.00  0.00    -0.064 C 
ATOM     27  C   UNL     1       3.662  35.663  15.361  0.00  0.00    +0.066 C 
ENDBRANCH  19  20
ENDBRANCH  18  19
ENDBRANCH  14  15
ENDBRANCH  12  13
TORSDOF 6
ENDMDL
MODEL 4
REMARK VINA RESULT:      -8.0     14.542     17.294
REMARK  Name = C:\Users\Docking\Desktop\test protocol\1iep_ligandH.pdb
REMARK  8 active torsions:
REMARK  status: ('A' for Active; 'I' for Inactive)
REMARK    1  A    between atoms: _5  and  _11
REMARK    2  A    between atoms: _19  and  _21
REMARK    3  A    between atoms: _22  and  _66
REMARK    4  A    between atoms: _27  and  _30
REMARK    5  A    between atoms: _32  and  _33
REMARK    6  A    between atoms: _38  and  _43
REMARK    7  A    between atoms: _43  and  _46
REMARK    8  A    between atoms: _53  and  _55
REMARK                            x       y       z     vdW  Elec       q    Type
REMARK                         _______ _______ _______ _____ _____    ______ ____
ROOT
ATOM     10  C   UNL     1       1.437  37.484  19.278  0.00  0.00    +0.038 A 
ATOM     11  C   UNL     1       1.390  38.871  18.985  0.00  0.00    +0.047 A 
ATOM     12  C   UNL     1       1.478  39.866  20.042  0.00  0.00    +0.035 A 
ATOM     32  C   UNL     1       1.616  39.414  21.386  0.00  0.00    +0.024 A 
ATOM     33  C   UNL     1       1.665  38.008  21.702  0.00  0.00    +0.007 A 
ATOM     34  C   UNL     1       1.576  37.021  20.664  0.00  0.00    -0.029 A 
ATOM     35  C   UNL     1       1.627  35.527  21.061  0.00  0.00    +0.045 C 
ENDROOT
BRANCH  10   9
ATOM      4  C   UNL     1       3.381  34.969  15.681  0.00  0.00    +0.077 A 
ATOM      5  C   UNL     1       4.678  35.541  15.904  0.00  0.00    +0.048 A 
ATOM      6  C   UNL     1       4.801  36.484  16.949  0.00  0.00    +0.116 A 
ATOM      7  N   UNL     1       3.702  36.822  17.709  0.00  0.00    -0.223 NA
ATOM      8  C   UNL     1       2.465  36.253  17.467  0.00  0.00    +0.220 A 
ATOM      9  N   UNL     1       1.348  36.572  18.224  0.00  0.00    -0.283 N 
ATOM     36  H   UNL     1       0.452  36.135  18.009  0.00  0.00    +0.155 HD
ATOM     37  N   UNL     1       2.322  35.351  16.474  0.00  0.00    -0.214 NA
BRANCH   4   3
ATOM      1  C   UNL     1       2.488  31.631  13.848  0.00  0.00    +0.020 A 
ATOM      2  C   UNL     1       2.759  32.569  14.913  0.00  0.00    +0.013 A 
ATOM      3  C   UNL     1       3.093  33.956  14.617  0.00  0.00    +0.019 A 
ATOM     38  C   UNL     1       3.144  34.366  13.222  0.00  0.00    +0.120 A 
ATOM     39  N   UNL     1       2.880  33.440  12.217  0.00  0.00    -0.263 NA
ATOM     40  C   UNL     1       2.559  32.102  12.490  0.00  0.00    +0.111 A 
ENDBRANCH   4   3
ENDBRANCH  10   9
BRANCH  12  13
ATOM     13  N   UNL     1       1.427  41.288  19.806  0.00  0.00    -0.281 N 
ATOM     14  C   UNL     1       2.350  42.073  19.134  0.00  0.00    +0.248 C 
ATOM     30  O   UNL     1       3.471  41.704  18.817  0.00  0.00    -0.270 OA
ATOM     31  H   UNL     1       0.612  41.775  20.180  0.00  0.00    +0.155 HD
BRANCH  14  15
ATOM     15  C   UNL     1       1.979  43.476  18.776  0.00  0.00    +0.037 A 
ATOM     16  C   UNL     1       0.704  44.058  19.202  0.00  0.00    +0.013 A 
ATOM     17  C   UNL     1       0.363  45.407  18.828  0.00  0.00    +0.005 A 
ATOM     18  C   UNL     1       1.302  46.186  18.024  0.00  0.00    -0.033 A 
ATOM     28  C   UNL     1       2.562  45.586  17.619  0.00  0.00    +0.005 A 
ATOM     29  C   UNL     1       2.899  44.263  17.983  0.00  0.00    +0.013 A 
BRANCH  18  19
ATOM     19  C   UNL     1       1.012  47.626  17.561  0.00  0.00    +0.119 C 
BRANCH  19  20
ATOM     20  N   UNL     1       0.178  47.796  16.334  0.00  0.00    -0.302 NA
ATOM     21  C   UNL     1      -1.302  47.998  16.669  0.00  0.00    +0.066 C 
ATOM     22  C   UNL     1      -2.156  48.196  15.375  0.00  0.00    -0.064 C 
ATOM     23  N   UNL     1      -1.970  46.989  14.454  0.00  0.00    +0.379 N 
ATOM     24  C   UNL     1      -2.817  47.145  13.262  0.00  0.00    -0.096 C 
ATOM     25  H   UNL     1      -2.323  46.086  15.004  0.00  0.00    -0.082 HD
ATOM     26  C   UNL     1      -0.500  46.779  14.118  0.00  0.00    -0.064 C 
ATOM     27  C   UNL     1       0.344  46.612  15.412  0.00  0.00    +0.066 C 
ENDBRANCH  19  20
ENDBRANCH  18  19
ENDBRANCH  14  15
ENDBRANCH  12  13
TORSDOF 6
ENDMDL
MODEL 5
REMARK VINA RESULT:      -7.8     14.953     21.592
REMARK  Name = C:\Users\Docking\Desktop\test protocol\1iep_ligandH.pdb
REMARK  8 active torsions:
REMARK  status: ('A' for Active; 'I' for Inactive)
REMARK    1  A    between atoms: _5  and  _11
REMARK    2  A    between atoms: _19  and  _21
REMARK    3  A    between atoms: _22  and  _66
REMARK    4  A    between atoms: _27  and  _30
REMARK    5  A    between atoms: _32  and  _33
REMARK    6  A    between atoms: _38  and  _43
REMARK    7  A    between atoms: _43  and  _46
REMARK    8  A    between atoms: _53  and  _55
REMARK                            x       y       z     vdW  Elec       q    Type
REMARK                         _______ _______ _______ _____ _____    ______ ____
ROOT
ATOM     10  C   UNL     1       1.411  46.057  17.288  0.00  0.00    +0.038 A 
ATOM     11  C   UNL     1       1.758  44.684  17.381  0.00  0.00    +0.047 A 
ATOM     12  C   UNL     1       2.288  44.123  18.614  0.00  0.00    +0.035 A 
ATOM     32  C   UNL     1       2.450  44.989  19.735  0.00  0.00    +0.024 A 
ATOM     33  C   UNL     1       2.104  46.386  19.658  0.00  0.00    +0.007 A 
ATOM     34  C   UNL     1       1.583  46.946  18.444  0.00  0.00    -0.029 A 
ATOM     35  C   UNL     1       1.234  48.452  18.417  0.00  0.00    +0.045 C 
ENDROOT
BRANCH  10   9
ATOM      4  C   UNL     1      -2.164  46.717  14.155  0.00  0.00    +0.077 A 
ATOM      5  C   UNL     1      -3.099  46.011  14.983  0.00  0.00    +0.048 A 
ATOM      6  C   UNL     1      -2.618  45.488  16.205  0.00  0.00    +0.116 A 
ATOM      7  N   UNL     1      -1.299  45.663  16.561  0.00  0.00    -0.223 NA
ATOM      8  C   UNL     1      -0.423  46.347  15.738  0.00  0.00    +0.220 A 
ATOM      9  N   UNL     1       0.907  46.542  16.080  0.00  0.00    -0.283 N 
ATOM     36  H   UNL     1       1.523  47.045  15.442  0.00  0.00    +0.155 HD
ATOM     37  N   UNL     1      -0.857  46.855  14.566  0.00  0.00    -0.214 NA
BRANCH   4   3
ATOM      1  C   UNL     1      -2.353  47.488  10.325  0.00  0.00    +0.020 A 
ATOM      2  C   UNL     1      -1.975  46.861  11.570  0.00  0.00    +0.013 A 
ATOM      3  C   UNL     1      -2.522  47.330  12.837  0.00  0.00    +0.019 A 
ATOM     38  C   UNL     1      -3.457  48.444  12.809  0.00  0.00    +0.120 A 
ATOM     39  N   UNL     1      -3.802  49.030  11.594  0.00  0.00    -0.263 NA
ATOM     40  C   UNL     1      -3.280  48.588  10.369  0.00  0.00    +0.111 A 
ENDBRANCH   4   3
ENDBRANCH  10   9
BRANCH  12  13
ATOM     13  N   UNL     1       2.665  42.740  18.764  0.00  0.00    -0.281 N 
ATOM     14  C   UNL     1       1.973  41.735  19.420  0.00  0.00    +0.248 C 
ATOM     30  O   UNL     1       1.022  41.923  20.164  0.00  0.00    -0.270 OA
ATOM     31  H   UNL     1       3.550  42.468  18.335  0.00  0.00    +0.155 HD
BRANCH  14  15
ATOM     15  C   UNL     1       2.409  40.318  19.234  0.00  0.00    +0.037 A 
ATOM     16  C   UNL     1       3.823  39.974  19.065  0.00  0.00    +0.013 A 
ATOM     17  C   UNL     1       4.215  38.600  18.870  0.00  0.00    +0.005 A 
ATOM     18  C   UNL     1       3.190  37.560  18.845  0.00  0.00    -0.033 A 
ATOM     28  C   UNL     1       1.795  37.928  19.020  0.00  0.00    +0.005 A 
ATOM     29  C   UNL     1       1.407  39.273  19.210  0.00  0.00    +0.013 A 
BRANCH  18  19
ATOM     19  C   UNL     1       3.515  36.071  18.621  0.00  0.00    +0.119 C 
BRANCH  19  20
ATOM     20  N   UNL     1       3.317  35.527  17.245  0.00  0.00    -0.302 NA
ATOM     21  C   UNL     1       4.318  36.112  16.245  0.00  0.00    +0.066 C 
ATOM     22  C   UNL     1       4.111  35.515  14.815  0.00  0.00    -0.064 C 
ATOM     23  N   UNL     1       2.675  35.778  14.360  0.00  0.00    +0.379 N 
ATOM     24  C   UNL     1       2.493  35.269  12.992  0.00  0.00    -0.096 C 
ATOM     25  H   UNL     1       2.525  36.883  14.332  0.00  0.00    -0.082 HD
ATOM     26  C   UNL     1       1.672  35.201  15.349  0.00  0.00    -0.064 C 
ATOM     27  C   UNL     1       1.906  35.779  16.773  0.00  0.00    +0.066 C 
ENDBRANCH  19  20
ENDBRANCH  18  19
ENDBRANCH  14  15
ENDBRANCH  12  13
TORSDOF 6
ENDMDL
