MODEL 1
REMARK VINA RESULT:      -7.7      0.000      0.000
REMARK  Name = C:\Users\Docking\Desktop\test protocol\1iep_ligandH.pdb
REMARK  8 active torsions:
REMARK  status: ('A' for Active; 'I' for Inactive)
REMARK    1  A    between atoms: _5  and  _11
REMARK    2  A    between atoms: _19  and  _21
REMARK    3  A    between atoms: _22  and  _66
REMARK    4  A    between atoms: _27  and  _30
REMARK    5  A    between atoms: _32  and  _33
REMARK    6  A    between atoms: _38  and  _43
REMARK    7  A    between atoms: _43  and  _46
REMARK    8  A    between atoms: _53  and  _55
REMARK                            x       y       z     vdW  Elec       q    Type
REMARK                         _______ _______ _______ _____ _____    ______ ____
ROOT
ATOM     10  C   UNL     1      -2.765 -24.469  21.411  0.00  0.00    +0.038 A 
ATOM     11  C   UNL     1      -1.892 -24.121  22.473  0.00  0.00    +0.047 A 
ATOM     12  C   UNL     1      -0.883 -25.052  22.954  0.00  0.00    +0.035 A 
ATOM     32  C   UNL     1      -0.790 -26.330  22.329  0.00  0.00    +0.024 A 
ATOM     33  C   UNL     1      -1.670 -26.701  21.249  0.00  0.00    +0.007 A 
ATOM     34  C   UNL     1      -2.669 -25.787  20.771  0.00  0.00    -0.029 A 
ATOM     35  C   UNL     1      -3.589 -26.241  19.615  0.00  0.00    +0.045 C 
ENDROOT
BRANCH  10   9
ATOM      4  C   UNL     1      -7.084 -22.396  21.705  0.00  0.00    +0.077 A 
ATOM      5  C   UNL     1      -7.493 -23.263  22.772  0.00  0.00    +0.048 A 
ATOM      6  C   UNL     1      -6.564 -24.234  23.211  0.00  0.00    +0.116 A 
ATOM      7  N   UNL     1      -5.323 -24.322  22.620  0.00  0.00    -0.223 NA
ATOM      8  C   UNL     1      -4.961 -23.471  21.592  0.00  0.00    +0.220 A 
ATOM      9  N   UNL     1      -3.714 -23.536  20.988  0.00  0.00    -0.283 N 
ATOM     36  H   UNL     1      -3.488 -22.896  20.228  0.00  0.00    +0.155 HD
ATOM     37  N   UNL     1      -5.830 -22.537  21.153  0.00  0.00    -0.214 NA
BRANCH   4   3
ATOM      1  C   UNL     1      -8.372 -18.943  20.396  0.00  0.00    +0.020 A 
ATOM      2  C   UNL     1      -7.495 -19.946  20.953  0.00  0.00    +0.013 A 
ATOM      3  C   UNL     1      -7.951 -21.318  21.133  0.00  0.00    +0.019 A 
ATOM     38  C   UNL     1      -9.312 -21.646  20.734  0.00  0.00    +0.120 A 
ATOM     39  N   UNL     1     -10.135 -20.659  20.201  0.00  0.00    -0.263 NA
ATOM     40  C   UNL     1      -9.707 -19.334  20.025  0.00  0.00    +0.111 A 
ENDBRANCH   4   3
ENDBRANCH  10   9
BRANCH  12  13
ATOM     13  N   UNL     1       0.026 -24.757  24.034  0.00  0.00    -0.281 N 
ATOM     14  C   UNL     1       1.236 -24.088  23.969  0.00  0.00    +0.248 C 
ATOM     30  O   UNL     1       1.827 -23.826  22.932  0.00  0.00    -0.270 OA
ATOM     31  H   UNL     1      -0.258 -25.082  24.959  0.00  0.00    +0.155 HD
BRANCH  14  15
ATOM     15  C   UNL     1       1.894 -23.660  25.241  0.00  0.00    +0.037 A 
ATOM     16  C   UNL     1       2.425 -24.641  26.190  0.00  0.00    +0.013 A 
ATOM     17  C   UNL     1       3.039 -24.202  27.418  0.00  0.00    +0.005 A 
ATOM     18  C   UNL     1       3.126 -22.772  27.703  0.00  0.00    -0.033 A 
ATOM     28  C   UNL     1       2.596 -21.819  26.742  0.00  0.00    +0.005 A 
ATOM     29  C   UNL     1       1.992 -22.246  25.538  0.00  0.00    +0.013 A 
BRANCH  18  19
ATOM     19  C   UNL     1       3.746 -22.213  28.998  0.00  0.00    +0.119 C 
BRANCH  19  20
ATOM     20  N   UNL     1       4.482 -23.174  29.873  0.00  0.00    -0.302 NA
ATOM     21  C   UNL     1       3.880 -23.248  31.279  0.00  0.00    +0.066 C 
ATOM     22  C   UNL     1       4.648 -24.274  32.174  0.00  0.00    -0.064 C 
ATOM     23  N   UNL     1       6.126 -23.884  32.238  0.00  0.00    +0.379 N 
ATOM     24  C   UNL     1       6.840 -24.813  33.126  0.00  0.00    -0.096 C 
ATOM     25  H   UNL     1       6.188 -22.868  32.692  0.00  0.00    -0.082 HD
ATOM     26  C   UNL     1       6.732 -23.805  30.844  0.00  0.00    -0.064 C 
ATOM     27  C   UNL     1       5.943 -22.805  29.954  0.00  0.00    +0.066 C 
ENDBRANCH  19  20
ENDBRANCH  18  19
ENDBRANCH  14  15
ENDBRANCH  12  13
TORSDOF 6
ENDMDL
MODEL 2
REMARK VINA RESULT:      -7.7     23.066     25.221
REMARK  Name = C:\Users\Docking\Desktop\test protocol\1iep_ligandH.pdb
REMARK  8 active torsions:
REMARK  status: ('A' for Active; 'I' for Inactive)
REMARK    1  A    between atoms: _5  and  _11
REMARK    2  A    between atoms: _19  and  _21
REMARK    3  A    between atoms: _22  and  _66
REMARK    4  A    between atoms: _27  and  _30
REMARK    5  A    between atoms: _32  and  _33
REMARK    6  A    between atoms: _38  and  _43
REMARK    7  A    between atoms: _43  and  _46
REMARK    8  A    between atoms: _53  and  _55
REMARK                            x       y       z     vdW  Elec       q    Type
REMARK                         _______ _______ _______ _____ _____    ______ ____
ROOT
ATOM     10  C   UNL     1      16.885  -7.121  25.562  0.00  0.00    +0.038 A 
ATOM     11  C   UNL     1      17.323  -8.470  25.542  0.00  0.00    +0.047 A 
ATOM     12  C   UNL     1      18.551  -8.852  24.863  0.00  0.00    +0.035 A 
ATOM     32  C   UNL     1      19.311  -7.834  24.216  0.00  0.00    +0.024 A 
ATOM     33  C   UNL     1      18.879  -6.458  24.225  0.00  0.00    +0.007 A 
ATOM     34  C   UNL     1      17.667  -6.076  24.891  0.00  0.00    -0.029 A 
ATOM     35  C   UNL     1      17.250  -4.587  24.863  0.00  0.00    +0.045 C 
ENDROOT
BRANCH  10   9
ATOM      4  C   UNL     1      14.433  -5.973  29.525  0.00  0.00    +0.077 A 
ATOM      5  C   UNL     1      15.612  -6.023  30.340  0.00  0.00    +0.048 A 
ATOM      6  C   UNL     1      16.828  -6.355  29.703  0.00  0.00    +0.116 A 
ATOM      7  N   UNL     1      16.852  -6.615  28.350  0.00  0.00    -0.223 NA
ATOM      8  C   UNL     1      15.696  -6.560  27.593  0.00  0.00    +0.220 A 
ATOM      9  N   UNL     1      15.698  -6.810  26.229  0.00  0.00    -0.283 N 
ATOM     36  H   UNL     1      14.823  -6.766  25.707  0.00  0.00    +0.155 HD
ATOM     37  N   UNL     1      14.522  -6.246  28.178  0.00  0.00    -0.214 NA
BRANCH   4   3
ATOM      1  C   UNL     1      10.603  -5.215  29.761  0.00  0.00    +0.020 A 
ATOM      2  C   UNL     1      11.893  -5.546  29.202  0.00  0.00    +0.013 A 
ATOM      3  C   UNL     1      13.073  -5.633  30.052  0.00  0.00    +0.019 A 
ATOM     38  C   UNL     1      12.913  -5.379  31.476  0.00  0.00    +0.120 A 
ATOM     39  N   UNL     1      11.658  -5.060  31.986  0.00  0.00    -0.263 NA
ATOM     40  C   UNL     1      10.515  -4.972  31.177  0.00  0.00    +0.111 A 
ENDBRANCH   4   3
ENDBRANCH  10   9
BRANCH  12  13
ATOM     13  N   UNL     1      19.042 -10.207  24.803  0.00  0.00    -0.281 N 
ATOM     14  C   UNL     1      18.808 -11.155  23.821  0.00  0.00    +0.248 C 
ATOM     30  O   UNL     1      17.961 -11.049  22.946  0.00  0.00    -0.270 OA
ATOM     31  H   UNL     1      19.634 -10.503  25.580  0.00  0.00    +0.155 HD
BRANCH  14  15
ATOM     15  C   UNL     1      19.621 -12.408  23.818  0.00  0.00    +0.037 A 
ATOM     16  C   UNL     1      18.996 -13.721  23.998  0.00  0.00    +0.013 A 
ATOM     17  C   UNL     1      19.806 -14.913  24.009  0.00  0.00    +0.005 A 
ATOM     18  C   UNL     1      21.252 -14.797  23.837  0.00  0.00    -0.033 A 
ATOM     28  C   UNL     1      21.846 -13.483  23.655  0.00  0.00    +0.005 A 
ATOM     29  C   UNL     1      21.055 -12.312  23.645  0.00  0.00    +0.013 A 
BRANCH  18  19
ATOM     19  C   UNL     1      22.197 -16.014  23.856  0.00  0.00    +0.119 C 
BRANCH  19  20
ATOM     20  N   UNL     1      23.633 -15.770  23.526  0.00  0.00    -0.302 NA
ATOM     21  C   UNL     1      23.927 -15.993  22.040  0.00  0.00    +0.066 C 
ATOM     22  C   UNL     1      25.429 -15.711  21.708  0.00  0.00    -0.064 C 
ATOM     23  N   UNL     1      26.316 -16.605  22.576  0.00  0.00    +0.379 N 
ATOM     24  C   UNL     1      27.727 -16.385  22.226  0.00  0.00    -0.096 C 
ATOM     25  H   UNL     1      26.068 -17.665  22.333  0.00  0.00    -0.082 HD
ATOM     26  C   UNL     1      26.028 -16.392  24.055  0.00  0.00    -0.064 C 
ATOM     27  C   UNL     1      24.527 -16.646  24.369  0.00  0.00    +0.066 C 
ENDBRANCH  19  20
ENDBRANCH  18  19
ENDBRANCH  14  15
ENDBRANCH  12  13
TORSDOF 6
ENDMDL
MODEL 3
REMARK VINA RESULT:      -7.4     22.699     25.354
REMARK  Name = C:\Users\Docking\Desktop\test protocol\1iep_ligandH.pdb
REMARK  8 active torsions:
REMARK  status: ('A' for Active; 'I' for Inactive)
REMARK    1  A    between atoms: _5  and  _11
REMARK    2  A    between atoms: _19  and  _21
REMARK    3  A    between atoms: _22  and  _66
REMARK    4  A    between atoms: _27  and  _30
REMARK    5  A    between atoms: _32  and  _33
REMARK    6  A    between atoms: _38  and  _43
REMARK    7  A    between atoms: _43  and  _46
REMARK    8  A    between atoms: _53  and  _55
REMARK                            x       y       z     vdW  Elec       q    Type
REMARK                         _______ _______ _______ _____ _____    ______ ____
ROOT
ATOM     10  C   UNL     1      18.695  -8.157  25.248  0.00  0.00    +0.038 A 
ATOM     11  C   UNL     1      17.521  -8.068  26.040  0.00  0.00    +0.047 A 
ATOM     12  C   UNL     1      16.712  -6.859  26.052  0.00  0.00    +0.035 A 
ATOM     32  C   UNL     1      17.126  -5.761  25.243  0.00  0.00    +0.024 A 
ATOM     33  C   UNL     1      18.316  -5.834  24.433  0.00  0.00    +0.007 A 
ATOM     34  C   UNL     1      19.120  -7.023  24.419  0.00  0.00    -0.029 A 
ATOM     35  C   UNL     1      20.390  -7.043  23.536  0.00  0.00    +0.045 C 
ENDROOT
BRANCH  10   9
ATOM      4  C   UNL     1      19.465 -12.696  23.890  0.00  0.00    +0.077 A 
ATOM      5  C   UNL     1      18.281 -12.718  23.082  0.00  0.00    +0.048 A 
ATOM      6  C   UNL     1      17.496 -11.543  23.048  0.00  0.00    +0.116 A 
ATOM      7  N   UNL     1      17.879 -10.435  23.773  0.00  0.00    -0.223 NA
ATOM      8  C   UNL     1      19.026 -10.448  24.544  0.00  0.00    +0.220 A 
ATOM      9  N   UNL     1      19.434  -9.342  25.274  0.00  0.00    -0.283 N 
ATOM     36  H   UNL     1      20.283  -9.394  25.836  0.00  0.00    +0.155 HD
ATOM     37  N   UNL     1      19.791 -11.558  24.594  0.00  0.00    -0.214 NA
BRANCH   4   3
ATOM      1  C   UNL     1      22.591 -15.029  23.591  0.00  0.00    +0.020 A 
ATOM      2  C   UNL     1      21.729 -13.881  23.430  0.00  0.00    +0.013 A 
ATOM      3  C   UNL     1      20.399 -13.859  24.026  0.00  0.00    +0.019 A 
ATOM     38  C   UNL     1      19.969 -15.023  24.786  0.00  0.00    +0.120 A 
ATOM     39  N   UNL     1      20.821 -16.115  24.923  0.00  0.00    -0.263 NA
ATOM     40  C   UNL     1      22.102 -16.148  24.352  0.00  0.00    +0.111 A 
ENDBRANCH   4   3
ENDBRANCH  10   9
BRANCH  12  13
ATOM     13  N   UNL     1      15.516  -6.707  26.842  0.00  0.00    -0.281 N 
ATOM     14  C   UNL     1      15.414  -6.574  28.217  0.00  0.00    +0.248 C 
ATOM     30  O   UNL     1      16.329  -6.780  29.001  0.00  0.00    -0.270 OA
ATOM     31  H   UNL     1      14.636  -6.697  26.325  0.00  0.00    +0.155 HD
BRANCH  14  15
ATOM     15  C   UNL     1      14.103  -6.166  28.809  0.00  0.00    +0.037 A 
ATOM     16  C   UNL     1      14.022  -5.590  30.153  0.00  0.00    +0.013 A 
ATOM     17  C   UNL     1      12.743  -5.222  30.706  0.00  0.00    +0.005 A 
ATOM     18  C   UNL     1      11.534  -5.427  29.913  0.00  0.00    -0.033 A 
ATOM     28  C   UNL     1      11.644  -5.996  28.580  0.00  0.00    +0.005 A 
ATOM     29  C   UNL     1      12.895  -6.359  28.035  0.00  0.00    +0.013 A 
BRANCH  18  19
ATOM     19  C   UNL     1      10.125  -5.083  30.431  0.00  0.00    +0.119 C 
BRANCH  19  20
ATOM     20  N   UNL     1       9.977  -4.836  31.897  0.00  0.00    -0.302 NA
ATOM     21  C   UNL     1       8.873  -5.698  32.516  0.00  0.00    +0.066 C 
ATOM     22  C   UNL     1       8.747  -5.444  34.053  0.00  0.00    -0.064 C 
ATOM     23  N   UNL     1       8.478  -3.958  34.301  0.00  0.00    +0.379 N 
ATOM     24  C   UNL     1       8.301  -3.726  35.742  0.00  0.00    -0.096 C 
ATOM     25  H   UNL     1       7.518  -3.700  33.796  0.00  0.00    -0.082 HD
ATOM     26  C   UNL     1       9.569  -3.094  33.686  0.00  0.00    -0.064 C 
ATOM     27  C   UNL     1       9.706  -3.376  32.164  0.00  0.00    +0.066 C 
ENDBRANCH  19  20
ENDBRANCH  18  19
ENDBRANCH  14  15
ENDBRANCH  12  13
TORSDOF 6
ENDMDL
MODEL 4
REMARK VINA RESULT:      -7.4     23.731     26.715
REMARK  Name = C:\Users\Docking\Desktop\test protocol\1iep_ligandH.pdb
REMARK  8 active torsions:
REMARK  status: ('A' for Active; 'I' for Inactive)
REMARK    1  A    between atoms: _5  and  _11
REMARK    2  A    between atoms: _19  and  _21
REMARK    3  A    between atoms: _22  and  _66
REMARK    4  A    between atoms: _27  and  _30
REMARK    5  A    between atoms: _32  and  _33
REMARK    6  A    between atoms: _38  and  _43
REMARK    7  A    between atoms: _43  and  _46
REMARK    8  A    between atoms: _53  and  _55
REMARK                            x       y       z     vdW  Elec       q    Type
REMARK                         _______ _______ _______ _____ _____    ______ ____
ROOT
ATOM     10  C   UNL     1      -1.819  -1.388  14.758  0.00  0.00    +0.038 A 
ATOM     11  C   UNL     1      -1.169  -1.724  13.543  0.00  0.00    +0.047 A 
ATOM     12  C   UNL     1       0.093  -1.106  13.169  0.00  0.00    +0.035 A 
ATOM     32  C   UNL     1       0.668  -0.151  14.059  0.00  0.00    +0.024 A 
ATOM     33  C   UNL     1       0.020   0.203  15.297  0.00  0.00    +0.007 A 
ATOM     34  C   UNL     1      -1.227  -0.402  15.670  0.00  0.00    -0.029 A 
ATOM     35  C   UNL     1      -1.880   0.020  17.007  0.00  0.00    +0.045 C 
ENDROOT
BRANCH  10   9
ATOM      4  C   UNL     1      -6.610  -1.637  14.613  0.00  0.00    +0.077 A 
ATOM      5  C   UNL     1      -6.711  -0.406  13.884  0.00  0.00    +0.048 A 
ATOM      6  C   UNL     1      -5.507   0.264  13.572  0.00  0.00    +0.116 A 
ATOM      7  N   UNL     1      -4.298  -0.267  13.965  0.00  0.00    -0.223 NA
ATOM      8  C   UNL     1      -4.236  -1.456  14.668  0.00  0.00    +0.220 A 
ATOM      9  N   UNL     1      -3.030  -2.012  15.067  0.00  0.00    -0.283 N 
ATOM     36  H   UNL     1      -3.027  -2.887  15.591  0.00  0.00    +0.155 HD
ATOM     37  N   UNL     1      -5.372  -2.114  14.980  0.00  0.00    -0.214 NA
BRANCH   4   3
ATOM      1  C   UNL     1      -9.311  -4.463  14.767  0.00  0.00    +0.020 A 
ATOM      2  C   UNL     1      -8.159  -3.702  14.339  0.00  0.00    +0.013 A 
ATOM      3  C   UNL     1      -7.793  -2.464  15.014  0.00  0.00    +0.019 A 
ATOM     38  C   UNL     1      -8.618  -2.019  16.127  0.00  0.00    +0.120 A 
ATOM     39  N   UNL     1      -9.722  -2.772  16.516  0.00  0.00    -0.263 NA
ATOM     40  C   UNL     1     -10.086  -3.965  15.873  0.00  0.00    +0.111 A 
ENDBRANCH   4   3
ENDBRANCH  10   9
BRANCH  12  13
ATOM     13  N   UNL     1       0.796  -1.401  11.945  0.00  0.00    -0.281 N 
ATOM     14  C   UNL     1       0.997  -0.568  10.857  0.00  0.00    +0.248 C 
ATOM     30  O   UNL     1       0.418   0.494  10.682  0.00  0.00    -0.270 OA
ATOM     31  H   UNL     1       1.192  -2.338  11.871  0.00  0.00    +0.155 HD
BRANCH  14  15
ATOM     15  C   UNL     1       1.974  -0.980   9.803  0.00  0.00    +0.037 A 
ATOM     16  C   UNL     1       3.168  -1.760  10.137  0.00  0.00    +0.013 A 
ATOM     17  C   UNL     1       4.102  -2.130   9.103  0.00  0.00    +0.005 A 
ATOM     18  C   UNL     1       3.845  -1.721   7.725  0.00  0.00    -0.033 A 
ATOM     28  C   UNL     1       2.649  -0.952   7.421  0.00  0.00    +0.005 A 
ATOM     29  C   UNL     1       1.732  -0.587   8.431  0.00  0.00    +0.013 A 
BRANCH  18  19
ATOM     19  C   UNL     1       4.798  -2.054   6.562  0.00  0.00    +0.119 C 
BRANCH  19  20
ATOM     20  N   UNL     1       6.233  -1.673   6.723  0.00  0.00    -0.302 NA
ATOM     21  C   UNL     1       6.636  -0.536   5.780  0.00  0.00    +0.066 C 
ATOM     22  C   UNL     1       8.134  -0.135   5.979  0.00  0.00    -0.064 C 
ATOM     23  N   UNL     1       9.020  -1.362   5.758  0.00  0.00    +0.379 N 
ATOM     24  C   UNL     1      10.433  -0.976   5.887  0.00  0.00    -0.096 C 
ATOM     25  H   UNL     1       8.859  -1.712   4.712  0.00  0.00    -0.082 HD
ATOM     26  C   UNL     1       8.625  -2.499   6.690  0.00  0.00    -0.064 C 
ATOM     27  C   UNL     1       7.127  -2.869   6.505  0.00  0.00    +0.066 C 
ENDBRANCH  19  20
ENDBRANCH  18  19
ENDBRANCH  14  15
ENDBRANCH  12  13
TORSDOF 6
ENDMDL
MODEL 5
REMARK VINA RESULT:      -7.4     23.197     26.910
REMARK  Name = C:\Users\Docking\Desktop\test protocol\1iep_ligandH.pdb
REMARK  8 active torsions:
REMARK  status: ('A' for Active; 'I' for Inactive)
REMARK    1  A    between atoms: _5  and  _11
REMARK    2  A    between atoms: _19  and  _21
REMARK    3  A    between atoms: _22  and  _66
REMARK    4  A    between atoms: _27  and  _30
REMARK    5  A    between atoms: _32  and  _33
REMARK    6  A    between atoms: _38  and  _43
REMARK    7  A    between atoms: _43  and  _46
REMARK    8  A    between atoms: _53  and  _55
REMARK                            x       y       z     vdW  Elec       q    Type
REMARK                         _______ _______ _______ _____ _____    ______ ____
ROOT
ATOM     10  C   UNL     1      11.228 -22.549   5.298  0.00  0.00    +0.038 A 
ATOM     11  C   UNL     1      10.941 -21.205   4.949  0.00  0.00    +0.047 A 
ATOM     12  C   UNL     1      10.181 -20.884   3.750  0.00  0.00    +0.035 A 
ATOM     32  C   UNL     1       9.726 -21.959   2.932  0.00  0.00    +0.024 A 
ATOM     33  C   UNL     1      10.009 -23.331   3.271  0.00  0.00    +0.007 A 
ATOM     34  C   UNL     1      10.761 -23.653   4.451  0.00  0.00    -0.029 A 
ATOM     35  C   UNL     1      11.041 -25.142   4.762  0.00  0.00    +0.045 C 
ENDROOT
BRANCH  10   9
ATOM      4  C   UNL     1      15.378 -23.079   7.651  0.00  0.00    +0.077 A 
ATOM      5  C   UNL     1      16.148 -22.867   6.460  0.00  0.00    +0.048 A 
ATOM      6  C   UNL     1      15.439 -22.631   5.261  0.00  0.00    +0.116 A 
ATOM      7  N   UNL     1      14.061 -22.612   5.265  0.00  0.00    -0.223 NA
ATOM      8  C   UNL     1      13.348 -22.822   6.431  0.00  0.00    +0.220 A 
ATOM      9  N   UNL     1      11.962 -22.799   6.460  0.00  0.00    -0.283 N 
ATOM     36  H   UNL     1      11.473 -22.967   7.339  0.00  0.00    +0.155 HD
ATOM     37  N   UNL     1      14.002 -23.051   7.589  0.00  0.00    -0.214 NA
BRANCH   4   3
ATOM      1  C   UNL     1      16.080 -24.543  11.210  0.00  0.00    +0.020 A 
ATOM      2  C   UNL     1      15.458 -24.332   9.923  0.00  0.00    +0.013 A 
ATOM      3  C   UNL     1      15.983 -23.338   8.996  0.00  0.00    +0.019 A 
ATOM     38  C   UNL     1      17.148 -22.567   9.405  0.00  0.00    +0.120 A 
ATOM     39  N   UNL     1      17.725 -22.791  10.651  0.00  0.00    -0.263 NA
ATOM     40  C   UNL     1      17.227 -23.744  11.552  0.00  0.00    +0.111 A 
ENDBRANCH   4   3
ENDBRANCH  10   9
BRANCH  12  13
ATOM     13  N   UNL     1       9.867 -19.538   3.341  0.00  0.00    -0.281 N 
ATOM     14  C   UNL     1      10.626 -18.687   2.554  0.00  0.00    +0.248 C 
ATOM     30  O   UNL     1      11.796 -18.880   2.259  0.00  0.00    -0.270 OA
ATOM     31  H   UNL     1       8.975 -19.167   3.670  0.00  0.00    +0.155 HD
BRANCH  14  15
ATOM     15  C   UNL     1      10.000 -17.434   2.033  0.00  0.00    +0.037 A 
ATOM     16  C   UNL     1      10.289 -16.946   0.682  0.00  0.00    +0.013 A 
ATOM     17  C   UNL     1       9.685 -15.726   0.210  0.00  0.00    +0.005 A 
ATOM     18  C   UNL     1       8.785 -14.985   1.090  0.00  0.00    -0.033 A 
ATOM     28  C   UNL     1       8.512 -15.494   2.424  0.00  0.00    +0.005 A 
ATOM     29  C   UNL     1       9.103 -16.690   2.890  0.00  0.00    +0.013 A 
BRANCH  18  19
ATOM     19  C   UNL     1       8.112 -13.662   0.678  0.00  0.00    +0.119 C 
BRANCH  19  20
ATOM     20  N   UNL     1       8.360 -12.470   1.542  0.00  0.00    -0.302 NA
ATOM     21  C   UNL     1       7.091 -11.640   1.754  0.00  0.00    +0.066 C 
ATOM     22  C   UNL     1       7.364 -10.409   2.680  0.00  0.00    -0.064 C 
ATOM     23  N   UNL     1       8.476  -9.553   2.071  0.00  0.00    +0.379 N 
ATOM     24  C   UNL     1       8.695  -8.365   2.908  0.00  0.00    -0.096 C 
ATOM     25  H   UNL     1       8.124  -9.203   1.072  0.00  0.00    -0.082 HD
ATOM     26  C   UNL     1       9.741 -10.372   1.854  0.00  0.00    -0.064 C 
ATOM     27  C   UNL     1       9.452 -11.608   0.957  0.00  0.00    +0.066 C 
ENDBRANCH  19  20
ENDBRANCH  18  19
ENDBRANCH  14  15
ENDBRANCH  12  13
TORSDOF 6
ENDMDL
