MODEL 1
REMARK VINA RESULT:      -8.0      0.000      0.000
REMARK  Name = C:\Users\Docking\Desktop\test protocol\1iep_ligandH.pdb
REMARK  8 active torsions:
REMARK  status: ('A' for Active; 'I' for Inactive)
REMARK    1  A    between atoms: _5  and  _11
REMARK    2  A    between atoms: _19  and  _21
REMARK    3  A    between atoms: _22  and  _66
REMARK    4  A    between atoms: _27  and  _30
REMARK    5  A    between atoms: _32  and  _33
REMARK    6  A    between atoms: _38  and  _43
REMARK    7  A    between atoms: _43  and  _46
REMARK    8  A    between atoms: _53  and  _55
REMARK                            x       y       z     vdW  Elec       q    Type
REMARK                         _______ _______ _______ _____ _____    ______ ____
ROOT
ATOM     10  C   UNL     1      15.940  -0.826  16.780  0.00  0.00    +0.038 A 
ATOM     11  C   UNL     1      16.240  -2.186  17.047  0.00  0.00    +0.047 A 
ATOM     12  C   UNL     1      17.263  -2.893  16.293  0.00  0.00    +0.035 A 
ATOM     32  C   UNL     1      17.963  -2.183  15.274  0.00  0.00    +0.024 A 
ATOM     33  C   UNL     1      17.671  -0.800  14.989  0.00  0.00    +0.007 A 
ATOM     34  C   UNL     1      16.661  -0.098  15.728  0.00  0.00    -0.029 A 
ATOM     35  C   UNL     1      16.384   1.382  15.375  0.00  0.00    +0.045 C 
ENDROOT
BRANCH  10   9
ATOM      4  C   UNL     1      14.399   1.341  20.776  0.00  0.00    +0.077 A 
ATOM      5  C   UNL     1      15.669   1.181  21.424  0.00  0.00    +0.048 A 
ATOM      6  C   UNL     1      16.690   0.529  20.697  0.00  0.00    +0.116 A 
ATOM      7  N   UNL     1      16.448   0.076  19.418  0.00  0.00    -0.223 NA
ATOM      8  C   UNL     1      15.211   0.245  18.823  0.00  0.00    +0.220 A 
ATOM      9  N   UNL     1      14.948  -0.196  17.536  0.00  0.00    -0.283 N 
ATOM     36  H   UNL     1      14.021  -0.059  17.135  0.00  0.00    +0.155 HD
ATOM     37  N   UNL     1      14.219   0.863  19.497  0.00  0.00    -0.214 NA
BRANCH   4   3
ATOM      1  C   UNL     1      10.777   2.631  21.499  0.00  0.00    +0.020 A 
ATOM      2  C   UNL     1      11.880   1.967  20.844  0.00  0.00    +0.013 A 
ATOM      3  C   UNL     1      13.221   2.012  21.413  0.00  0.00    +0.019 A 
ATOM     38  C   UNL     1      13.414   2.743  22.656  0.00  0.00    +0.120 A 
ATOM     39  N   UNL     1      12.333   3.375  23.264  0.00  0.00    -0.263 NA
ATOM     40  C   UNL     1      11.039   3.339  22.724  0.00  0.00    +0.111 A 
ENDBRANCH   4   3
ENDBRANCH  10   9
BRANCH  12  13
ATOM     13  N   UNL     1      17.605  -4.276  16.514  0.00  0.00    -0.281 N 
ATOM     14  C   UNL     1      18.273  -4.826  17.596  0.00  0.00    +0.248 C 
ATOM     30  O   UNL     1      18.868  -4.177  18.443  0.00  0.00    -0.270 OA
ATOM     31  H   UNL     1      17.321  -4.929  15.783  0.00  0.00    +0.155 HD
BRANCH  14  15
ATOM     15  C   UNL     1      18.294  -6.312  17.752  0.00  0.00    +0.037 A 
ATOM     16  C   UNL     1      17.478  -7.178  16.897  0.00  0.00    +0.013 A 
ATOM     17  C   UNL     1      17.504  -8.608  17.080  0.00  0.00    +0.005 A 
ATOM     18  C   UNL     1      18.352  -9.181  18.123  0.00  0.00    -0.033 A 
ATOM     28  C   UNL     1      19.155  -8.299  18.954  0.00  0.00    +0.005 A 
ATOM     29  C   UNL     1      19.131  -6.897  18.778  0.00  0.00    +0.013 A 
BRANCH  18  19
ATOM     19  C   UNL     1      18.426 -10.693  18.403  0.00  0.00    +0.119 C 
BRANCH  19  20
ATOM     20  N   UNL     1      18.557 -11.119  19.828  0.00  0.00    -0.302 NA
ATOM     21  C   UNL     1      19.836 -11.925  20.071  0.00  0.00    +0.066 C 
ATOM     22  C   UNL     1      19.969 -12.343  21.572  0.00  0.00    -0.064 C 
ATOM     23  N   UNL     1      18.735 -13.147  21.986  0.00  0.00    +0.379 N 
ATOM     24  C   UNL     1      18.883 -13.591  23.379  0.00  0.00    -0.096 C 
ATOM     25  H   UNL     1      18.694 -14.057  21.343  0.00  0.00    -0.082 HD
ATOM     26  C   UNL     1      17.459 -12.354  21.745  0.00  0.00    -0.064 C 
ATOM     27  C   UNL     1      17.351 -11.918  20.257  0.00  0.00    +0.066 C 
ENDBRANCH  19  20
ENDBRANCH  18  19
ENDBRANCH  14  15
ENDBRANCH  12  13
TORSDOF 6
ENDMDL
MODEL 2
REMARK VINA RESULT:      -7.8     24.992     28.143
REMARK  Name = C:\Users\Docking\Desktop\test protocol\1iep_ligandH.pdb
REMARK  8 active torsions:
REMARK  status: ('A' for Active; 'I' for Inactive)
REMARK    1  A    between atoms: _5  and  _11
REMARK    2  A    between atoms: _19  and  _21
REMARK    3  A    between atoms: _22  and  _66
REMARK    4  A    between atoms: _27  and  _30
REMARK    5  A    between atoms: _32  and  _33
REMARK    6  A    between atoms: _38  and  _43
REMARK    7  A    between atoms: _43  and  _46
REMARK    8  A    between atoms: _53  and  _55
REMARK                            x       y       z     vdW  Elec       q    Type
REMARK                         _______ _______ _______ _____ _____    ______ ____
ROOT
ATOM     10  C   UNL     1      -3.223 -24.423  21.367  0.00  0.00    +0.038 A 
ATOM     11  C   UNL     1      -2.341 -24.077  22.422  0.00  0.00    +0.047 A 
ATOM     12  C   UNL     1      -1.391 -25.042  22.955  0.00  0.00    +0.035 A 
ATOM     32  C   UNL     1      -1.365 -26.349  22.387  0.00  0.00    +0.024 A 
ATOM     33  C   UNL     1      -2.255 -26.717  21.314  0.00  0.00    +0.007 A 
ATOM     34  C   UNL     1      -3.196 -25.771  20.786  0.00  0.00    -0.029 A 
ATOM     35  C   UNL     1      -4.130 -26.223  19.640  0.00  0.00    +0.045 C 
ENDROOT
BRANCH  10   9
ATOM      4  C   UNL     1      -7.427 -22.111  21.511  0.00  0.00    +0.077 A 
ATOM      5  C   UNL     1      -7.897 -22.912  22.605  0.00  0.00    +0.048 A 
ATOM      6  C   UNL     1      -7.029 -23.913  23.096  0.00  0.00    +0.116 A 
ATOM      7  N   UNL     1      -5.786 -24.090  22.529  0.00  0.00    -0.223 NA
ATOM      8  C   UNL     1      -5.364 -23.302  21.474  0.00  0.00    +0.220 A 
ATOM      9  N   UNL     1      -4.115 -23.458  20.893  0.00  0.00    -0.283 N 
ATOM     36  H   UNL     1      -3.844 -22.861  20.112  0.00  0.00    +0.155 HD
ATOM     37  N   UNL     1      -6.175 -22.340  20.985  0.00  0.00    -0.214 NA
BRANCH   4   3
ATOM      1  C   UNL     1      -8.649 -18.585  20.337  0.00  0.00    +0.020 A 
ATOM      2  C   UNL     1      -7.841 -19.608  20.961  0.00  0.00    +0.013 A 
ATOM      3  C   UNL     1      -8.227 -21.012  20.884  0.00  0.00    +0.019 A 
ATOM     38  C   UNL     1      -9.444 -21.349  20.162  0.00  0.00    +0.120 A 
ATOM     39  N   UNL     1     -10.203 -20.343  19.573  0.00  0.00    -0.263 NA
ATOM     40  C   UNL     1      -9.842 -18.989  19.641  0.00  0.00    +0.111 A 
ENDBRANCH   4   3
ENDBRANCH  10   9
BRANCH  12  13
ATOM     13  N   UNL     1      -0.477 -24.750  24.032  0.00  0.00    -0.281 N 
ATOM     14  C   UNL     1       0.786 -24.188  23.947  0.00  0.00    +0.248 C 
ATOM     30  O   UNL     1       1.411 -24.046  22.907  0.00  0.00    -0.270 OA
ATOM     31  H   UNL     1      -0.801 -24.988  24.970  0.00  0.00    +0.155 HD
BRANCH  14  15
ATOM     15  C   UNL     1       1.458 -23.731  25.202  0.00  0.00    +0.037 A 
ATOM     16  C   UNL     1       1.533 -24.596  26.382  0.00  0.00    +0.013 A 
ATOM     17  C   UNL     1       2.172 -24.124  27.585  0.00  0.00    +0.005 A 
ATOM     18  C   UNL     1       2.743 -22.779  27.612  0.00  0.00    -0.033 A 
ATOM     28  C   UNL     1       2.659 -21.945  26.426  0.00  0.00    +0.005 A 
ATOM     29  C   UNL     1       2.032 -22.403  25.245  0.00  0.00    +0.013 A 
BRANCH  18  19
ATOM     19  C   UNL     1       3.425 -22.186  28.859  0.00  0.00    +0.119 C 
BRANCH  19  20
ATOM     20  N   UNL     1       4.091 -23.140  29.794  0.00  0.00    -0.302 NA
ATOM     21  C   UNL     1       3.381 -23.209  31.149  0.00  0.00    +0.066 C 
ATOM     22  C   UNL     1       4.078 -24.229  32.107  0.00  0.00    -0.064 C 
ATOM     23  N   UNL     1       5.546 -23.836  32.284  0.00  0.00    +0.379 N 
ATOM     24  C   UNL     1       6.190 -24.760  33.230  0.00  0.00    -0.096 C 
ATOM     25  H   UNL     1       5.571 -22.818  32.736  0.00  0.00    -0.082 HD
ATOM     26  C   UNL     1       6.259 -23.764  30.941  0.00  0.00    -0.064 C 
ATOM     27  C   UNL     1       5.541 -22.769  29.987  0.00  0.00    +0.066 C 
ENDBRANCH  19  20
ENDBRANCH  18  19
ENDBRANCH  14  15
ENDBRANCH  12  13
TORSDOF 6
ENDMDL
MODEL 3
REMARK VINA RESULT:      -7.7     28.163     30.397
REMARK  Name = C:\Users\Docking\Desktop\test protocol\1iep_ligandH.pdb
REMARK  8 active torsions:
REMARK  status: ('A' for Active; 'I' for Inactive)
REMARK    1  A    between atoms: _5  and  _11
REMARK    2  A    between atoms: _19  and  _21
REMARK    3  A    between atoms: _22  and  _66
REMARK    4  A    between atoms: _27  and  _30
REMARK    5  A    between atoms: _32  and  _33
REMARK    6  A    between atoms: _38  and  _43
REMARK    7  A    between atoms: _43  and  _46
REMARK    8  A    between atoms: _53  and  _55
REMARK                            x       y       z     vdW  Elec       q    Type
REMARK                         _______ _______ _______ _____ _____    ______ ____
ROOT
ATOM     10  C   UNL     1     -14.950 -11.234  20.687  0.00  0.00    +0.038 A 
ATOM     11  C   UNL     1     -14.054 -12.328  20.575  0.00  0.00    +0.047 A 
ATOM     12  C   UNL     1     -14.369 -13.621  21.161  0.00  0.00    +0.035 A 
ATOM     32  C   UNL     1     -15.606 -13.766  21.854  0.00  0.00    +0.024 A 
ATOM     33  C   UNL     1     -16.528 -12.664  21.979  0.00  0.00    +0.007 A 
ATOM     34  C   UNL     1     -16.221 -11.385  21.404  0.00  0.00    -0.029 A 
ATOM     35  C   UNL     1     -17.244 -10.237  21.575  0.00  0.00    +0.045 C 
ENDROOT
BRANCH  10   9
ATOM      4  C   UNL     1     -11.751  -7.813  19.637  0.00  0.00    +0.077 A 
ATOM      5  C   UNL     1     -10.700  -8.500  20.330  0.00  0.00    +0.048 A 
ATOM      6  C   UNL     1     -11.025  -9.727  20.950  0.00  0.00    +0.116 A 
ATOM      7  N   UNL     1     -12.310 -10.221  20.875  0.00  0.00    -0.223 NA
ATOM      8  C   UNL     1     -13.300  -9.532  20.199  0.00  0.00    +0.220 A 
ATOM      9  N   UNL     1     -14.597 -10.014  20.105  0.00  0.00    -0.283 N 
ATOM     36  H   UNL     1     -15.301  -9.472  19.604  0.00  0.00    +0.155 HD
ATOM     37  N   UNL     1     -13.015  -8.357  19.601  0.00  0.00    -0.214 NA
BRANCH   4   3
ATOM      1  C   UNL     1     -10.464  -5.042  17.193  0.00  0.00    +0.020 A 
ATOM      2  C   UNL     1     -10.607  -6.324  17.844  0.00  0.00    +0.013 A 
ATOM      3  C   UNL     1     -11.563  -6.507  18.929  0.00  0.00    +0.019 A 
ATOM     38  C   UNL     1     -12.366  -5.363  19.335  0.00  0.00    +0.120 A 
ATOM     39  N   UNL     1     -12.205  -4.140  18.691  0.00  0.00    -0.263 NA
ATOM     40  C   UNL     1     -11.288  -3.952  17.646  0.00  0.00    +0.111 A 
ENDBRANCH   4   3
ENDBRANCH  10   9
BRANCH  12  13
ATOM     13  N   UNL     1     -13.495 -14.766  21.086  0.00  0.00    -0.281 N 
ATOM     14  C   UNL     1     -13.319 -15.634  20.022  0.00  0.00    +0.248 C 
ATOM     30  O   UNL     1     -14.048 -15.684  19.042  0.00  0.00    -0.270 OA
ATOM     31  H   UNL     1     -12.939 -14.959  21.919  0.00  0.00    +0.155 HD
BRANCH  14  15
ATOM     15  C   UNL     1     -12.176 -16.596  20.056  0.00  0.00    +0.037 A 
ATOM     16  C   UNL     1     -11.296 -16.690  21.224  0.00  0.00    +0.013 A 
ATOM     17  C   UNL     1     -10.190 -17.614  21.224  0.00  0.00    +0.005 A 
ATOM     18  C   UNL     1      -9.959 -18.455  20.052  0.00  0.00    -0.033 A 
ATOM     28  C   UNL     1     -10.850 -18.346  18.909  0.00  0.00    +0.005 A 
ATOM     29  C   UNL     1     -11.935 -17.440  18.905  0.00  0.00    +0.013 A 
BRANCH  18  19
ATOM     19  C   UNL     1      -8.791 -19.454  19.957  0.00  0.00    +0.119 C 
BRANCH  19  20
ATOM     20  N   UNL     1      -8.630 -20.427  21.078  0.00  0.00    -0.302 NA
ATOM     21  C   UNL     1      -7.229 -21.044  21.107  0.00  0.00    +0.066 C 
ATOM     22  C   UNL     1      -7.072 -22.043  22.300  0.00  0.00    -0.064 C 
ATOM     23  N   UNL     1      -8.141 -23.132  22.194  0.00  0.00    +0.379 N 
ATOM     24  C   UNL     1      -7.959 -24.105  23.282  0.00  0.00    -0.096 C 
ATOM     25  H   UNL     1      -7.982 -23.668  21.230  0.00  0.00    -0.082 HD
ATOM     26  C   UNL     1      -9.537 -22.527  22.162  0.00  0.00    -0.064 C 
ATOM     27  C   UNL     1      -9.674 -21.514  20.991  0.00  0.00    +0.066 C 
ENDBRANCH  19  20
ENDBRANCH  18  19
ENDBRANCH  14  15
ENDBRANCH  12  13
TORSDOF 6
ENDMDL
MODEL 4
REMARK VINA RESULT:      -7.5      3.043      6.471
REMARK  Name = C:\Users\Docking\Desktop\test protocol\1iep_ligandH.pdb
REMARK  8 active torsions:
REMARK  status: ('A' for Active; 'I' for Inactive)
REMARK    1  A    between atoms: _5  and  _11
REMARK    2  A    between atoms: _19  and  _21
REMARK    3  A    between atoms: _22  and  _66
REMARK    4  A    between atoms: _27  and  _30
REMARK    5  A    between atoms: _32  and  _33
REMARK    6  A    between atoms: _38  and  _43
REMARK    7  A    between atoms: _43  and  _46
REMARK    8  A    between atoms: _53  and  _55
REMARK                            x       y       z     vdW  Elec       q    Type
REMARK                         _______ _______ _______ _____ _____    ______ ____
ROOT
ATOM     10  C   UNL     1      17.599  -7.161  16.097  0.00  0.00    +0.038 A 
ATOM     11  C   UNL     1      17.726  -8.058  17.189  0.00  0.00    +0.047 A 
ATOM     12  C   UNL     1      18.424  -9.325  17.045  0.00  0.00    +0.035 A 
ATOM     32  C   UNL     1      18.985  -9.647  15.774  0.00  0.00    +0.024 A 
ATOM     33  C   UNL     1      18.865  -8.748  14.653  0.00  0.00    +0.007 A 
ATOM     34  C   UNL     1      18.174  -7.497  14.789  0.00  0.00    -0.029 A 
ATOM     35  C   UNL     1      18.070  -6.575  13.552  0.00  0.00    +0.045 C 
ENDROOT
BRANCH  10   9
ATOM      4  C   UNL     1      17.505  -2.455  17.037  0.00  0.00    +0.077 A 
ATOM      5  C   UNL     1      18.931  -2.395  17.178  0.00  0.00    +0.048 A 
ATOM      6  C   UNL     1      19.651  -3.598  17.008  0.00  0.00    +0.116 A 
ATOM      7  N   UNL     1      18.985  -4.769  16.719  0.00  0.00    -0.223 NA
ATOM      8  C   UNL     1      17.608  -4.793  16.591  0.00  0.00    +0.220 A 
ATOM      9  N   UNL     1      16.918  -5.958  16.292  0.00  0.00    -0.283 N 
ATOM     36  H   UNL     1      15.901  -5.935  16.213  0.00  0.00    +0.155 HD
ATOM     37  N   UNL     1      16.897  -3.657  16.750  0.00  0.00    -0.214 NA
BRANCH   4   3
ATOM      1  C   UNL     1      15.012   0.182  18.498  0.00  0.00    +0.020 A 
ATOM      2  C   UNL     1      15.867  -0.979  18.407  0.00  0.00    +0.013 A 
ATOM      3  C   UNL     1      16.605  -1.268  17.184  0.00  0.00    +0.019 A 
ATOM     38  C   UNL     1      16.455  -0.354  16.062  0.00  0.00    +0.120 A 
ATOM     39  N   UNL     1      15.623   0.756  16.177  0.00  0.00    -0.263 NA
ATOM     40  C   UNL     1      14.907   1.042  17.349  0.00  0.00    +0.111 A 
ENDBRANCH   4   3
ENDBRANCH  10   9
BRANCH  12  13
ATOM     13  N   UNL     1      18.578 -10.279  18.115  0.00  0.00    -0.281 N 
ATOM     14  C   UNL     1      19.650 -10.424  18.979  0.00  0.00    +0.248 C 
ATOM     30  O   UNL     1      20.739  -9.891  18.825  0.00  0.00    -0.270 OA
ATOM     31  H   UNL     1      17.801 -10.926  18.252  0.00  0.00    +0.155 HD
BRANCH  14  15
ATOM     15  C   UNL     1      19.496 -11.299  20.181  0.00  0.00    +0.037 A 
ATOM     16  C   UNL     1      20.633 -11.595  21.057  0.00  0.00    +0.013 A 
ATOM     17  C   UNL     1      20.461 -12.456  22.200  0.00  0.00    +0.005 A 
ATOM     18  C   UNL     1      19.144 -13.026  22.475  0.00  0.00    -0.033 A 
ATOM     28  C   UNL     1      18.032 -12.712  21.593  0.00  0.00    +0.005 A 
ATOM     29  C   UNL     1      18.198 -11.869  20.471  0.00  0.00    +0.013 A 
BRANCH  18  19
ATOM     19  C   UNL     1      18.873 -13.972  23.660  0.00  0.00    +0.119 C 
BRANCH  19  20
ATOM     20  N   UNL     1      19.945 -14.099  24.692  0.00  0.00    -0.302 NA
ATOM     21  C   UNL     1      20.152 -15.552  25.129  0.00  0.00    +0.066 C 
ATOM     22  C   UNL     1      21.292 -15.669  26.193  0.00  0.00    -0.064 C 
ATOM     23  N   UNL     1      20.957 -14.784  27.395  0.00  0.00    +0.379 N 
ATOM     24  C   UNL     1      21.998 -14.937  28.422  0.00  0.00    -0.096 C 
ATOM     25  H   UNL     1      19.998 -15.152  27.828  0.00  0.00    -0.082 HD
ATOM     26  C   UNL     1      20.747 -13.338  26.969  0.00  0.00    -0.064 C 
ATOM     27  C   UNL     1      19.632 -13.237  25.890  0.00  0.00    +0.066 C 
ENDBRANCH  19  20
ENDBRANCH  18  19
ENDBRANCH  14  15
ENDBRANCH  12  13
TORSDOF 6
ENDMDL
MODEL 5
REMARK VINA RESULT:      -7.4      2.887      3.832
REMARK  Name = C:\Users\Docking\Desktop\test protocol\1iep_ligandH.pdb
REMARK  8 active torsions:
REMARK  status: ('A' for Active; 'I' for Inactive)
REMARK    1  A    between atoms: _5  and  _11
REMARK    2  A    between atoms: _19  and  _21
REMARK    3  A    between atoms: _22  and  _66
REMARK    4  A    between atoms: _27  and  _30
REMARK    5  A    between atoms: _32  and  _33
REMARK    6  A    between atoms: _38  and  _43
REMARK    7  A    between atoms: _43  and  _46
REMARK    8  A    between atoms: _53  and  _55
REMARK                            x       y       z     vdW  Elec       q    Type
REMARK                         _______ _______ _______ _____ _____    ______ ____
ROOT
ATOM     10  C   UNL     1      15.612   0.033  16.731  0.00  0.00    +0.038 A 
ATOM     11  C   UNL     1      15.939  -1.347  16.719  0.00  0.00    +0.047 A 
ATOM     12  C   UNL     1      16.999  -1.862  15.866  0.00  0.00    +0.035 A 
ATOM     32  C   UNL     1      17.707  -0.943  15.038  0.00  0.00    +0.024 A 
ATOM     33  C   UNL     1      17.387   0.463  15.037  0.00  0.00    +0.007 A 
ATOM     34  C   UNL     1      16.341   0.977  15.875  0.00  0.00    -0.029 A 
ATOM     35  C   UNL     1      16.037   2.492  15.828  0.00  0.00    +0.045 C 
ENDROOT
BRANCH  10   9
ATOM      4  C   UNL     1      13.960   1.468  21.003  0.00  0.00    +0.077 A 
ATOM      5  C   UNL     1      15.243   1.302  21.621  0.00  0.00    +0.048 A 
ATOM      6  C   UNL     1      16.301   0.838  20.807  0.00  0.00    +0.116 A 
ATOM      7  N   UNL     1      16.080   0.565  19.475  0.00  0.00    -0.223 NA
ATOM      8  C   UNL     1      14.829   0.734  18.910  0.00  0.00    +0.220 A 
ATOM      9  N   UNL     1      14.586   0.473  17.570  0.00  0.00    -0.283 N 
ATOM     36  H   UNL     1      13.648   0.604  17.193  0.00  0.00    +0.155 HD
ATOM     37  N   UNL     1      13.803   1.175  19.666  0.00  0.00    -0.214 NA
BRANCH   4   3
ATOM      1  C   UNL     1      10.290   2.523  21.852  0.00  0.00    +0.020 A 
ATOM      2  C   UNL     1      11.432   2.048  21.105  0.00  0.00    +0.013 A 
ATOM      3  C   UNL     1      12.745   1.953  21.730  0.00  0.00    +0.019 A 
ATOM     38  C   UNL     1      12.869   2.349  23.125  0.00  0.00    +0.120 A 
ATOM     39  N   UNL     1      11.752   2.804  23.819  0.00  0.00    -0.263 NA
ATOM     40  C   UNL     1      10.484   2.901  23.227  0.00  0.00    +0.111 A 
ENDBRANCH   4   3
ENDBRANCH  10   9
BRANCH  12  13
ATOM     13  N   UNL     1      17.369  -3.254  15.805  0.00  0.00    -0.281 N 
ATOM     14  C   UNL     1      17.774  -4.074  16.846  0.00  0.00    +0.248 C 
ATOM     30  O   UNL     1      18.085  -3.675  17.959  0.00  0.00    -0.270 OA
ATOM     31  H   UNL     1      17.329  -3.688  14.883  0.00  0.00    +0.155 HD
BRANCH  14  15
ATOM     15  C   UNL     1      17.859  -5.548  16.614  0.00  0.00    +0.037 A 
ATOM     16  C   UNL     1      17.975  -6.098  15.261  0.00  0.00    +0.013 A 
ATOM     17  C   UNL     1      18.038  -7.525  15.063  0.00  0.00    +0.005 A 
ATOM     18  C   UNL     1      17.987  -8.411  16.223  0.00  0.00    -0.033 A 
ATOM     28  C   UNL     1      17.878  -7.838  17.554  0.00  0.00    +0.005 A 
ATOM     29  C   UNL     1      17.815  -6.441  17.752  0.00  0.00    +0.013 A 
BRANCH  18  19
ATOM     19  C   UNL     1      18.028  -9.946  16.105  0.00  0.00    +0.119 C 
BRANCH  19  20
ATOM     20  N   UNL     1      17.797 -10.534  14.751  0.00  0.00    -0.302 NA
ATOM     21  C   UNL     1      16.474 -11.302  14.677  0.00  0.00    +0.066 C 
ATOM     22  C   UNL     1      16.238 -11.891  13.248  0.00  0.00    -0.064 C 
ATOM     23  N   UNL     1      17.412 -12.797  12.872  0.00  0.00    +0.379 N 
ATOM     24  C   UNL     1      17.166 -13.398  11.553  0.00  0.00    -0.096 C 
ATOM     25  H   UNL     1      17.454 -13.624  13.619  0.00  0.00    -0.082 HD
ATOM     26  C   UNL     1      18.732 -12.042  12.947  0.00  0.00    -0.064 C 
ATOM     27  C   UNL     1      18.943 -11.436  14.362  0.00  0.00    +0.066 C 
ENDBRANCH  19  20
ENDBRANCH  18  19
ENDBRANCH  14  15
ENDBRANCH  12  13
TORSDOF 6
ENDMDL
