MODEL 1
REMARK VINA RESULT:     -10.3      0.000      0.000
REMARK  Name = C:\Users\Docking\Desktop\test protocol\1iep_ligandH.pdb
REMARK  8 active torsions:
REMARK  status: ('A' for Active; 'I' for Inactive)
REMARK    1  A    between atoms: _5  and  _11
REMARK    2  A    between atoms: _19  and  _21
REMARK    3  A    between atoms: _22  and  _66
REMARK    4  A    between atoms: _27  and  _30
REMARK    5  A    between atoms: _32  and  _33
REMARK    6  A    between atoms: _38  and  _43
REMARK    7  A    between atoms: _43  and  _46
REMARK    8  A    between atoms: _53  and  _55
REMARK                            x       y       z     vdW  Elec       q    Type
REMARK                         _______ _______ _______ _____ _____    ______ ____
ROOT
ATOM     10  C   UNL     1       5.674  17.832   3.073  0.00  0.00    +0.038 A 
ATOM     11  C   UNL     1       6.695  17.000   2.546  0.00  0.00    +0.047 A 
ATOM     12  C   UNL     1       7.288  17.269   1.245  0.00  0.00    +0.035 A 
ATOM     32  C   UNL     1       6.819  18.397   0.509  0.00  0.00    +0.024 A 
ATOM     33  C   UNL     1       5.781  19.252   1.030  0.00  0.00    +0.007 A 
ATOM     34  C   UNL     1       5.191  18.989   2.311  0.00  0.00    -0.029 A 
ATOM     35  C   UNL     1       4.078  19.936   2.817  0.00  0.00    +0.045 C 
ENDROOT
BRANCH  10   9
ATOM      4  C   UNL     1       2.345  15.810   5.878  0.00  0.00    +0.077 A 
ATOM      5  C   UNL     1       1.591  15.345   4.749  0.00  0.00    +0.048 A 
ATOM      6  C   UNL     1       2.091  15.654   3.464  0.00  0.00    +0.116 A 
ATOM      7  N   UNL     1       3.258  16.373   3.330  0.00  0.00    -0.223 NA
ATOM      8  C   UNL     1       3.960  16.808   4.439  0.00  0.00    +0.220 A 
ATOM      9  N   UNL     1       5.140  17.526   4.327  0.00  0.00    -0.283 N 
ATOM     36  H   UNL     1       5.624  17.835   5.170  0.00  0.00    +0.155 HD
ATOM     37  N   UNL     1       3.503  16.527   5.677  0.00  0.00    -0.214 NA
BRANCH   4   3
ATOM      1  C   UNL     1       2.424  15.502   9.777  0.00  0.00    +0.020 A 
ATOM      2  C   UNL     1       2.857  15.756   8.422  0.00  0.00    +0.013 A 
ATOM      3  C   UNL     1       1.948  15.560   7.300  0.00  0.00    +0.019 A 
ATOM     38  C   UNL     1       0.596  15.103   7.585  0.00  0.00    +0.120 A 
ATOM     39  N   UNL     1       0.207  14.865   8.899  0.00  0.00    -0.263 NA
ATOM     40  C   UNL     1       1.074  15.048   9.987  0.00  0.00    +0.111 A 
ENDBRANCH   4   3
ENDBRANCH  10   9
BRANCH  12  13
ATOM     13  N   UNL     1       8.322  16.456   0.655  0.00  0.00    -0.281 N 
ATOM     14  C   UNL     1       9.519  16.055   1.224  0.00  0.00    +0.248 C 
ATOM     30  O   UNL     1       9.981  16.515   2.258  0.00  0.00    -0.270 OA
ATOM     31  H   UNL     1       8.150  16.137  -0.299  0.00  0.00    +0.155 HD
BRANCH  14  15
ATOM     15  C   UNL     1      10.327  15.000   0.539  0.00  0.00    +0.037 A 
ATOM     16  C   UNL     1      11.302  14.192   1.276  0.00  0.00    +0.013 A 
ATOM     17  C   UNL     1      12.081  13.193   0.587  0.00  0.00    +0.005 A 
ATOM     18  C   UNL     1      11.885  12.996  -0.847  0.00  0.00    -0.033 A 
ATOM     28  C   UNL     1      10.907  13.808  -1.552  0.00  0.00    +0.005 A 
ATOM     29  C   UNL     1      10.143  14.789  -0.881  0.00  0.00    +0.013 A 
BRANCH  18  19
ATOM     19  C   UNL     1      12.687  11.967  -1.667  0.00  0.00    +0.119 C 
BRANCH  19  20
ATOM     20  N   UNL     1      12.661  12.108  -3.153  0.00  0.00    -0.302 NA
ATOM     21  C   UNL     1      12.734  10.751  -3.860  0.00  0.00    +0.066 C 
ATOM     22  C   UNL     1      12.682  10.915  -5.414  0.00  0.00    -0.064 C 
ATOM     23  N   UNL     1      13.827  11.824  -5.866  0.00  0.00    +0.379 N 
ATOM     24  C   UNL     1      13.816  11.933  -7.332  0.00  0.00    -0.096 C 
ATOM     25  H   UNL     1      14.784  11.334  -5.570  0.00  0.00    -0.082 HD
ATOM     26  C   UNL     1      13.764  13.174  -5.166  0.00  0.00    -0.064 C 
ATOM     27  C   UNL     1      13.785  12.998  -3.622  0.00  0.00    +0.066 C 
ENDBRANCH  19  20
ENDBRANCH  18  19
ENDBRANCH  14  15
ENDBRANCH  12  13
TORSDOF 6
ENDMDL
MODEL 2
REMARK VINA RESULT:     -10.2      2.470     13.729
REMARK  Name = C:\Users\Docking\Desktop\test protocol\1iep_ligandH.pdb
REMARK  8 active torsions:
REMARK  status: ('A' for Active; 'I' for Inactive)
REMARK    1  A    between atoms: _5  and  _11
REMARK    2  A    between atoms: _19  and  _21
REMARK    3  A    between atoms: _22  and  _66
REMARK    4  A    between atoms: _27  and  _30
REMARK    5  A    between atoms: _32  and  _33
REMARK    6  A    between atoms: _38  and  _43
REMARK    7  A    between atoms: _43  and  _46
REMARK    8  A    between atoms: _53  and  _55
REMARK                            x       y       z     vdW  Elec       q    Type
REMARK                         _______ _______ _______ _____ _____    ______ ____
ROOT
ATOM     10  C   UNL     1      12.606  13.849  -3.574  0.00  0.00    +0.038 A 
ATOM     11  C   UNL     1      11.380  14.331  -3.049  0.00  0.00    +0.047 A 
ATOM     12  C   UNL     1      11.323  14.986  -1.752  0.00  0.00    +0.035 A 
ATOM     32  C   UNL     1      12.535  15.136  -1.016  0.00  0.00    +0.024 A 
ATOM     33  C   UNL     1      13.790  14.650  -1.535  0.00  0.00    +0.007 A 
ATOM     34  C   UNL     1      13.852  14.001  -2.813  0.00  0.00    -0.029 A 
ATOM     35  C   UNL     1      15.224  13.494  -3.316  0.00  0.00    +0.045 C 
ENDROOT
BRANCH  10   9
ATOM      4  C   UNL     1      12.524   9.940  -6.359  0.00  0.00    +0.077 A 
ATOM      5  C   UNL     1      12.514   9.061  -5.226  0.00  0.00    +0.048 A 
ATOM      6  C   UNL     1      12.537   9.654  -3.944  0.00  0.00    +0.116 A 
ATOM      7  N   UNL     1      12.569  11.026  -3.816  0.00  0.00    -0.223 NA
ATOM      8  C   UNL     1      12.580  11.845  -4.930  0.00  0.00    +0.220 A 
ATOM      9  N   UNL     1      12.603  13.228  -4.825  0.00  0.00    -0.283 N 
ATOM     36  H   UNL     1      12.618  13.797  -5.671  0.00  0.00    +0.155 HD
ATOM     37  N   UNL     1      12.559  11.303  -6.165  0.00  0.00    -0.214 NA
BRANCH   4   3
ATOM      1  C   UNL     1      12.364   7.652  -9.528  0.00  0.00    +0.020 A 
ATOM      2  C   UNL     1      12.385   8.058  -8.141  0.00  0.00    +0.013 A 
ATOM      3  C   UNL     1      12.499   9.465  -7.779  0.00  0.00    +0.019 A 
ATOM     38  C   UNL     1      12.590  10.444  -8.852  0.00  0.00    +0.120 A 
ATOM     39  N   UNL     1      12.569  10.023 -10.178  0.00  0.00    -0.263 NA
ATOM     40  C   UNL     1      12.461   8.672 -10.539  0.00  0.00    +0.111 A 
ENDBRANCH   4   3
ENDBRANCH  10   9
BRANCH  12  13
ATOM     13  N   UNL     1      10.106  15.489  -1.164  0.00  0.00    -0.281 N 
ATOM     14  C   UNL     1       9.213  16.400  -1.703  0.00  0.00    +0.248 C 
ATOM     30  O   UNL     1       9.437  17.087  -2.689  0.00  0.00    -0.270 OA
ATOM     31  H   UNL     1       9.875  15.129  -0.238  0.00  0.00    +0.155 HD
BRANCH  14  15
ATOM     15  C   UNL     1       7.885  16.586  -1.044  0.00  0.00    +0.037 A 
ATOM     16  C   UNL     1       6.740  17.128  -1.780  0.00  0.00    +0.013 A 
ATOM     17  C   UNL     1       5.474  17.313  -1.116  0.00  0.00    +0.005 A 
ATOM     18  C   UNL     1       5.347  16.954   0.295  0.00  0.00    -0.033 A 
ATOM     28  C   UNL     1       6.497  16.414   1.000  0.00  0.00    +0.005 A 
ATOM     29  C   UNL     1       7.739  16.232   0.352  0.00  0.00    +0.013 A 
BRANCH  18  19
ATOM     19  C   UNL     1       4.040  17.138   1.090  0.00  0.00    +0.119 C 
BRANCH  19  20
ATOM     20  N   UNL     1       4.141  17.138   2.580  0.00  0.00    -0.302 NA
ATOM     21  C   UNL     1       2.947  16.440   3.236  0.00  0.00    +0.066 C 
ATOM     22  C   UNL     1       3.079  16.429   4.794  0.00  0.00    -0.064 C 
ATOM     23  N   UNL     1       3.212  17.866   5.301  0.00  0.00    +0.379 N 
ATOM     24  C   UNL     1       3.279  17.863   6.770  0.00  0.00    -0.096 C 
ATOM     25  H   UNL     1       2.289  18.416   5.005  0.00  0.00    -0.082 HD
ATOM     26  C   UNL     1       4.396  18.568   4.652  0.00  0.00    -0.064 C 
ATOM     27  C   UNL     1       4.269  18.547   3.103  0.00  0.00    +0.066 C 
ENDBRANCH  19  20
ENDBRANCH  18  19
ENDBRANCH  14  15
ENDBRANCH  12  13
TORSDOF 6
ENDMDL
MODEL 3
REMARK VINA RESULT:     -10.1      2.355     12.675
REMARK  Name = C:\Users\Docking\Desktop\test protocol\1iep_ligandH.pdb
REMARK  8 active torsions:
REMARK  status: ('A' for Active; 'I' for Inactive)
REMARK    1  A    between atoms: _5  and  _11
REMARK    2  A    between atoms: _19  and  _21
REMARK    3  A    between atoms: _22  and  _66
REMARK    4  A    between atoms: _27  and  _30
REMARK    5  A    between atoms: _32  and  _33
REMARK    6  A    between atoms: _38  and  _43
REMARK    7  A    between atoms: _43  and  _46
REMARK    8  A    between atoms: _53  and  _55
REMARK                            x       y       z     vdW  Elec       q    Type
REMARK                         _______ _______ _______ _____ _____    ______ ____
ROOT
ATOM     10  C   UNL     1       9.409  14.590  -2.455  0.00  0.00    +0.038 A 
ATOM     11  C   UNL     1       9.102  14.634  -1.071  0.00  0.00    +0.047 A 
ATOM     12  C   UNL     1       8.377  15.757  -0.497  0.00  0.00    +0.035 A 
ATOM     32  C   UNL     1       7.979  16.818  -1.362  0.00  0.00    +0.024 A 
ATOM     33  C   UNL     1       8.284  16.790  -2.770  0.00  0.00    +0.007 A 
ATOM     34  C   UNL     1       9.001  15.686  -3.342  0.00  0.00    -0.029 A 
ATOM     35  C   UNL     1       9.306  15.713  -4.858  0.00  0.00    +0.045 C 
ENDROOT
BRANCH  10   9
ATOM      4  C   UNL     1      13.482  12.235  -3.406  0.00  0.00    +0.077 A 
ATOM      5  C   UNL     1      14.289  13.303  -2.891  0.00  0.00    +0.048 A 
ATOM      6  C   UNL     1      13.618  14.444  -2.397  0.00  0.00    +0.116 A 
ATOM      7  N   UNL     1      12.241  14.502  -2.421  0.00  0.00    -0.223 NA
ATOM      8  C   UNL     1      11.492  13.455  -2.927  0.00  0.00    +0.220 A 
ATOM      9  N   UNL     1      10.107  13.488  -2.954  0.00  0.00    -0.283 N 
ATOM     36  H   UNL     1       9.591  12.698  -3.342  0.00  0.00    +0.155 HD
ATOM     37  N   UNL     1      12.110  12.355  -3.406  0.00  0.00    -0.214 NA
BRANCH   4   3
ATOM      1  C   UNL     1      15.918   9.585  -4.936  0.00  0.00    +0.020 A 
ATOM      2  C   UNL     1      15.425  10.836  -4.409  0.00  0.00    +0.013 A 
ATOM      3  C   UNL     1      14.044  10.963  -3.960  0.00  0.00    +0.019 A 
ATOM     38  C   UNL     1      13.182   9.795  -4.058  0.00  0.00    +0.120 A 
ATOM     39  N   UNL     1      13.684   8.603  -4.571  0.00  0.00    -0.263 NA
ATOM     40  C   UNL     1      15.011   8.470  -5.007  0.00  0.00    +0.111 A 
ENDBRANCH   4   3
ENDBRANCH  10   9
BRANCH  12  13
ATOM     13  N   UNL     1       8.044  15.861   0.902  0.00  0.00    -0.281 N 
ATOM     14  C   UNL     1       8.910  15.935   1.981  0.00  0.00    +0.248 C 
ATOM     30  O   UNL     1      10.109  15.708   1.921  0.00  0.00    -0.270 OA
ATOM     31  H   UNL     1       7.049  15.881   1.124  0.00  0.00    +0.155 HD
BRANCH  14  15
ATOM     15  C   UNL     1       8.362  16.301   3.323  0.00  0.00    +0.037 A 
ATOM     16  C   UNL     1       8.575  15.441   4.490  0.00  0.00    +0.013 A 
ATOM     17  C   UNL     1       8.021  15.809   5.769  0.00  0.00    +0.005 A 
ATOM     18  C   UNL     1       7.250  17.044   5.887  0.00  0.00    -0.033 A 
ATOM     28  C   UNL     1       7.059  17.881   4.714  0.00  0.00    +0.005 A 
ATOM     29  C   UNL     1       7.599  17.523   3.459  0.00  0.00    +0.013 A 
BRANCH  18  19
ATOM     19  C   UNL     1       6.605  17.504   7.208  0.00  0.00    +0.119 C 
BRANCH  19  20
ATOM     20  N   UNL     1       5.191  17.093   7.458  0.00  0.00    -0.302 NA
ATOM     21  C   UNL     1       5.103  15.781   8.241  0.00  0.00    +0.066 C 
ATOM     22  C   UNL     1       3.618  15.378   8.513  0.00  0.00    -0.064 C 
ATOM     23  N   UNL     1       2.871  15.265   7.183  0.00  0.00    +0.379 N 
ATOM     24  C   UNL     1       1.489  14.829   7.431  0.00  0.00    -0.096 C 
ATOM     25  H   UNL     1       3.373  14.472   6.580  0.00  0.00    -0.082 HD
ATOM     26  C   UNL     1       2.955  16.565   6.396  0.00  0.00    -0.064 C 
ATOM     27  C   UNL     1       4.436  16.972   6.157  0.00  0.00    +0.066 C 
ENDBRANCH  19  20
ENDBRANCH  18  19
ENDBRANCH  14  15
ENDBRANCH  12  13
TORSDOF 6
ENDMDL
MODEL 4
REMARK VINA RESULT:     -10.0      3.180     14.032
REMARK  Name = C:\Users\Docking\Desktop\test protocol\1iep_ligandH.pdb
REMARK  8 active torsions:
REMARK  status: ('A' for Active; 'I' for Inactive)
REMARK    1  A    between atoms: _5  and  _11
REMARK    2  A    between atoms: _19  and  _21
REMARK    3  A    between atoms: _22  and  _66
REMARK    4  A    between atoms: _27  and  _30
REMARK    5  A    between atoms: _32  and  _33
REMARK    6  A    between atoms: _38  and  _43
REMARK    7  A    between atoms: _43  and  _46
REMARK    8  A    between atoms: _53  and  _55
REMARK                            x       y       z     vdW  Elec       q    Type
REMARK                         _______ _______ _______ _____ _____    ______ ____
ROOT
ATOM     10  C   UNL     1      13.010  11.850  -4.057  0.00  0.00    +0.038 A 
ATOM     11  C   UNL     1      12.023  12.716  -3.518  0.00  0.00    +0.047 A 
ATOM     12  C   UNL     1      12.395  13.904  -2.767  0.00  0.00    +0.035 A 
ATOM     32  C   UNL     1      13.781  14.183  -2.585  0.00  0.00    +0.024 A 
ATOM     33  C   UNL     1      14.797  13.314  -3.125  0.00  0.00    +0.007 A 
ATOM     34  C   UNL     1      14.436  12.139  -3.866  0.00  0.00    -0.029 A 
ATOM     35  C   UNL     1      15.567  11.239  -4.416  0.00  0.00    +0.045 C 
ENDROOT
BRANCH  10   9
ATOM      4  C   UNL     1      12.313   9.458  -8.160  0.00  0.00    +0.077 A 
ATOM      5  C   UNL     1      12.787  10.558  -8.950  0.00  0.00    +0.048 A 
ATOM      6  C   UNL     1      13.194  11.723  -8.263  0.00  0.00    +0.116 A 
ATOM      7  N   UNL     1      13.128  11.774  -6.887  0.00  0.00    -0.223 NA
ATOM      8  C   UNL     1      12.664  10.697  -6.155  0.00  0.00    +0.220 A 
ATOM      9  N   UNL     1      12.597  10.723  -4.771  0.00  0.00    -0.283 N 
ATOM     36  H   UNL     1      12.242   9.910  -4.268  0.00  0.00    +0.155 HD
ATOM     37  N   UNL     1      12.268   9.573  -6.788  0.00  0.00    -0.214 NA
BRANCH   4   3
ATOM      1  C   UNL     1      10.263   6.762 -10.116  0.00  0.00    +0.020 A 
ATOM      2  C   UNL     1      10.665   8.042  -9.580  0.00  0.00    +0.013 A 
ATOM      3  C   UNL     1      11.851   8.158  -8.740  0.00  0.00    +0.019 A 
ATOM     38  C   UNL     1      12.613   6.950  -8.459  0.00  0.00    +0.120 A 
ATOM     39  N   UNL     1      12.200   5.731  -8.988  0.00  0.00    -0.263 NA
ATOM     40  C   UNL     1      11.060   5.607  -9.796  0.00  0.00    +0.111 A 
ENDBRANCH   4   3
ENDBRANCH  10   9
BRANCH  12  13
ATOM     13  N   UNL     1      11.438  14.815  -2.189  0.00  0.00    -0.281 N 
ATOM     14  C   UNL     1      10.475  15.567  -2.843  0.00  0.00    +0.248 C 
ATOM     30  O   UNL     1      10.432  15.732  -4.053  0.00  0.00    -0.270 OA
ATOM     31  H   UNL     1      11.475  14.918  -1.175  0.00  0.00    +0.155 HD
BRANCH  14  15
ATOM     15  C   UNL     1       9.416  16.244  -2.034  0.00  0.00    +0.037 A 
ATOM     16  C   UNL     1       9.668  16.669  -0.655  0.00  0.00    +0.013 A 
ATOM     17  C   UNL     1       8.624  17.305   0.108  0.00  0.00    +0.005 A 
ATOM     18  C   UNL     1       7.317  17.522  -0.508  0.00  0.00    -0.033 A 
ATOM     28  C   UNL     1       7.096  17.095  -1.880  0.00  0.00    +0.005 A 
ATOM     29  C   UNL     1       8.117  16.470  -2.631  0.00  0.00    +0.013 A 
BRANCH  18  19
ATOM     19  C   UNL     1       6.138  18.174   0.238  0.00  0.00    +0.119 C 
BRANCH  19  20
ATOM     20  N   UNL     1       5.655  17.495   1.478  0.00  0.00    -0.302 NA
ATOM     21  C   UNL     1       4.130  17.350   1.496  0.00  0.00    +0.066 C 
ATOM     22  C   UNL     1       3.643  16.618   2.789  0.00  0.00    -0.064 C 
ATOM     23  N   UNL     1       4.129  17.386   4.019  0.00  0.00    +0.379 N 
ATOM     24  C   UNL     1       3.624  16.733   5.236  0.00  0.00    -0.096 C 
ATOM     25  H   UNL     1       3.687  18.409   3.976  0.00  0.00    -0.082 HD
ATOM     26  C   UNL     1       5.643  17.537   4.008  0.00  0.00    -0.064 C 
ATOM     27  C   UNL     1       6.119  18.239   2.706  0.00  0.00    +0.066 C 
ENDBRANCH  19  20
ENDBRANCH  18  19
ENDBRANCH  14  15
ENDBRANCH  12  13
TORSDOF 6
ENDMDL
MODEL 5
REMARK VINA RESULT:     -10.0      2.390      3.656
REMARK  Name = C:\Users\Docking\Desktop\test protocol\1iep_ligandH.pdb
REMARK  8 active torsions:
REMARK  status: ('A' for Active; 'I' for Inactive)
REMARK    1  A    between atoms: _5  and  _11
REMARK    2  A    between atoms: _19  and  _21
REMARK    3  A    between atoms: _22  and  _66
REMARK    4  A    between atoms: _27  and  _30
REMARK    5  A    between atoms: _32  and  _33
REMARK    6  A    between atoms: _38  and  _43
REMARK    7  A    between atoms: _43  and  _46
REMARK    8  A    between atoms: _53  and  _55
REMARK                            x       y       z     vdW  Elec       q    Type
REMARK                         _______ _______ _______ _____ _____    ______ ____
ROOT
ATOM     10  C   UNL     1       2.653  16.918   3.874  0.00  0.00    +0.038 A 
ATOM     11  C   UNL     1       3.727  16.466   3.067  0.00  0.00    +0.047 A 
ATOM     12  C   UNL     1       4.564  17.402   2.333  0.00  0.00    +0.035 A 
ATOM     32  C   UNL     1       4.279  18.794   2.447  0.00  0.00    +0.024 A 
ATOM     33  C   UNL     1       3.191  19.272   3.262  0.00  0.00    +0.007 A 
ATOM     34  C   UNL     1       2.361  18.352   3.987  0.00  0.00    -0.029 A 
ATOM     35  C   UNL     1       1.203  18.920   4.841  0.00  0.00    +0.045 C 
ENDROOT
BRANCH  10   9
ATOM      4  C   UNL     1       1.568  14.382   7.802  0.00  0.00    +0.077 A 
ATOM      5  C   UNL     1       2.645  14.966   8.549  0.00  0.00    +0.048 A 
ATOM      6  C   UNL     1       3.459  15.910   7.883  0.00  0.00    +0.116 A 
ATOM      7  N   UNL     1       3.206  16.238   6.569  0.00  0.00    -0.223 NA
ATOM      8  C   UNL     1       2.160  15.654   5.877  0.00  0.00    +0.220 A 
ATOM      9  N   UNL     1       1.882  15.975   4.557  0.00  0.00    -0.283 N 
ATOM     36  H   UNL     1       1.106  15.517   4.080  0.00  0.00    +0.155 HD
ATOM     37  N   UNL     1       1.369  14.749   6.490  0.00  0.00    -0.214 NA
BRANCH   4   3
ATOM      1  C   UNL     1       0.087  11.121   9.375  0.00  0.00    +0.020 A 
ATOM      2  C   UNL     1       1.045  12.059   8.837  0.00  0.00    +0.013 A 
ATOM      3  C   UNL     1       0.619  13.372   8.368  0.00  0.00    +0.019 A 
ATOM     38  C   UNL     1      -0.795  13.706   8.458  0.00  0.00    +0.120 A 
ATOM     39  N   UNL     1      -1.694  12.781   8.979  0.00  0.00    -0.263 NA
ATOM     40  C   UNL     1      -1.296  11.515   9.432  0.00  0.00    +0.111 A 
ENDBRANCH   4   3
ENDBRANCH  10   9
BRANCH  12  13
ATOM     13  N   UNL     1       5.663  17.001   1.491  0.00  0.00    -0.281 N 
ATOM     14  C   UNL     1       5.654  16.787   0.122  0.00  0.00    +0.248 C 
ATOM     30  O   UNL     1       4.642  16.701  -0.557  0.00  0.00    -0.270 OA
ATOM     31  H   UNL     1       6.557  16.857   1.961  0.00  0.00    +0.155 HD
BRANCH  14  15
ATOM     15  C   UNL     1       6.957  16.632  -0.593  0.00  0.00    +0.037 A 
ATOM     16  C   UNL     1       7.073  16.905  -2.028  0.00  0.00    +0.013 A 
ATOM     17  C   UNL     1       8.338  16.730  -2.697  0.00  0.00    +0.005 A 
ATOM     18  C   UNL     1       9.498  16.281  -1.931  0.00  0.00    -0.033 A 
ATOM     28  C   UNL     1       9.355  16.023  -0.508  0.00  0.00    +0.005 A 
ATOM     29  C   UNL     1       8.117  16.191   0.151  0.00  0.00    +0.013 A 
BRANCH  18  19
ATOM     19  C   UNL     1      10.881  16.048  -2.567  0.00  0.00    +0.119 C 
BRANCH  19  20
ATOM     20  N   UNL     1      11.133  14.712  -3.185  0.00  0.00    -0.302 NA
ATOM     21  C   UNL     1      11.852  13.761  -2.225  0.00  0.00    +0.066 C 
ATOM     22  C   UNL     1      12.087  12.361  -2.880  0.00  0.00    -0.064 C 
ATOM     23  N   UNL     1      12.888  12.534  -4.172  0.00  0.00    +0.379 N 
ATOM     24  C   UNL     1      13.161  11.215  -4.760  0.00  0.00    -0.096 C 
ATOM     25  H   UNL     1      13.867  12.994  -3.903  0.00  0.00    -0.082 HD
ATOM     26  C   UNL     1      12.182  13.481  -5.132  0.00  0.00    -0.064 C 
ATOM     27  C   UNL     1      11.926  14.859  -4.460  0.00  0.00    +0.066 C 
ENDBRANCH  19  20
ENDBRANCH  18  19
ENDBRANCH  14  15
ENDBRANCH  12  13
TORSDOF 6
ENDMDL
