MODEL 1
REMARK VINA RESULT:      -8.5      0.000      0.000
REMARK  Name = C:\Users\Docking\Desktop\test protocol\1iep_ligandH.pdb
REMARK  8 active torsions:
REMARK  status: ('A' for Active; 'I' for Inactive)
REMARK    1  A    between atoms: _5  and  _11
REMARK    2  A    between atoms: _19  and  _21
REMARK    3  A    between atoms: _22  and  _66
REMARK    4  A    between atoms: _27  and  _30
REMARK    5  A    between atoms: _32  and  _33
REMARK    6  A    between atoms: _38  and  _43
REMARK    7  A    between atoms: _43  and  _46
REMARK    8  A    between atoms: _53  and  _55
REMARK                            x       y       z     vdW  Elec       q    Type
REMARK                         _______ _______ _______ _____ _____    ______ ____
ROOT
ATOM     10  C   UNL     1      10.415  23.175   8.708  0.00  0.00    +0.038 A 
ATOM     11  C   UNL     1      11.603  23.292   7.941  0.00  0.00    +0.047 A 
ATOM     12  C   UNL     1      12.823  22.605   8.334  0.00  0.00    +0.035 A 
ATOM     32  C   UNL     1      12.798  21.805   9.513  0.00  0.00    +0.024 A 
ATOM     33  C   UNL     1      11.601  21.675  10.305  0.00  0.00    +0.007 A 
ATOM     34  C   UNL     1      10.394  22.352   9.924  0.00  0.00    -0.029 A 
ATOM     35  C   UNL     1       9.141  22.182  10.814  0.00  0.00    +0.045 C 
ENDROOT
BRANCH  10   9
ATOM      4  C   UNL     1       7.627  27.078   8.555  0.00  0.00    +0.077 A 
ATOM      5  C   UNL     1       8.510  27.815   9.414  0.00  0.00    +0.048 A 
ATOM      6  C   UNL     1       9.667  27.150   9.879  0.00  0.00    +0.116 A 
ATOM      7  N   UNL     1       9.913  25.847   9.506  0.00  0.00    -0.223 NA
ATOM      8  C   UNL     1       9.040  25.165   8.678  0.00  0.00    +0.220 A 
ATOM      9  N   UNL     1       9.272  23.856   8.284  0.00  0.00    -0.283 N 
ATOM     36  H   UNL     1       8.600  23.385   7.679  0.00  0.00    +0.155 HD
ATOM     37  N   UNL     1       7.928  25.777   8.222  0.00  0.00    -0.214 NA
BRANCH   4   3
ATOM      1  C   UNL     1       4.617  29.451   7.770  0.00  0.00    +0.020 A 
ATOM      2  C   UNL     1       5.840  28.950   8.356  0.00  0.00    +0.013 A 
ATOM      3  C   UNL     1       6.366  27.644   7.980  0.00  0.00    +0.019 A 
ATOM     38  C   UNL     1       5.626  26.864   7.000  0.00  0.00    +0.120 A 
ATOM     39  N   UNL     1       4.451  27.371   6.454  0.00  0.00    -0.263 NA
ATOM     40  C   UNL     1       3.934  28.625   6.809  0.00  0.00    +0.111 A 
ENDBRANCH   4   3
ENDBRANCH  10   9
BRANCH  12  13
ATOM     13  N   UNL     1      14.061  22.694   7.599  0.00  0.00    -0.281 N 
ATOM     14  C   UNL     1      14.295  22.343   6.280  0.00  0.00    +0.248 C 
ATOM     30  O   UNL     1      13.521  21.696   5.589  0.00  0.00    -0.270 OA
ATOM     31  H   UNL     1      14.862  23.059   8.115  0.00  0.00    +0.155 HD
BRANCH  14  15
ATOM     15  C   UNL     1      15.580  22.758   5.639  0.00  0.00    +0.037 A 
ATOM     16  C   UNL     1      15.624  23.204   4.244  0.00  0.00    +0.013 A 
ATOM     17  C   UNL     1      16.880  23.583   3.646  0.00  0.00    +0.005 A 
ATOM     18  C   UNL     1      18.102  23.518   4.444  0.00  0.00    -0.033 A 
ATOM     28  C   UNL     1      18.028  23.077   5.827  0.00  0.00    +0.005 A 
ATOM     29  C   UNL     1      16.800  22.704   6.416  0.00  0.00    +0.013 A 
BRANCH  18  19
ATOM     19  C   UNL     1      19.488  23.883   3.881  0.00  0.00    +0.119 C 
BRANCH  19  20
ATOM     20  N   UNL     1      19.621  25.201   3.192  0.00  0.00    -0.302 NA
ATOM     21  C   UNL     1      21.086  25.592   2.977  0.00  0.00    +0.066 C 
ATOM     22  C   UNL     1      21.207  26.963   2.235  0.00  0.00    -0.064 C 
ATOM     23  N   UNL     1      20.470  28.039   3.034  0.00  0.00    +0.379 N 
ATOM     24  C   UNL     1      20.631  29.340   2.368  0.00  0.00    -0.096 C 
ATOM     25  H   UNL     1      20.956  28.109   4.035  0.00  0.00    -0.082 HD
ATOM     26  C   UNL     1      19.013  27.657   3.254  0.00  0.00    -0.064 C 
ATOM     27  C   UNL     1      18.905  26.280   3.966  0.00  0.00    +0.066 C 
ENDBRANCH  19  20
ENDBRANCH  18  19
ENDBRANCH  14  15
ENDBRANCH  12  13
TORSDOF 6
ENDMDL
MODEL 2
REMARK VINA RESULT:      -7.9      1.824      2.655
REMARK  Name = C:\Users\Docking\Desktop\test protocol\1iep_ligandH.pdb
REMARK  8 active torsions:
REMARK  status: ('A' for Active; 'I' for Inactive)
REMARK    1  A    between atoms: _5  and  _11
REMARK    2  A    between atoms: _19  and  _21
REMARK    3  A    between atoms: _22  and  _66
REMARK    4  A    between atoms: _27  and  _30
REMARK    5  A    between atoms: _32  and  _33
REMARK    6  A    between atoms: _38  and  _43
REMARK    7  A    between atoms: _43  and  _46
REMARK    8  A    between atoms: _53  and  _55
REMARK                            x       y       z     vdW  Elec       q    Type
REMARK                         _______ _______ _______ _____ _____    ______ ____
ROOT
ATOM     10  C   UNL     1      11.685  23.167   8.243  0.00  0.00    +0.038 A 
ATOM     11  C   UNL     1      12.765  23.474   7.376  0.00  0.00    +0.047 A 
ATOM     12  C   UNL     1      14.078  22.879   7.569  0.00  0.00    +0.035 A 
ATOM     32  C   UNL     1      14.255  21.972   8.654  0.00  0.00    +0.024 A 
ATOM     33  C   UNL     1      13.169  21.649   9.546  0.00  0.00    +0.007 A 
ATOM     34  C   UNL     1      11.873  22.235   9.362  0.00  0.00    -0.029 A 
ATOM     35  C   UNL     1      10.746  21.857  10.352  0.00  0.00    +0.045 C 
ENDROOT
BRANCH  10   9
ATOM      4  C   UNL     1       8.613  26.831   8.660  0.00  0.00    +0.077 A 
ATOM      5  C   UNL     1       9.547  27.604   9.427  0.00  0.00    +0.048 A 
ATOM      6  C   UNL     1      10.804  27.019   9.699  0.00  0.00    +0.116 A 
ATOM      7  N   UNL     1      11.095  25.755   9.233  0.00  0.00    -0.223 NA
ATOM      8  C   UNL     1      10.171  25.036   8.497  0.00  0.00    +0.220 A 
ATOM      9  N   UNL     1      10.446  23.767   8.011  0.00  0.00    -0.283 N 
ATOM     36  H   UNL     1       9.735  23.266   7.479  0.00  0.00    +0.155 HD
ATOM     37  N   UNL     1       8.963  25.572   8.225  0.00  0.00    -0.214 NA
BRANCH   4   3
ATOM      1  C   UNL     1       4.998  27.024   7.179  0.00  0.00    +0.020 A 
ATOM      2  C   UNL     1       6.307  26.512   7.511  0.00  0.00    +0.013 A 
ATOM      3  C   UNL     1       7.245  27.313   8.288  0.00  0.00    +0.019 A 
ATOM     38  C   UNL     1       6.823  28.637   8.718  0.00  0.00    +0.120 A 
ATOM     39  N   UNL     1       5.557  29.105   8.382  0.00  0.00    -0.263 NA
ATOM     40  C   UNL     1       4.646  28.344   7.633  0.00  0.00    +0.111 A 
ENDBRANCH   4   3
ENDBRANCH  10   9
BRANCH  12  13
ATOM     13  N   UNL     1      15.213  23.159   6.726  0.00  0.00    -0.281 N 
ATOM     14  C   UNL     1      15.384  22.832   5.391  0.00  0.00    +0.248 C 
ATOM     30  O   UNL     1      14.671  22.056   4.772  0.00  0.00    -0.270 OA
ATOM     31  H   UNL     1      15.985  23.659   7.167  0.00  0.00    +0.155 HD
BRANCH  14  15
ATOM     15  C   UNL     1      16.521  23.444   4.637  0.00  0.00    +0.037 A 
ATOM     16  C   UNL     1      16.441  23.667   3.191  0.00  0.00    +0.013 A 
ATOM     17  C   UNL     1      17.558  24.243   2.486  0.00  0.00    +0.005 A 
ATOM     18  C   UNL     1      18.765  24.602   3.227  0.00  0.00    -0.033 A 
ATOM     28  C   UNL     1      18.815  24.376   4.662  0.00  0.00    +0.005 A 
ATOM     29  C   UNL     1      17.722  23.810   5.356  0.00  0.00    +0.013 A 
BRANCH  18  19
ATOM     19  C   UNL     1      20.013  25.203   2.553  0.00  0.00    +0.119 C 
BRANCH  19  20
ATOM     20  N   UNL     1      21.335  24.603   2.903  0.00  0.00    -0.302 NA
ATOM     21  C   UNL     1      22.501  25.390   2.299  0.00  0.00    +0.066 C 
ATOM     22  C   UNL     1      23.877  24.762   2.694  0.00  0.00    -0.064 C 
ATOM     23  N   UNL     1      23.917  23.302   2.240  0.00  0.00    +0.379 N 
ATOM     24  C   UNL     1      25.231  22.725   2.558  0.00  0.00    -0.096 C 
ATOM     25  H   UNL     1      23.801  23.290   1.131  0.00  0.00    -0.082 HD
ATOM     26  C   UNL     1      22.759  22.512   2.833  0.00  0.00    -0.064 C 
ATOM     27  C   UNL     1      21.397  23.162   2.459  0.00  0.00    +0.066 C 
ENDBRANCH  19  20
ENDBRANCH  18  19
ENDBRANCH  14  15
ENDBRANCH  12  13
TORSDOF 6
ENDMDL
MODEL 3
REMARK VINA RESULT:      -7.9      1.463      2.300
REMARK  Name = C:\Users\Docking\Desktop\test protocol\1iep_ligandH.pdb
REMARK  8 active torsions:
REMARK  status: ('A' for Active; 'I' for Inactive)
REMARK    1  A    between atoms: _5  and  _11
REMARK    2  A    between atoms: _19  and  _21
REMARK    3  A    between atoms: _22  and  _66
REMARK    4  A    between atoms: _27  and  _30
REMARK    5  A    between atoms: _32  and  _33
REMARK    6  A    between atoms: _38  and  _43
REMARK    7  A    between atoms: _43  and  _46
REMARK    8  A    between atoms: _53  and  _55
REMARK                            x       y       z     vdW  Elec       q    Type
REMARK                         _______ _______ _______ _____ _____    ______ ____
ROOT
ATOM     10  C   UNL     1      10.352  23.197   8.674  0.00  0.00    +0.038 A 
ATOM     11  C   UNL     1      11.503  23.423   7.877  0.00  0.00    +0.047 A 
ATOM     12  C   UNL     1      12.769  22.773   8.182  0.00  0.00    +0.035 A 
ATOM     32  C   UNL     1      12.825  21.897   9.305  0.00  0.00    +0.024 A 
ATOM     33  C   UNL     1      11.664  21.657  10.127  0.00  0.00    +0.007 A 
ATOM     34  C   UNL     1      10.414  22.297   9.832  0.00  0.00    -0.029 A 
ATOM     35  C   UNL     1       9.204  22.008  10.750  0.00  0.00    +0.045 C 
ENDROOT
BRANCH  10   9
ATOM      4  C   UNL     1       7.546  27.089   8.538  0.00  0.00    +0.077 A 
ATOM      5  C   UNL     1       8.520  27.888   9.223  0.00  0.00    +0.048 A 
ATOM      6  C   UNL     1       9.727  27.258   9.600  0.00  0.00    +0.116 A 
ATOM      7  N   UNL     1       9.934  25.927   9.307  0.00  0.00    -0.223 NA
ATOM      8  C   UNL     1       8.973  25.185   8.646  0.00  0.00    +0.220 A 
ATOM      9  N   UNL     1       9.163  23.847   8.335  0.00  0.00    -0.283 N 
ATOM     36  H   UNL     1       8.426  23.332   7.853  0.00  0.00    +0.155 HD
ATOM     37  N   UNL     1       7.811  25.763   8.277  0.00  0.00    -0.214 NA
BRANCH   4   3
ATOM      1  C   UNL     1       4.011  27.361   6.885  0.00  0.00    +0.020 A 
ATOM      2  C   UNL     1       5.276  26.807   7.310  0.00  0.00    +0.013 A 
ATOM      3  C   UNL     1       6.223  27.612   8.072  0.00  0.00    +0.019 A 
ATOM     38  C   UNL     1       5.855  28.984   8.390  0.00  0.00    +0.120 A 
ATOM     39  N   UNL     1       4.631  29.490   7.966  0.00  0.00    -0.263 NA
ATOM     40  C   UNL     1       3.713  28.726   7.231  0.00  0.00    +0.111 A 
ENDBRANCH   4   3
ENDBRANCH  10   9
BRANCH  12  13
ATOM     13  N   UNL     1      13.973  22.970   7.415  0.00  0.00    -0.281 N 
ATOM     14  C   UNL     1      14.276  22.465   6.161  0.00  0.00    +0.248 C 
ATOM     30  O   UNL     1      13.639  21.587   5.597  0.00  0.00    -0.270 OA
ATOM     31  H   UNL     1      14.689  23.553   7.848  0.00  0.00    +0.155 HD
BRANCH  14  15
ATOM     15  C   UNL     1      15.466  23.003   5.434  0.00  0.00    +0.037 A 
ATOM     16  C   UNL     1      16.805  22.951   6.025  0.00  0.00    +0.013 A 
ATOM     17  C   UNL     1      17.934  23.492   5.310  0.00  0.00    +0.005 A 
ATOM     18  C   UNL     1      17.727  24.089   3.993  0.00  0.00    -0.033 A 
ATOM     28  C   UNL     1      16.388  24.123   3.427  0.00  0.00    +0.005 A 
ATOM     29  C   UNL     1      15.280  23.594   4.126  0.00  0.00    +0.013 A 
BRANCH  18  19
ATOM     19  C   UNL     1      18.869  24.710   3.167  0.00  0.00    +0.119 C 
BRANCH  19  20
ATOM     20  N   UNL     1      20.188  24.010   3.190  0.00  0.00    -0.302 NA
ATOM     21  C   UNL     1      21.186  24.694   4.128  0.00  0.00    +0.066 C 
ATOM     22  C   UNL     1      22.553  23.936   4.157  0.00  0.00    -0.064 C 
ATOM     23  N   UNL     1      23.115  23.850   2.737  0.00  0.00    +0.379 N 
ATOM     24  C   UNL     1      24.428  23.188   2.769  0.00  0.00    -0.096 C 
ATOM     25  H   UNL     1      23.270  24.891   2.371  0.00  0.00    -0.082 HD
ATOM     26  C   UNL     1      22.128  23.172   1.797  0.00  0.00    -0.064 C 
ATOM     27  C   UNL     1      20.764  23.917   1.798  0.00  0.00    +0.066 C 
ENDBRANCH  19  20
ENDBRANCH  18  19
ENDBRANCH  14  15
ENDBRANCH  12  13
TORSDOF 6
ENDMDL
MODEL 4
REMARK VINA RESULT:      -7.8      2.129     12.162
REMARK  Name = C:\Users\Docking\Desktop\test protocol\1iep_ligandH.pdb
REMARK  8 active torsions:
REMARK  status: ('A' for Active; 'I' for Inactive)
REMARK    1  A    between atoms: _5  and  _11
REMARK    2  A    between atoms: _19  and  _21
REMARK    3  A    between atoms: _22  and  _66
REMARK    4  A    between atoms: _27  and  _30
REMARK    5  A    between atoms: _32  and  _33
REMARK    6  A    between atoms: _38  and  _43
REMARK    7  A    between atoms: _43  and  _46
REMARK    8  A    between atoms: _53  and  _55
REMARK                            x       y       z     vdW  Elec       q    Type
REMARK                         _______ _______ _______ _____ _____    ______ ____
ROOT
ATOM     10  C   UNL     1      20.029  25.406   4.275  0.00  0.00    +0.038 A 
ATOM     11  C   UNL     1      18.695  25.165   4.691  0.00  0.00    +0.047 A 
ATOM     12  C   UNL     1      18.158  23.814   4.754  0.00  0.00    +0.035 A 
ATOM     32  C   UNL     1      19.010  22.731   4.389  0.00  0.00    +0.024 A 
ATOM     33  C   UNL     1      20.369  22.958   3.963  0.00  0.00    +0.007 A 
ATOM     34  C   UNL     1      20.903  24.288   3.896  0.00  0.00    -0.029 A 
ATOM     35  C   UNL     1      22.364  24.473   3.426  0.00  0.00    +0.045 C 
ENDROOT
BRANCH  10   9
ATOM      4  C   UNL     1      20.899  29.515   1.952  0.00  0.00    +0.077 A 
ATOM      5  C   UNL     1      20.414  28.984   0.711  0.00  0.00    +0.048 A 
ATOM      6  C   UNL     1      19.956  27.648   0.711  0.00  0.00    +0.116 A 
ATOM      7  N   UNL     1      19.986  26.906   1.872  0.00  0.00    -0.223 NA
ATOM      8  C   UNL     1      20.461  27.448   3.052  0.00  0.00    +0.220 A 
ATOM      9  N   UNL     1      20.493  26.723   4.233  0.00  0.00    -0.283 N 
ATOM     36  H   UNL     1      20.858  27.156   5.081  0.00  0.00    +0.155 HD
ATOM     37  N   UNL     1      20.905  28.721   3.078  0.00  0.00    -0.214 NA
BRANCH   4   3
ATOM      1  C   UNL     1      22.713  32.922   1.317  0.00  0.00    +0.020 A 
ATOM      2  C   UNL     1      22.242  31.571   1.113  0.00  0.00    +0.013 A 
ATOM      3  C   UNL     1      21.413  30.912   2.113  0.00  0.00    +0.019 A 
ATOM     38  C   UNL     1      21.074  31.653   3.319  0.00  0.00    +0.120 A 
ATOM     39  N   UNL     1      21.542  32.952   3.489  0.00  0.00    -0.263 NA
ATOM     40  C   UNL     1      22.343  33.596   2.533  0.00  0.00    +0.111 A 
ENDBRANCH   4   3
ENDBRANCH  10   9
BRANCH  12  13
ATOM     13  N   UNL     1      16.809  23.509   5.161  0.00  0.00    -0.281 N 
ATOM     14  C   UNL     1      16.389  22.910   6.337  0.00  0.00    +0.248 C 
ATOM     30  O   UNL     1      17.130  22.348   7.129  0.00  0.00    -0.270 OA
ATOM     31  H   UNL     1      16.074  23.767   4.501  0.00  0.00    +0.155 HD
BRANCH  14  15
ATOM     15  C   UNL     1      14.933  22.924   6.674  0.00  0.00    +0.037 A 
ATOM     16  C   UNL     1      13.938  23.435   5.728  0.00  0.00    +0.013 A 
ATOM     17  C   UNL     1      12.542  23.453   6.085  0.00  0.00    +0.005 A 
ATOM     18  C   UNL     1      12.132  22.956   7.397  0.00  0.00    -0.033 A 
ATOM     28  C   UNL     1      13.139  22.450   8.314  0.00  0.00    +0.005 A 
ATOM     29  C   UNL     1      14.509  22.432   7.968  0.00  0.00    +0.013 A 
BRANCH  18  19
ATOM     19  C   UNL     1      10.667  22.957   7.871  0.00  0.00    +0.119 C 
BRANCH  19  20
ATOM     20  N   UNL     1       9.969  24.276   7.933  0.00  0.00    -0.302 NA
ATOM     21  C   UNL     1       8.775  24.250   8.891  0.00  0.00    +0.066 C 
ATOM     22  C   UNL     1       8.071  25.644   8.962  0.00  0.00    -0.064 C 
ATOM     23  N   UNL     1       7.629  26.060   7.558  0.00  0.00    +0.379 N 
ATOM     24  C   UNL     1       6.915  27.344   7.628  0.00  0.00    -0.096 C 
ATOM     25  H   UNL     1       6.910  25.293   7.188  0.00  0.00    -0.082 HD
ATOM     26  C   UNL     1       8.810  26.087   6.598  0.00  0.00    -0.064 C 
ATOM     27  C   UNL     1       9.521  24.705   6.558  0.00  0.00    +0.066 C 
ENDBRANCH  19  20
ENDBRANCH  18  19
ENDBRANCH  14  15
ENDBRANCH  12  13
TORSDOF 6
ENDMDL
MODEL 5
REMARK VINA RESULT:      -7.8      2.672     11.801
REMARK  Name = C:\Users\Docking\Desktop\test protocol\1iep_ligandH.pdb
REMARK  8 active torsions:
REMARK  status: ('A' for Active; 'I' for Inactive)
REMARK    1  A    between atoms: _5  and  _11
REMARK    2  A    between atoms: _19  and  _21
REMARK    3  A    between atoms: _22  and  _66
REMARK    4  A    between atoms: _27  and  _30
REMARK    5  A    between atoms: _32  and  _33
REMARK    6  A    between atoms: _38  and  _43
REMARK    7  A    between atoms: _43  and  _46
REMARK    8  A    between atoms: _53  and  _55
REMARK                            x       y       z     vdW  Elec       q    Type
REMARK                         _______ _______ _______ _____ _____    ______ ____
ROOT
ATOM     10  C   UNL     1      14.907  21.295   8.748  0.00  0.00    +0.038 A 
ATOM     11  C   UNL     1      13.876  22.265   8.656  0.00  0.00    +0.047 A 
ATOM     12  C   UNL     1      12.522  21.968   9.098  0.00  0.00    +0.035 A 
ATOM     32  C   UNL     1      12.254  20.674   9.631  0.00  0.00    +0.024 A 
ATOM     33  C   UNL     1      13.289  19.676   9.732  0.00  0.00    +0.007 A 
ATOM     34  C   UNL     1      14.626  19.962   9.295  0.00  0.00    -0.029 A 
ATOM     35  C   UNL     1      15.695  18.851   9.421  0.00  0.00    +0.045 C 
ENDROOT
BRANCH  10   9
ATOM      4  C   UNL     1      18.137  22.019   5.273  0.00  0.00    +0.077 A 
ATOM      5  C   UNL     1      17.198  21.668   4.246  0.00  0.00    +0.048 A 
ATOM      6  C   UNL     1      15.897  21.299   4.655  0.00  0.00    +0.116 A 
ATOM      7  N   UNL     1      15.569  21.288   5.993  0.00  0.00    -0.223 NA
ATOM      8  C   UNL     1      16.499  21.631   6.958  0.00  0.00    +0.220 A 
ATOM      9  N   UNL     1      16.189  21.633   8.309  0.00  0.00    -0.283 N 
ATOM     36  H   UNL     1      16.905  21.885   8.990  0.00  0.00    +0.155 HD
ATOM     37  N   UNL     1      17.749  21.984   6.593  0.00  0.00    -0.214 NA
BRANCH   4   3
ATOM      1  C   UNL     1      21.360  24.170   4.744  0.00  0.00    +0.020 A 
ATOM      2  C   UNL     1      19.984  23.824   5.014  0.00  0.00    +0.013 A 
ATOM      3  C   UNL     1      19.549  22.433   4.999  0.00  0.00    +0.019 A 
ATOM     38  C   UNL     1      20.540  21.408   4.705  0.00  0.00    +0.120 A 
ATOM     39  N   UNL     1      21.858  21.772   4.447  0.00  0.00    -0.263 NA
ATOM     40  C   UNL     1      22.288  23.107   4.457  0.00  0.00    +0.111 A 
ENDBRANCH   4   3
ENDBRANCH  10   9
BRANCH  12  13
ATOM     13  N   UNL     1      11.433  22.910   9.020  0.00  0.00    -0.281 N 
ATOM     14  C   UNL     1      10.929  23.713  10.030  0.00  0.00    +0.248 C 
ATOM     30  O   UNL     1      11.201  23.587  11.215  0.00  0.00    -0.270 OA
ATOM     31  H   UNL     1      10.979  22.995   8.111  0.00  0.00    +0.155 HD
BRANCH  14  15
ATOM     15  C   UNL     1       9.972  24.805   9.674  0.00  0.00    +0.037 A 
ATOM     16  C   UNL     1       8.644  24.506   9.133  0.00  0.00    +0.013 A 
ATOM     17  C   UNL     1       7.747  25.578   8.782  0.00  0.00    +0.005 A 
ATOM     18  C   UNL     1       8.176  26.962   8.973  0.00  0.00    -0.033 A 
ATOM     28  C   UNL     1       9.497  27.230   9.517  0.00  0.00    +0.005 A 
ATOM     29  C   UNL     1      10.379  26.182   9.861  0.00  0.00    +0.013 A 
BRANCH  18  19
ATOM     19  C   UNL     1       7.293  28.169   8.607  0.00  0.00    +0.119 C 
BRANCH  19  20
ATOM     20  N   UNL     1       6.028  27.891   7.864  0.00  0.00    -0.302 NA
ATOM     21  C   UNL     1       6.277  27.666   6.370  0.00  0.00    +0.066 C 
ATOM     22  C   UNL     1       4.946  27.354   5.612  0.00  0.00    -0.064 C 
ATOM     23  N   UNL     1       3.957  28.500   5.829  0.00  0.00    +0.379 N 
ATOM     24  C   UNL     1       2.726  28.237   5.071  0.00  0.00    -0.096 C 
ATOM     25  H   UNL     1       4.418  29.427   5.415  0.00  0.00    -0.082 HD
ATOM     26  C   UNL     1       3.706  28.733   7.313  0.00  0.00    -0.064 C 
ATOM     27  C   UNL     1       5.039  29.013   8.061  0.00  0.00    +0.066 C 
ENDBRANCH  19  20
ENDBRANCH  18  19
ENDBRANCH  14  15
ENDBRANCH  12  13
TORSDOF 6
ENDMDL
