MODEL 1
REMARK VINA RESULT:      -8.3      0.000      0.000
REMARK  Name = C:\Users\Docking\Desktop\test protocol\1iep_ligandH.pdb
REMARK  8 active torsions:
REMARK  status: ('A' for Active; 'I' for Inactive)
REMARK    1  A    between atoms: _5  and  _11
REMARK    2  A    between atoms: _19  and  _21
REMARK    3  A    between atoms: _22  and  _66
REMARK    4  A    between atoms: _27  and  _30
REMARK    5  A    between atoms: _32  and  _33
REMARK    6  A    between atoms: _38  and  _43
REMARK    7  A    between atoms: _43  and  _46
REMARK    8  A    between atoms: _53  and  _55
REMARK                            x       y       z     vdW  Elec       q    Type
REMARK                         _______ _______ _______ _____ _____    ______ ____
ROOT
ATOM     10  C   UNL     1      12.775  23.184   8.371  0.00  0.00    +0.038 A 
ATOM     11  C   UNL     1      13.956  23.468   7.639  0.00  0.00    +0.047 A 
ATOM     12  C   UNL     1      15.258  23.015   8.104  0.00  0.00    +0.035 A 
ATOM     32  C   UNL     1      15.319  22.271   9.319  0.00  0.00    +0.024 A 
ATOM     33  C   UNL     1      14.129  21.974  10.076  0.00  0.00    +0.007 A 
ATOM     34  C   UNL     1      12.843  22.421   9.623  0.00  0.00    -0.029 A 
ATOM     35  C   UNL     1      11.601  22.079  10.479  0.00  0.00    +0.045 C 
ENDROOT
BRANCH  10   9
ATOM      4  C   UNL     1       9.304  26.485   8.070  0.00  0.00    +0.077 A 
ATOM      5  C   UNL     1       9.971  27.356   8.995  0.00  0.00    +0.048 A 
ATOM      6  C   UNL     1      11.201  26.914   9.530  0.00  0.00    +0.116 A 
ATOM      7  N   UNL     1      11.717  25.691   9.161  0.00  0.00    -0.223 NA
ATOM      8  C   UNL     1      11.048  24.874   8.269  0.00  0.00    +0.220 A 
ATOM      9  N   UNL     1      11.552  23.643   7.878  0.00  0.00    -0.283 N 
ATOM     36  H   UNL     1      11.024  23.067   7.222  0.00  0.00    +0.155 HD
ATOM     37  N   UNL     1       9.870  25.273   7.744  0.00  0.00    -0.214 NA
BRANCH   4   3
ATOM      1  C   UNL     1       5.528  27.320   7.486  0.00  0.00    +0.020 A 
ATOM      2  C   UNL     1       6.763  27.005   8.166  0.00  0.00    +0.013 A 
ATOM      3  C   UNL     1       7.998  26.812   7.416  0.00  0.00    +0.019 A 
ATOM     38  C   UNL     1       7.949  26.948   5.968  0.00  0.00    +0.120 A 
ATOM     39  N   UNL     1       6.744  27.251   5.341  0.00  0.00    -0.263 NA
ATOM     40  C   UNL     1       5.549  27.437   6.052  0.00  0.00    +0.111 A 
ENDBRANCH   4   3
ENDBRANCH  10   9
BRANCH  12  13
ATOM     13  N   UNL     1      16.492  23.280   7.407  0.00  0.00    -0.281 N 
ATOM     14  C   UNL     1      17.038  22.578   6.345  0.00  0.00    +0.248 C 
ATOM     30  O   UNL     1      16.651  21.482   5.969  0.00  0.00    -0.270 OA
ATOM     31  H   UNL     1      17.028  24.083   7.737  0.00  0.00    +0.155 HD
BRANCH  14  15
ATOM     15  C   UNL     1      18.190  23.174   5.602  0.00  0.00    +0.037 A 
ATOM     16  C   UNL     1      18.017  24.355   4.753  0.00  0.00    +0.013 A 
ATOM     17  C   UNL     1      19.142  24.899   4.034  0.00  0.00    +0.005 A 
ATOM     18  C   UNL     1      20.451  24.263   4.163  0.00  0.00    -0.033 A 
ATOM     28  C   UNL     1      20.595  23.095   5.017  0.00  0.00    +0.005 A 
ATOM     29  C   UNL     1      19.495  22.558   5.722  0.00  0.00    +0.013 A 
BRANCH  18  19
ATOM     19  C   UNL     1      21.701  24.763   3.416  0.00  0.00    +0.119 C 
BRANCH  19  20
ATOM     20  N   UNL     1      22.634  23.730   2.876  0.00  0.00    -0.302 NA
ATOM     21  C   UNL     1      24.093  24.031   3.231  0.00  0.00    +0.066 C 
ATOM     22  C   UNL     1      25.053  22.928   2.677  0.00  0.00    -0.064 C 
ATOM     23  N   UNL     1      24.876  22.815   1.162  0.00  0.00    +0.379 N 
ATOM     24  C   UNL     1      25.818  21.820   0.631  0.00  0.00    -0.096 C 
ATOM     25  H   UNL     1      25.140  23.803   0.717  0.00  0.00    -0.082 HD
ATOM     26  C   UNL     1      23.428  22.518   0.800  0.00  0.00    -0.064 C 
ATOM     27  C   UNL     1      22.479  23.605   1.380  0.00  0.00    +0.066 C 
ENDBRANCH  19  20
ENDBRANCH  18  19
ENDBRANCH  14  15
ENDBRANCH  12  13
TORSDOF 6
ENDMDL
MODEL 2
REMARK VINA RESULT:      -8.3      4.050     12.394
REMARK  Name = C:\Users\Docking\Desktop\test protocol\1iep_ligandH.pdb
REMARK  8 active torsions:
REMARK  status: ('A' for Active; 'I' for Inactive)
REMARK    1  A    between atoms: _5  and  _11
REMARK    2  A    between atoms: _19  and  _21
REMARK    3  A    between atoms: _22  and  _66
REMARK    4  A    between atoms: _27  and  _30
REMARK    5  A    between atoms: _32  and  _33
REMARK    6  A    between atoms: _38  and  _43
REMARK    7  A    between atoms: _43  and  _46
REMARK    8  A    between atoms: _53  and  _55
REMARK                            x       y       z     vdW  Elec       q    Type
REMARK                         _______ _______ _______ _____ _____    ______ ____
ROOT
ATOM     10  C   UNL     1      20.156  25.480   3.670  0.00  0.00    +0.038 A 
ATOM     11  C   UNL     1      18.956  25.210   4.376  0.00  0.00    +0.047 A 
ATOM     12  C   UNL     1      18.346  23.890   4.345  0.00  0.00    +0.035 A 
ATOM     32  C   UNL     1      18.987  22.867   3.587  0.00  0.00    +0.024 A 
ATOM     33  C   UNL     1      20.206  23.124   2.863  0.00  0.00    +0.007 A 
ATOM     34  C   UNL     1      20.811  24.426   2.887  0.00  0.00    -0.029 A 
ATOM     35  C   UNL     1      22.115  24.646   2.086  0.00  0.00    +0.045 C 
ENDROOT
BRANCH  10   9
ATOM      4  C   UNL     1      21.006  29.814   1.789  0.00  0.00    +0.077 A 
ATOM      5  C   UNL     1      20.337  29.479   0.565  0.00  0.00    +0.048 A 
ATOM      6  C   UNL     1      19.794  28.179   0.457  0.00  0.00    +0.116 A 
ATOM      7  N   UNL     1      19.917  27.289   1.501  0.00  0.00    -0.223 NA
ATOM      8  C   UNL     1      20.570  27.643   2.668  0.00  0.00    +0.220 A 
ATOM      9  N   UNL     1      20.698  26.766   3.734  0.00  0.00    -0.283 N 
ATOM     36  H   UNL     1      21.193  27.063   4.574  0.00  0.00    +0.155 HD
ATOM     37  N   UNL     1      21.098  28.878   2.795  0.00  0.00    -0.214 NA
BRANCH   4   3
ATOM      1  C   UNL     1      23.077  33.110   1.409  0.00  0.00    +0.020 A 
ATOM      2  C   UNL     1      22.501  31.821   1.102  0.00  0.00    +0.013 A 
ATOM      3  C   UNL     1      21.629  31.149   2.057  0.00  0.00    +0.019 A 
ATOM     38  C   UNL     1      21.356  31.813   3.322  0.00  0.00    +0.120 A 
ATOM     39  N   UNL     1      21.926  33.054   3.590  0.00  0.00    -0.263 NA
ATOM     40  C   UNL     1      22.768  33.710   2.680  0.00  0.00    +0.111 A 
ENDBRANCH   4   3
ENDBRANCH  10   9
BRANCH  12  13
ATOM     13  N   UNL     1      17.124  23.559   5.036  0.00  0.00    -0.281 N 
ATOM     14  C   UNL     1      16.980  22.865   6.226  0.00  0.00    +0.248 C 
ATOM     30  O   UNL     1      17.874  22.234   6.771  0.00  0.00    -0.270 OA
ATOM     31  H   UNL     1      16.261  23.874   4.594  0.00  0.00    +0.155 HD
BRANCH  14  15
ATOM     15  C   UNL     1      15.646  22.858   6.901  0.00  0.00    +0.037 A 
ATOM     16  C   UNL     1      14.403  22.888   6.127  0.00  0.00    +0.013 A 
ATOM     17  C   UNL     1      13.130  22.898   6.803  0.00  0.00    +0.005 A 
ATOM     18  C   UNL     1      13.094  22.876   8.263  0.00  0.00    -0.033 A 
ATOM     28  C   UNL     1      14.343  22.840   9.006  0.00  0.00    +0.005 A 
ATOM     29  C   UNL     1      15.592  22.832   8.347  0.00  0.00    +0.013 A 
BRANCH  18  19
ATOM     19  C   UNL     1      11.782  22.905   9.068  0.00  0.00    +0.119 C 
BRANCH  19  20
ATOM     20  N   UNL     1      10.928  24.124   8.941  0.00  0.00    -0.302 NA
ATOM     21  C   UNL     1      11.622  25.372   9.496  0.00  0.00    +0.066 C 
ATOM     22  C   UNL     1      10.724  26.642   9.333  0.00  0.00    -0.064 C 
ATOM     23  N   UNL     1       9.385  26.409  10.034  0.00  0.00    +0.379 N 
ATOM     24  C   UNL     1       8.561  27.622   9.933  0.00  0.00    -0.096 C 
ATOM     25  H   UNL     1       9.595  26.232  11.115  0.00  0.00    -0.082 HD
ATOM     26  C   UNL     1       8.690  25.169   9.490  0.00  0.00    -0.064 C 
ATOM     27  C   UNL     1       9.602  23.918   9.630  0.00  0.00    +0.066 C 
ENDBRANCH  19  20
ENDBRANCH  18  19
ENDBRANCH  14  15
ENDBRANCH  12  13
TORSDOF 6
ENDMDL
MODEL 3
REMARK VINA RESULT:      -8.3      1.905      2.775
REMARK  Name = C:\Users\Docking\Desktop\test protocol\1iep_ligandH.pdb
REMARK  8 active torsions:
REMARK  status: ('A' for Active; 'I' for Inactive)
REMARK    1  A    between atoms: _5  and  _11
REMARK    2  A    between atoms: _19  and  _21
REMARK    3  A    between atoms: _22  and  _66
REMARK    4  A    between atoms: _27  and  _30
REMARK    5  A    between atoms: _32  and  _33
REMARK    6  A    between atoms: _38  and  _43
REMARK    7  A    between atoms: _43  and  _46
REMARK    8  A    between atoms: _53  and  _55
REMARK                            x       y       z     vdW  Elec       q    Type
REMARK                         _______ _______ _______ _____ _____    ______ ____
ROOT
ATOM     10  C   UNL     1      12.169  23.212   8.645  0.00  0.00    +0.038 A 
ATOM     11  C   UNL     1      13.358  23.435   7.906  0.00  0.00    +0.047 A 
ATOM     12  C   UNL     1      14.650  22.993   8.407  0.00  0.00    +0.035 A 
ATOM     32  C   UNL     1      14.693  22.324   9.665  0.00  0.00    +0.024 A 
ATOM     33  C   UNL     1      13.494  22.089  10.430  0.00  0.00    +0.007 A 
ATOM     34  C   UNL     1      12.217  22.525   9.942  0.00  0.00    -0.029 A 
ATOM     35  C   UNL     1      10.965  22.253  10.808  0.00  0.00    +0.045 C 
ENDROOT
BRANCH  10   9
ATOM      4  C   UNL     1       8.819  26.588   7.998  0.00  0.00    +0.077 A 
ATOM      5  C   UNL     1       9.534  27.535   8.805  0.00  0.00    +0.048 A 
ATOM      6  C   UNL     1      10.756  27.112   9.373  0.00  0.00    +0.116 A 
ATOM      7  N   UNL     1      11.219  25.834   9.146  0.00  0.00    -0.223 NA
ATOM      8  C   UNL     1      10.504  24.945   8.365  0.00  0.00    +0.220 A 
ATOM      9  N   UNL     1      10.955  23.658   8.116  0.00  0.00    -0.283 N 
ATOM     36  H   UNL     1      10.395  23.029   7.541  0.00  0.00    +0.155 HD
ATOM     37  N   UNL     1       9.334  25.325   7.812  0.00  0.00    -0.214 NA
BRANCH   4   3
ATOM      1  C   UNL     1       5.041  27.379   7.366  0.00  0.00    +0.020 A 
ATOM      2  C   UNL     1       6.274  27.093   8.062  0.00  0.00    +0.013 A 
ATOM      3  C   UNL     1       7.515  26.887   7.327  0.00  0.00    +0.019 A 
ATOM     38  C   UNL     1       7.474  26.980   5.875  0.00  0.00    +0.120 A 
ATOM     39  N   UNL     1       6.272  27.256   5.231  0.00  0.00    -0.263 NA
ATOM     40  C   UNL     1       5.071  27.454   5.929  0.00  0.00    +0.111 A 
ENDBRANCH   4   3
ENDBRANCH  10   9
BRANCH  12  13
ATOM     13  N   UNL     1      15.892  23.199   7.705  0.00  0.00    -0.281 N 
ATOM     14  C   UNL     1      16.559  22.311   6.876  0.00  0.00    +0.248 C 
ATOM     30  O   UNL     1      16.295  21.122   6.782  0.00  0.00    -0.270 OA
ATOM     31  H   UNL     1      16.334  24.109   7.834  0.00  0.00    +0.155 HD
BRANCH  14  15
ATOM     15  C   UNL     1      17.692  22.815   6.042  0.00  0.00    +0.037 A 
ATOM     16  C   UNL     1      19.055  22.310   6.227  0.00  0.00    +0.013 A 
ATOM     17  C   UNL     1      20.133  22.825   5.420  0.00  0.00    +0.005 A 
ATOM     18  C   UNL     1      19.851  23.851   4.419  0.00  0.00    -0.033 A 
ATOM     28  C   UNL     1      18.489  24.331   4.253  0.00  0.00    +0.005 A 
ATOM     29  C   UNL     1      17.430  23.829   5.042  0.00  0.00    +0.013 A 
BRANCH  18  19
ATOM     19  C   UNL     1      20.943  24.473   3.528  0.00  0.00    +0.119 C 
BRANCH  19  20
ATOM     20  N   UNL     1      20.535  25.591   2.626  0.00  0.00    -0.302 NA
ATOM     21  C   UNL     1      21.397  25.653   1.362  0.00  0.00    +0.066 C 
ATOM     22  C   UNL     1      20.942  26.813   0.418  0.00  0.00    -0.064 C 
ATOM     23  N   UNL     1      21.001  28.138   1.179  0.00  0.00    +0.379 N 
ATOM     24  C   UNL     1      20.629  29.239   0.278  0.00  0.00    -0.096 C 
ATOM     25  H   UNL     1      22.058  28.301   1.493  0.00  0.00    -0.082 HD
ATOM     26  C   UNL     1      20.148  28.085   2.439  0.00  0.00    -0.064 C 
ATOM     27  C   UNL     1      20.590  26.910   3.356  0.00  0.00    +0.066 C 
ENDBRANCH  19  20
ENDBRANCH  18  19
ENDBRANCH  14  15
ENDBRANCH  12  13
TORSDOF 6
ENDMDL
MODEL 4
REMARK VINA RESULT:      -8.0      2.343     13.276
REMARK  Name = C:\Users\Docking\Desktop\test protocol\1iep_ligandH.pdb
REMARK  8 active torsions:
REMARK  status: ('A' for Active; 'I' for Inactive)
REMARK    1  A    between atoms: _5  and  _11
REMARK    2  A    between atoms: _19  and  _21
REMARK    3  A    between atoms: _22  and  _66
REMARK    4  A    between atoms: _27  and  _30
REMARK    5  A    between atoms: _32  and  _33
REMARK    6  A    between atoms: _38  and  _43
REMARK    7  A    between atoms: _43  and  _46
REMARK    8  A    between atoms: _53  and  _55
REMARK                            x       y       z     vdW  Elec       q    Type
REMARK                         _______ _______ _______ _____ _____    ______ ____
ROOT
ATOM     10  C   UNL     1      14.807  22.854   8.465  0.00  0.00    +0.038 A 
ATOM     11  C   UNL     1      13.655  23.665   8.306  0.00  0.00    +0.047 A 
ATOM     12  C   UNL     1      12.373  23.272   8.870  0.00  0.00    +0.035 A 
ATOM     32  C   UNL     1      12.302  22.045   9.593  0.00  0.00    +0.024 A 
ATOM     33  C   UNL     1      13.463  21.208   9.763  0.00  0.00    +0.007 A 
ATOM     34  C   UNL     1      14.729  21.590   9.207  0.00  0.00    -0.029 A 
ATOM     35  C   UNL     1      15.939  20.649   9.415  0.00  0.00    +0.045 C 
ENDROOT
BRANCH  10   9
ATOM      4  C   UNL     1      18.007  22.955   4.889  0.00  0.00    +0.077 A 
ATOM      5  C   UNL     1      17.225  22.062   4.084  0.00  0.00    +0.048 A 
ATOM      6  C   UNL     1      16.009  21.593   4.630  0.00  0.00    +0.116 A 
ATOM      7  N   UNL     1      15.614  21.995   5.888  0.00  0.00    -0.223 NA
ATOM      8  C   UNL     1      16.393  22.857   6.638  0.00  0.00    +0.220 A 
ATOM      9  N   UNL     1      16.012  23.280   7.902  0.00  0.00    -0.283 N 
ATOM     36  H   UNL     1      16.618  23.911   8.427  0.00  0.00    +0.155 HD
ATOM     37  N   UNL     1      17.560  23.317   6.140  0.00  0.00    -0.214 NA
BRANCH   4   3
ATOM      1  C   UNL     1      21.772  24.012   4.768  0.00  0.00    +0.020 A 
ATOM      2  C   UNL     1      20.535  23.431   5.238  0.00  0.00    +0.013 A 
ATOM      3  C   UNL     1      19.314  23.539   4.449  0.00  0.00    +0.019 A 
ATOM     38  C   UNL     1      19.379  24.246   3.179  0.00  0.00    +0.120 A 
ATOM     39  N   UNL     1      20.584  24.797   2.753  0.00  0.00    -0.263 NA
ATOM     40  C   UNL     1      21.764  24.700   3.504  0.00  0.00    +0.111 A 
ENDBRANCH   4   3
ENDBRANCH  10   9
BRANCH  12  13
ATOM     13  N   UNL     1      11.168  24.051   8.734  0.00  0.00    -0.281 N 
ATOM     14  C   UNL     1      10.997  25.404   8.977  0.00  0.00    +0.248 C 
ATOM     30  O   UNL     1      11.808  26.110   9.556  0.00  0.00    -0.270 OA
ATOM     31  H   UNL     1      10.340  23.544   8.421  0.00  0.00    +0.155 HD
BRANCH  14  15
ATOM     15  C   UNL     1       9.735  26.065   8.524  0.00  0.00    +0.037 A 
ATOM     16  C   UNL     1       8.817  26.687   9.481  0.00  0.00    +0.013 A 
ATOM     17  C   UNL     1       7.598  27.303   9.019  0.00  0.00    +0.005 A 
ATOM     18  C   UNL     1       7.292  27.300   7.590  0.00  0.00    -0.033 A 
ATOM     28  C   UNL     1       8.223  26.680   6.662  0.00  0.00    +0.005 A 
ATOM     29  C   UNL     1       9.418  26.075   7.112  0.00  0.00    +0.013 A 
BRANCH  18  19
ATOM     19  C   UNL     1       6.004  27.915   7.010  0.00  0.00    +0.119 C 
BRANCH  19  20
ATOM     20  N   UNL     1       4.714  27.243   7.345  0.00  0.00    -0.302 NA
ATOM     21  C   UNL     1       4.132  26.486   6.148  0.00  0.00    +0.066 C 
ATOM     22  C   UNL     1       2.794  25.769   6.522  0.00  0.00    -0.064 C 
ATOM     23  N   UNL     1       1.795  26.803   7.047  0.00  0.00    +0.379 N 
ATOM     24  C   UNL     1       0.517  26.141   7.345  0.00  0.00    -0.096 C 
ATOM     25  H   UNL     1       1.613  27.540   6.231  0.00  0.00    -0.082 HD
ATOM     26  C   UNL     1       2.367  27.562   8.236  0.00  0.00    -0.064 C 
ATOM     27  C   UNL     1       3.711  28.245   7.861  0.00  0.00    +0.066 C 
ENDBRANCH  19  20
ENDBRANCH  18  19
ENDBRANCH  14  15
ENDBRANCH  12  13
TORSDOF 6
ENDMDL
MODEL 5
REMARK VINA RESULT:      -7.8      4.186     12.348
REMARK  Name = C:\Users\Docking\Desktop\test protocol\1iep_ligandH.pdb
REMARK  8 active torsions:
REMARK  status: ('A' for Active; 'I' for Inactive)
REMARK    1  A    between atoms: _5  and  _11
REMARK    2  A    between atoms: _19  and  _21
REMARK    3  A    between atoms: _22  and  _66
REMARK    4  A    between atoms: _27  and  _30
REMARK    5  A    between atoms: _32  and  _33
REMARK    6  A    between atoms: _38  and  _43
REMARK    7  A    between atoms: _43  and  _46
REMARK    8  A    between atoms: _53  and  _55
REMARK                            x       y       z     vdW  Elec       q    Type
REMARK                         _______ _______ _______ _____ _____    ______ ____
ROOT
ATOM     10  C   UNL     1      19.954  25.459   4.062  0.00  0.00    +0.038 A 
ATOM     11  C   UNL     1      18.690  25.211   4.655  0.00  0.00    +0.047 A 
ATOM     12  C   UNL     1      18.116  23.874   4.673  0.00  0.00    +0.035 A 
ATOM     32  C   UNL     1      18.859  22.812   4.079  0.00  0.00    +0.024 A 
ATOM     33  C   UNL     1      20.145  23.046   3.470  0.00  0.00    +0.007 A 
ATOM     34  C   UNL     1      20.715  24.363   3.448  0.00  0.00    -0.029 A 
ATOM     35  C   UNL     1      22.094  24.557   2.776  0.00  0.00    +0.045 C 
ENDROOT
BRANCH  10   9
ATOM      4  C   UNL     1      20.891  29.653   1.925  0.00  0.00    +0.077 A 
ATOM      5  C   UNL     1      20.356  29.202   0.672  0.00  0.00    +0.048 A 
ATOM      6  C   UNL     1      19.857  27.881   0.618  0.00  0.00    +0.116 A 
ATOM      7  N   UNL     1      19.894  27.081   1.739  0.00  0.00    -0.223 NA
ATOM      8  C   UNL     1      20.418  27.546   2.931  0.00  0.00    +0.220 A 
ATOM      9  N   UNL     1      20.458  26.761   4.073  0.00  0.00    -0.283 N 
ATOM     36  H   UNL     1      20.859  27.139   4.931  0.00  0.00    +0.155 HD
ATOM     37  N   UNL     1      20.902  28.803   3.008  0.00  0.00    -0.214 NA
BRANCH   4   3
ATOM      1  C   UNL     1      22.841  33.008   1.435  0.00  0.00    +0.020 A 
ATOM      2  C   UNL     1      22.325  31.683   1.178  0.00  0.00    +0.013 A 
ATOM      3  C   UNL     1      21.453  31.023   2.141  0.00  0.00    +0.019 A 
ATOM     38  C   UNL     1      21.119  31.738   3.364  0.00  0.00    +0.120 A 
ATOM     39  N   UNL     1      21.631  33.012   3.585  0.00  0.00    -0.263 NA
ATOM     40  C   UNL     1      22.473  33.656   2.666  0.00  0.00    +0.111 A 
ENDBRANCH   4   3
ENDBRANCH  10   9
BRANCH  12  13
ATOM     13  N   UNL     1      16.833  23.564   5.253  0.00  0.00    -0.281 N 
ATOM     14  C   UNL     1      16.572  22.831   6.400  0.00  0.00    +0.248 C 
ATOM     30  O   UNL     1      17.398  22.148   6.986  0.00  0.00    -0.270 OA
ATOM     31  H   UNL     1      16.019  23.928   4.759  0.00  0.00    +0.155 HD
BRANCH  14  15
ATOM     15  C   UNL     1      15.191  22.850   6.969  0.00  0.00    +0.037 A 
ATOM     16  C   UNL     1      14.949  23.220   8.366  0.00  0.00    +0.013 A 
ATOM     17  C   UNL     1      13.608  23.212   8.895  0.00  0.00    +0.005 A 
ATOM     18  C   UNL     1      12.497  22.835   8.025  0.00  0.00    -0.033 A 
ATOM     28  C   UNL     1      12.765  22.477   6.641  0.00  0.00    +0.005 A 
ATOM     29  C   UNL     1      14.078  22.482   6.120  0.00  0.00    +0.013 A 
BRANCH  18  19
ATOM     19  C   UNL     1      11.036  22.779   8.510  0.00  0.00    +0.119 C 
BRANCH  19  20
ATOM     20  N   UNL     1      10.532  21.466   9.011  0.00  0.00    -0.302 NA
ATOM     21  C   UNL     1       9.389  21.635  10.016  0.00  0.00    +0.066 C 
ATOM     22  C   UNL     1       8.859  20.251  10.513  0.00  0.00    -0.064 C 
ATOM     23  N   UNL     1      10.011  19.459  11.133  0.00  0.00    +0.379 N 
ATOM     24  C   UNL     1       9.504  18.181  11.653  0.00  0.00    -0.096 C 
ATOM     25  H   UNL     1      10.399  20.046  11.997  0.00  0.00    -0.082 HD
ATOM     26  C   UNL     1      11.154  19.288  10.141  0.00  0.00    -0.064 C 
ATOM     27  C   UNL     1      11.654  20.669   9.631  0.00  0.00    +0.066 C 
ENDBRANCH  19  20
ENDBRANCH  18  19
ENDBRANCH  14  15
ENDBRANCH  12  13
TORSDOF 6
ENDMDL
