MODEL 1
REMARK VINA RESULT:      -8.0      0.000      0.000
REMARK  Name = C:\Users\Docking\Desktop\test protocol\1iep_ligandH.pdb
REMARK  8 active torsions:
REMARK  status: ('A' for Active; 'I' for Inactive)
REMARK    1  A    between atoms: _5  and  _11
REMARK    2  A    between atoms: _19  and  _21
REMARK    3  A    between atoms: _22  and  _66
REMARK    4  A    between atoms: _27  and  _30
REMARK    5  A    between atoms: _32  and  _33
REMARK    6  A    between atoms: _38  and  _43
REMARK    7  A    between atoms: _43  and  _46
REMARK    8  A    between atoms: _53  and  _55
REMARK                            x       y       z     vdW  Elec       q    Type
REMARK                         _______ _______ _______ _____ _____    ______ ____
ROOT
ATOM     10  C   UNL     1       5.883 -19.836  13.400  0.00  0.00    +0.038 A 
ATOM     11  C   UNL     1       4.513 -19.593  13.123  0.00  0.00    +0.047 A 
ATOM     12  C   UNL     1       3.591 -20.688  12.867  0.00  0.00    +0.035 A 
ATOM     32  C   UNL     1       4.098 -22.020  12.903  0.00  0.00    +0.024 A 
ATOM     33  C   UNL     1       5.487 -22.285  13.181  0.00  0.00    +0.007 A 
ATOM     34  C   UNL     1       6.402 -21.209  13.432  0.00  0.00    -0.029 A 
ATOM     35  C   UNL     1       7.883 -21.551  13.719  0.00  0.00    +0.045 C 
ENDROOT
BRANCH  10   9
ATOM      4  C   UNL     1       8.874 -16.391  11.908  0.00  0.00    +0.077 A 
ATOM      5  C   UNL     1       8.774 -16.815  10.541  0.00  0.00    +0.048 A 
ATOM      6  C   UNL     1       7.948 -17.928  10.265  0.00  0.00    +0.116 A 
ATOM      7  N   UNL     1       7.277 -18.562  11.287  0.00  0.00    -0.223 NA
ATOM      8  C   UNL     1       7.396 -18.129  12.595  0.00  0.00    +0.220 A 
ATOM      9  N   UNL     1       6.723 -18.747  13.638  0.00  0.00    -0.283 N 
ATOM     36  H   UNL     1       6.844 -18.402  14.590  0.00  0.00    +0.155 HD
ATOM     37  N   UNL     1       8.180 -17.069  12.885  0.00  0.00    -0.214 NA
BRANCH   4   3
ATOM      1  C   UNL     1      10.087 -13.161  13.751  0.00  0.00    +0.020 A 
ATOM      2  C   UNL     1       9.245 -14.265  13.350  0.00  0.00    +0.013 A 
ATOM      3  C   UNL     1       9.704 -15.230  12.358  0.00  0.00    +0.019 A 
ATOM     38  C   UNL     1      11.030 -15.048  11.788  0.00  0.00    +0.120 A 
ATOM     39  N   UNL     1      11.818 -13.974  12.192  0.00  0.00    -0.263 NA
ATOM     40  C   UNL     1      11.386 -13.039  13.144  0.00  0.00    +0.111 A 
ENDBRANCH   4   3
ENDBRANCH  10   9
BRANCH  12  13
ATOM     13  N   UNL     1       2.192 -20.502  12.573  0.00  0.00    -0.281 N 
ATOM     14  C   UNL     1       1.588 -20.409  11.330  0.00  0.00    +0.248 C 
ATOM     30  O   UNL     1       2.191 -20.257  10.278  0.00  0.00    -0.270 OA
ATOM     31  H   UNL     1       1.571 -20.431  13.380  0.00  0.00    +0.155 HD
BRANCH  14  15
ATOM     15  C   UNL     1       0.097 -20.481  11.244  0.00  0.00    +0.037 A 
ATOM     16  C   UNL     1      -0.572 -21.583  10.549  0.00  0.00    +0.013 A 
ATOM     17  C   UNL     1      -2.011 -21.618  10.466  0.00  0.00    +0.005 A 
ATOM     18  C   UNL     1      -2.790 -20.548  11.083  0.00  0.00    -0.033 A 
ATOM     28  C   UNL     1      -2.101 -19.469  11.771  0.00  0.00    +0.005 A 
ATOM     29  C   UNL     1      -0.691 -19.430  11.853  0.00  0.00    +0.013 A 
BRANCH  18  19
ATOM     19  C   UNL     1      -4.328 -20.494  11.025  0.00  0.00    +0.119 C 
BRANCH  19  20
ATOM     20  N   UNL     1      -5.075 -21.651  11.602  0.00  0.00    -0.302 NA
ATOM     21  C   UNL     1      -6.592 -21.460  11.510  0.00  0.00    +0.066 C 
ATOM     22  C   UNL     1      -7.358 -22.690  12.097  0.00  0.00    -0.064 C 
ATOM     23  N   UNL     1      -6.926 -22.911  13.548  0.00  0.00    +0.379 N 
ATOM     24  C   UNL     1      -7.687 -24.031  14.121  0.00  0.00    -0.096 C 
ATOM     25  H   UNL     1      -7.191 -21.993  14.122  0.00  0.00    -0.082 HD
ATOM     26  C   UNL     1      -5.419 -23.100  13.648  0.00  0.00    -0.064 C 
ATOM     27  C   UNL     1      -4.668 -21.885  13.036  0.00  0.00    +0.066 C 
ENDBRANCH  19  20
ENDBRANCH  18  19
ENDBRANCH  14  15
ENDBRANCH  12  13
TORSDOF 6
ENDMDL
MODEL 2
REMARK VINA RESULT:      -7.7      3.688     14.377
REMARK  Name = C:\Users\Docking\Desktop\test protocol\1iep_ligandH.pdb
REMARK  8 active torsions:
REMARK  status: ('A' for Active; 'I' for Inactive)
REMARK    1  A    between atoms: _5  and  _11
REMARK    2  A    between atoms: _19  and  _21
REMARK    3  A    between atoms: _22  and  _66
REMARK    4  A    between atoms: _27  and  _30
REMARK    5  A    between atoms: _32  and  _33
REMARK    6  A    between atoms: _38  and  _43
REMARK    7  A    between atoms: _43  and  _46
REMARK    8  A    between atoms: _53  and  _55
REMARK                            x       y       z     vdW  Elec       q    Type
REMARK                         _______ _______ _______ _____ _____    ______ ____
ROOT
ATOM     10  C   UNL     1       8.221 -20.067  12.345  0.00  0.00    +0.038 A 
ATOM     11  C   UNL     1       8.575 -18.707  12.150  0.00  0.00    +0.047 A 
ATOM     12  C   UNL     1       9.840 -18.182  12.639  0.00  0.00    +0.035 A 
ATOM     32  C   UNL     1      10.723 -19.070  13.320  0.00  0.00    +0.024 A 
ATOM     33  C   UNL     1      10.378 -20.455  13.528  0.00  0.00    +0.007 A 
ATOM     34  C   UNL     1       9.130 -20.978  13.050  0.00  0.00    -0.029 A 
ATOM     35  C   UNL     1       8.810 -22.469  13.307  0.00  0.00    +0.045 C 
ENDROOT
BRANCH  10   9
ATOM      4  C   UNL     1       3.458 -20.567  12.671  0.00  0.00    +0.077 A 
ATOM      5  C   UNL     1       3.415 -19.896  13.939  0.00  0.00    +0.048 A 
ATOM      6  C   UNL     1       4.642 -19.444  14.475  0.00  0.00    +0.116 A 
ATOM      7  N   UNL     1       5.817 -19.652  13.787  0.00  0.00    -0.223 NA
ATOM      8  C   UNL     1       5.824 -20.304  12.568  0.00  0.00    +0.220 A 
ATOM      9  N   UNL     1       6.993 -20.518  11.855  0.00  0.00    -0.283 N 
ATOM     36  H   UNL     1       6.957 -21.010  10.962  0.00  0.00    +0.155 HD
ATOM     37  N   UNL     1       4.666 -20.747  12.035  0.00  0.00    -0.214 NA
BRANCH   4   3
ATOM      1  C   UNL     1       0.889 -22.971  10.963  0.00  0.00    +0.020 A 
ATOM      2  C   UNL     1       2.079 -22.508  11.638  0.00  0.00    +0.013 A 
ATOM      3  C   UNL     1       2.246 -21.100  11.973  0.00  0.00    +0.019 A 
ATOM     38  C   UNL     1       1.179 -20.178  11.610  0.00  0.00    +0.120 A 
ATOM     39  N   UNL     1       0.045 -20.653  10.960  0.00  0.00    -0.263 NA
ATOM     40  C   UNL     1      -0.126 -22.006  10.630  0.00  0.00    +0.111 A 
ENDBRANCH   4   3
ENDBRANCH  10   9
BRANCH  12  13
ATOM     13  N   UNL     1      10.250 -16.809  12.477  0.00  0.00    -0.281 N 
ATOM     14  C   UNL     1       9.565 -15.666  12.855  0.00  0.00    +0.248 C 
ATOM     30  O   UNL     1       8.393 -15.644  13.199  0.00  0.00    -0.270 OA
ATOM     31  H   UNL     1      11.155 -16.662  12.030  0.00  0.00    +0.155 HD
BRANCH  14  15
ATOM     15  C   UNL     1      10.282 -14.354  12.835  0.00  0.00    +0.037 A 
ATOM     16  C   UNL     1       9.876 -13.252  13.710  0.00  0.00    +0.013 A 
ATOM     17  C   UNL     1      10.574 -11.992  13.658  0.00  0.00    +0.005 A 
ATOM     18  C   UNL     1      11.688 -11.828  12.727  0.00  0.00    -0.033 A 
ATOM     28  C   UNL     1      12.073 -12.940  11.873  0.00  0.00    +0.005 A 
ATOM     29  C   UNL     1      11.391 -14.176  11.921  0.00  0.00    +0.013 A 
BRANCH  18  19
ATOM     19  C   UNL     1      12.476 -10.512  12.589  0.00  0.00    +0.119 C 
BRANCH  19  20
ATOM     20  N   UNL     1      13.696 -10.354  13.436  0.00  0.00    -0.302 NA
ATOM     21  C   UNL     1      13.441  -9.453  14.647  0.00  0.00    +0.066 C 
ATOM     22  C   UNL     1      14.722  -9.316  15.534  0.00  0.00    -0.064 C 
ATOM     23  N   UNL     1      15.871  -8.770  14.685  0.00  0.00    +0.379 N 
ATOM     24  C   UNL     1      17.060  -8.586  15.530  0.00  0.00    -0.096 C 
ATOM     25  H   UNL     1      15.565  -7.767  14.307  0.00  0.00    -0.082 HD
ATOM     26  C   UNL     1      16.129  -9.659  13.477  0.00  0.00    -0.064 C 
ATOM     27  C   UNL     1      14.843  -9.812  12.618  0.00  0.00    +0.066 C 
ENDBRANCH  19  20
ENDBRANCH  18  19
ENDBRANCH  14  15
ENDBRANCH  12  13
TORSDOF 6
ENDMDL
MODEL 3
REMARK VINA RESULT:      -7.7      7.820     13.916
REMARK  Name = C:\Users\Docking\Desktop\test protocol\1iep_ligandH.pdb
REMARK  8 active torsions:
REMARK  status: ('A' for Active; 'I' for Inactive)
REMARK    1  A    between atoms: _5  and  _11
REMARK    2  A    between atoms: _19  and  _21
REMARK    3  A    between atoms: _22  and  _66
REMARK    4  A    between atoms: _27  and  _30
REMARK    5  A    between atoms: _32  and  _33
REMARK    6  A    between atoms: _38  and  _43
REMARK    7  A    between atoms: _43  and  _46
REMARK    8  A    between atoms: _53  and  _55
REMARK                            x       y       z     vdW  Elec       q    Type
REMARK                         _______ _______ _______ _____ _____    ______ ____
ROOT
ATOM     10  C   UNL     1      -6.605 -25.096  14.019  0.00  0.00    +0.038 A 
ATOM     11  C   UNL     1      -7.489 -24.978  15.122  0.00  0.00    +0.047 A 
ATOM     12  C   UNL     1      -8.614 -25.885  15.286  0.00  0.00    +0.035 A 
ATOM     32  C   UNL     1      -8.808 -26.904  14.308  0.00  0.00    +0.024 A 
ATOM     33  C   UNL     1      -7.920 -27.038  13.180  0.00  0.00    +0.007 A 
ATOM     34  C   UNL     1      -6.810 -26.144  13.012  0.00  0.00    -0.029 A 
ATOM     35  C   UNL     1      -5.894 -26.330  11.780  0.00  0.00    +0.045 C 
ENDROOT
BRANCH  10   9
ATOM      4  C   UNL     1      -4.672 -20.993  12.449  0.00  0.00    +0.077 A 
ATOM      5  C   UNL     1      -5.875 -20.621  11.762  0.00  0.00    +0.048 A 
ATOM      6  C   UNL     1      -6.966 -21.516  11.831  0.00  0.00    +0.116 A 
ATOM      7  N   UNL     1      -6.851 -22.693  12.539  0.00  0.00    -0.223 NA
ATOM      8  C   UNL     1      -5.676 -23.023  13.188  0.00  0.00    +0.220 A 
ATOM      9  N   UNL     1      -5.541 -24.198  13.912  0.00  0.00    -0.283 N 
ATOM     36  H   UNL     1      -4.655 -24.408  14.371  0.00  0.00    +0.155 HD
ATOM     37  N   UNL     1      -4.619 -22.186  13.136  0.00  0.00    -0.214 NA
BRANCH   4   3
ATOM      1  C   UNL     1      -1.227 -19.394  11.513  0.00  0.00    +0.020 A 
ATOM      2  C   UNL     1      -2.403 -20.231  11.445  0.00  0.00    +0.013 A 
ATOM      3  C   UNL     1      -3.434 -20.151  12.471  0.00  0.00    +0.019 A 
ATOM     38  C   UNL     1      -3.244 -19.207  13.562  0.00  0.00    +0.120 A 
ATOM     39  N   UNL     1      -2.100 -18.416  13.603  0.00  0.00    -0.263 NA
ATOM     40  C   UNL     1      -1.100 -18.485  12.621  0.00  0.00    +0.111 A 
ENDBRANCH   4   3
ENDBRANCH  10   9
BRANCH  12  13
ATOM     13  N   UNL     1      -9.550 -25.808  16.380  0.00  0.00    -0.281 N 
ATOM     14  C   UNL     1      -9.500 -26.479  17.591  0.00  0.00    +0.248 C 
ATOM     30  O   UNL     1      -8.752 -27.415  17.833  0.00  0.00    -0.270 OA
ATOM     31  H   UNL     1     -10.345 -25.184  16.246  0.00  0.00    +0.155 HD
BRANCH  14  15
ATOM     15  C   UNL     1     -10.425 -26.059  18.688  0.00  0.00    +0.037 A 
ATOM     16  C   UNL     1     -11.860 -26.350  18.625  0.00  0.00    +0.013 A 
ATOM     17  C   UNL     1     -12.732 -25.918  19.688  0.00  0.00    +0.005 A 
ATOM     18  C   UNL     1     -12.171 -25.193  20.825  0.00  0.00    -0.033 A 
ATOM     28  C   UNL     1     -10.744 -24.922  20.864  0.00  0.00    +0.005 A 
ATOM     29  C   UNL     1      -9.886 -25.343  19.824  0.00  0.00    +0.013 A 
BRANCH  18  19
ATOM     19  C   UNL     1     -13.031 -24.676  21.994  0.00  0.00    +0.119 C 
BRANCH  19  20
ATOM     20  N   UNL     1     -13.195 -23.197  22.120  0.00  0.00    -0.302 NA
ATOM     21  C   UNL     1     -13.414 -22.766  23.573  0.00  0.00    +0.066 C 
ATOM     22  C   UNL     1     -13.561 -21.214  23.690  0.00  0.00    -0.064 C 
ATOM     23  N   UNL     1     -14.718 -20.746  22.806  0.00  0.00    +0.379 N 
ATOM     24  C   UNL     1     -14.896 -19.294  22.959  0.00  0.00    -0.096 C 
ATOM     25  H   UNL     1     -15.647 -21.241  23.174  0.00  0.00    -0.082 HD
ATOM     26  C   UNL     1     -14.510 -21.173  21.360  0.00  0.00    -0.064 C 
ATOM     27  C   UNL     1     -14.335 -22.714  21.258  0.00  0.00    +0.066 C 
ENDBRANCH  19  20
ENDBRANCH  18  19
ENDBRANCH  14  15
ENDBRANCH  12  13
TORSDOF 6
ENDMDL
MODEL 4
REMARK VINA RESULT:      -7.7     17.380     21.129
REMARK  Name = C:\Users\Docking\Desktop\test protocol\1iep_ligandH.pdb
REMARK  8 active torsions:
REMARK  status: ('A' for Active; 'I' for Inactive)
REMARK    1  A    between atoms: _5  and  _11
REMARK    2  A    between atoms: _19  and  _21
REMARK    3  A    between atoms: _22  and  _66
REMARK    4  A    between atoms: _27  and  _30
REMARK    5  A    between atoms: _32  and  _33
REMARK    6  A    between atoms: _38  and  _43
REMARK    7  A    between atoms: _43  and  _46
REMARK    8  A    between atoms: _53  and  _55
REMARK                            x       y       z     vdW  Elec       q    Type
REMARK                         _______ _______ _______ _____ _____    ______ ____
ROOT
ATOM     10  C   UNL     1     -16.122 -20.412  20.378  0.00  0.00    +0.038 A 
ATOM     11  C   UNL     1     -14.819 -20.963  20.480  0.00  0.00    +0.047 A 
ATOM     12  C   UNL     1     -14.610 -22.316  20.973  0.00  0.00    +0.035 A 
ATOM     32  C   UNL     1     -15.752 -23.081  21.350  0.00  0.00    +0.024 A 
ATOM     33  C   UNL     1     -17.084 -22.537  21.253  0.00  0.00    +0.007 A 
ATOM     34  C   UNL     1     -17.296 -21.202  20.771  0.00  0.00    -0.029 A 
ATOM     35  C   UNL     1     -18.745 -20.668  20.694  0.00  0.00    +0.045 C 
ENDROOT
BRANCH  10   9
ATOM      4  C   UNL     1     -17.052 -17.270  16.871  0.00  0.00    +0.077 A 
ATOM      5  C   UNL     1     -17.243 -18.314  15.906  0.00  0.00    +0.048 A 
ATOM      6  C   UNL     1     -17.087 -19.646  16.351  0.00  0.00    +0.116 A 
ATOM      7  N   UNL     1     -16.763 -19.903  17.665  0.00  0.00    -0.223 NA
ATOM      8  C   UNL     1     -16.583 -18.873  18.570  0.00  0.00    +0.220 A 
ATOM      9  N   UNL     1     -16.265 -19.108  19.898  0.00  0.00    -0.283 N 
ATOM     36  H   UNL     1     -16.133 -18.321  20.533  0.00  0.00    +0.155 HD
ATOM     37  N   UNL     1     -16.726 -17.592  18.169  0.00  0.00    -0.214 NA
BRANCH   4   3
ATOM      1  C   UNL     1     -17.293 -13.382  17.218  0.00  0.00    +0.020 A 
ATOM      2  C   UNL     1     -17.160 -14.775  17.577  0.00  0.00    +0.013 A 
ATOM      3  C   UNL     1     -17.186 -15.813  16.554  0.00  0.00    +0.019 A 
ATOM     38  C   UNL     1     -17.348 -15.405  15.167  0.00  0.00    +0.120 A 
ATOM     39  N   UNL     1     -17.475 -14.056  14.852  0.00  0.00    -0.263 NA
ATOM     40  C   UNL     1     -17.454 -13.048  15.827  0.00  0.00    +0.111 A 
ENDBRANCH   4   3
ENDBRANCH  10   9
BRANCH  12  13
ATOM     13  N   UNL     1     -13.310 -22.925  21.106  0.00  0.00    -0.281 N 
ATOM     14  C   UNL     1     -12.656 -23.289  22.272  0.00  0.00    +0.248 C 
ATOM     30  O   UNL     1     -13.002 -22.949  23.393  0.00  0.00    -0.270 OA
ATOM     31  H   UNL     1     -12.812 -23.111  20.236  0.00  0.00    +0.155 HD
BRANCH  14  15
ATOM     15  C   UNL     1     -11.433 -24.143  22.177  0.00  0.00    +0.037 A 
ATOM     16  C   UNL     1     -10.886 -24.821  23.355  0.00  0.00    +0.013 A 
ATOM     17  C   UNL     1      -9.695 -25.625  23.239  0.00  0.00    +0.005 A 
ATOM     18  C   UNL     1      -9.044 -25.757  21.937  0.00  0.00    -0.033 A 
ATOM     28  C   UNL     1      -9.612 -25.078  20.784  0.00  0.00    +0.005 A 
ATOM     29  C   UNL     1     -10.778 -24.289  20.894  0.00  0.00    +0.013 A 
BRANCH  18  19
ATOM     19  C   UNL     1      -7.758 -26.577  21.725  0.00  0.00    +0.119 C 
BRANCH  19  20
ATOM     20  N   UNL     1      -7.910 -28.051  21.539  0.00  0.00    -0.302 NA
ATOM     21  C   UNL     1      -7.113 -28.846  22.577  0.00  0.00    +0.066 C 
ATOM     22  C   UNL     1      -7.301 -30.386  22.381  0.00  0.00    -0.064 C 
ATOM     23  N   UNL     1      -6.880 -30.773  20.962  0.00  0.00    +0.379 N 
ATOM     24  C   UNL     1      -7.001 -32.228  20.794  0.00  0.00    -0.096 C 
ATOM     25  H   UNL     1      -5.804 -30.507  20.845  0.00  0.00    -0.082 HD
ATOM     26  C   UNL     1      -7.666 -29.985  19.924  0.00  0.00    -0.064 C 
ATOM     27  C   UNL     1      -7.496 -28.456  20.145  0.00  0.00    +0.066 C 
ENDBRANCH  19  20
ENDBRANCH  18  19
ENDBRANCH  14  15
ENDBRANCH  12  13
TORSDOF 6
ENDMDL
MODEL 5
REMARK VINA RESULT:      -7.7     17.375     20.730
REMARK  Name = C:\Users\Docking\Desktop\test protocol\1iep_ligandH.pdb
REMARK  8 active torsions:
REMARK  status: ('A' for Active; 'I' for Inactive)
REMARK    1  A    between atoms: _5  and  _11
REMARK    2  A    between atoms: _19  and  _21
REMARK    3  A    between atoms: _22  and  _66
REMARK    4  A    between atoms: _27  and  _30
REMARK    5  A    between atoms: _32  and  _33
REMARK    6  A    between atoms: _38  and  _43
REMARK    7  A    between atoms: _43  and  _46
REMARK    8  A    between atoms: _53  and  _55
REMARK                            x       y       z     vdW  Elec       q    Type
REMARK                         _______ _______ _______ _____ _____    ______ ____
ROOT
ATOM     10  C   UNL     1     -14.741 -21.749  21.781  0.00  0.00    +0.038 A 
ATOM     11  C   UNL     1     -14.841 -20.751  20.778  0.00  0.00    +0.047 A 
ATOM     12  C   UNL     1     -16.078 -20.015  20.571  0.00  0.00    +0.035 A 
ATOM     32  C   UNL     1     -17.194 -20.319  21.405  0.00  0.00    +0.024 A 
ATOM     33  C   UNL     1     -17.110 -21.331  22.428  0.00  0.00    +0.007 A 
ATOM     34  C   UNL     1     -15.893 -22.063  22.635  0.00  0.00    -0.029 A 
ATOM     35  C   UNL     1     -15.862 -23.141  23.743  0.00  0.00    +0.045 C 
ENDROOT
BRANCH  10   9
ATOM      4  C   UNL     1     -11.623 -25.186  20.553  0.00  0.00    +0.077 A 
ATOM      5  C   UNL     1     -12.494 -25.694  19.533  0.00  0.00    +0.048 A 
ATOM      6  C   UNL     1     -13.738 -25.047  19.361  0.00  0.00    +0.116 A 
ATOM      7  N   UNL     1     -14.076 -23.973  20.155  0.00  0.00    -0.223 NA
ATOM      8  C   UNL     1     -13.213 -23.509  21.132  0.00  0.00    +0.220 A 
ATOM      9  N   UNL     1     -13.529 -22.425  21.937  0.00  0.00    -0.283 N 
ATOM     36  H   UNL     1     -12.869 -22.119  22.651  0.00  0.00    +0.155 HD
ATOM     37  N   UNL     1     -12.020 -24.110  21.317  0.00  0.00    -0.214 NA
BRANCH   4   3
ATOM      1  C   UNL     1      -8.086 -25.791  22.110  0.00  0.00    +0.020 A 
ATOM      2  C   UNL     1      -9.379 -25.198  21.858  0.00  0.00    +0.013 A 
ATOM      3  C   UNL     1     -10.274 -25.760  20.854  0.00  0.00    +0.019 A 
ATOM     38  C   UNL     1      -9.827 -26.933  20.118  0.00  0.00    +0.120 A 
ATOM     39  N   UNL     1      -8.576 -27.482  20.381  0.00  0.00    -0.263 NA
ATOM     40  C   UNL     1      -7.705 -26.948  21.343  0.00  0.00    +0.111 A 
ENDBRANCH   4   3
ENDBRANCH  10   9
BRANCH  12  13
ATOM     13  N   UNL     1     -16.242 -18.996  19.563  0.00  0.00    -0.281 N 
ATOM     14  C   UNL     1     -16.583 -19.163  18.231  0.00  0.00    +0.248 C 
ATOM     30  O   UNL     1     -16.590 -20.237  17.649  0.00  0.00    -0.270 OA
ATOM     31  H   UNL     1     -16.088 -18.035  19.870  0.00  0.00    +0.155 HD
BRANCH  14  15
ATOM     15  C   UNL     1     -16.955 -17.961  17.425  0.00  0.00    +0.037 A 
ATOM     16  C   UNL     1     -17.893 -18.058  16.304  0.00  0.00    +0.013 A 
ATOM     17  C   UNL     1     -18.222 -16.886  15.532  0.00  0.00    +0.005 A 
ATOM     18  C   UNL     1     -17.613 -15.605  15.880  0.00  0.00    -0.033 A 
ATOM     28  C   UNL     1     -16.689 -15.536  17.001  0.00  0.00    +0.005 A 
ATOM     29  C   UNL     1     -16.363 -16.682  17.759  0.00  0.00    +0.013 A 
BRANCH  18  19
ATOM     19  C   UNL     1     -17.889 -14.307  15.099  0.00  0.00    +0.119 C 
BRANCH  19  20
ATOM     20  N   UNL     1     -16.747 -13.702  14.352  0.00  0.00    -0.302 NA
ATOM     21  C   UNL     1     -16.749 -12.173  14.439  0.00  0.00    +0.066 C 
ATOM     22  C   UNL     1     -15.534 -11.557  13.671  0.00  0.00    -0.064 C 
ATOM     23  N   UNL     1     -15.570 -12.017  12.212  0.00  0.00    +0.379 N 
ATOM     24  C   UNL     1     -14.462 -11.393  11.474  0.00  0.00    -0.096 C 
ATOM     25  H   UNL     1     -16.524 -11.650  11.766  0.00  0.00    -0.082 HD
ATOM     26  C   UNL     1     -15.571 -13.536  12.117  0.00  0.00    -0.064 C 
ATOM     27  C   UNL     1     -16.765 -14.139  12.908  0.00  0.00    +0.066 C 
ENDBRANCH  19  20
ENDBRANCH  18  19
ENDBRANCH  14  15
ENDBRANCH  12  13
TORSDOF 6
ENDMDL
