MODEL 1
REMARK VINA RESULT:      -7.9      0.000      0.000
REMARK  Name = C:\Users\Docking\Desktop\test protocol\1iep_ligandH.pdb
REMARK  8 active torsions:
REMARK  status: ('A' for Active; 'I' for Inactive)
REMARK    1  A    between atoms: _5  and  _11
REMARK    2  A    between atoms: _19  and  _21
REMARK    3  A    between atoms: _22  and  _66
REMARK    4  A    between atoms: _27  and  _30
REMARK    5  A    between atoms: _32  and  _33
REMARK    6  A    between atoms: _38  and  _43
REMARK    7  A    between atoms: _43  and  _46
REMARK    8  A    between atoms: _53  and  _55
REMARK                            x       y       z     vdW  Elec       q    Type
REMARK                         _______ _______ _______ _____ _____    ______ ____
ROOT
ATOM     10  C   UNL     1       4.710 -14.416  32.479  0.00  0.00    +0.038 A 
ATOM     11  C   UNL     1       3.458 -14.900  32.021  0.00  0.00    +0.047 A 
ATOM     12  C   UNL     1       2.253 -14.744  32.821  0.00  0.00    +0.035 A 
ATOM     32  C   UNL     1       2.359 -14.088  34.081  0.00  0.00    +0.024 A 
ATOM     33  C   UNL     1       3.624 -13.591  34.563  0.00  0.00    +0.007 A 
ATOM     34  C   UNL     1       4.816 -13.743  33.779  0.00  0.00    -0.029 A 
ATOM     35  C   UNL     1       6.147 -13.197  34.348  0.00  0.00    +0.045 C 
ENDROOT
BRANCH  10   9
ATOM      4  C   UNL     1       8.593 -16.882  31.108  0.00  0.00    +0.077 A 
ATOM      5  C   UNL     1       8.377 -17.890  32.105  0.00  0.00    +0.048 A 
ATOM      6  C   UNL     1       7.260 -17.733  32.955  0.00  0.00    +0.116 A 
ATOM      7  N   UNL     1       6.427 -16.646  32.810  0.00  0.00    -0.223 NA
ATOM      8  C   UNL     1       6.664 -15.690  31.839  0.00  0.00    +0.220 A 
ATOM      9  N   UNL     1       5.835 -14.592  31.670  0.00  0.00    -0.283 N 
ATOM     36  H   UNL     1       6.048 -13.906  30.947  0.00  0.00    +0.155 HD
ATOM     37  N   UNL     1       7.725 -15.816  31.015  0.00  0.00    -0.214 NA
BRANCH   4   3
ATOM      1  C   UNL     1      10.811 -17.663  27.982  0.00  0.00    +0.020 A 
ATOM      2  C   UNL     1       9.688 -17.671  28.890  0.00  0.00    +0.013 A 
ATOM      3  C   UNL     1       9.728 -16.909  30.132  0.00  0.00    +0.019 A 
ATOM     38  C   UNL     1      10.930 -16.143  30.427  0.00  0.00    +0.120 A 
ATOM     39  N   UNL     1      11.997 -16.155  29.535  0.00  0.00    -0.263 NA
ATOM     40  C   UNL     1      11.970 -16.886  28.337  0.00  0.00    +0.111 A 
ENDBRANCH   4   3
ENDBRANCH  10   9
BRANCH  12  13
ATOM     13  N   UNL     1       0.956 -15.222  32.411  0.00  0.00    -0.281 N 
ATOM     14  C   UNL     1      -0.085 -14.494  31.858  0.00  0.00    +0.248 C 
ATOM     30  O   UNL     1      -0.135 -13.273  31.829  0.00  0.00    -0.270 OA
ATOM     31  H   UNL     1       0.784 -16.219  32.546  0.00  0.00    +0.155 HD
BRANCH  14  15
ATOM     15  C   UNL     1      -1.244 -15.227  31.265  0.00  0.00    +0.037 A 
ATOM     16  C   UNL     1      -2.123 -14.590  30.281  0.00  0.00    +0.013 A 
ATOM     17  C   UNL     1      -3.245 -15.315  29.738  0.00  0.00    +0.005 A 
ATOM     18  C   UNL     1      -3.493 -16.686  30.177  0.00  0.00    -0.033 A 
ATOM     28  C   UNL     1      -2.602 -17.295  31.150  0.00  0.00    +0.005 A 
ATOM     29  C   UNL     1      -1.502 -16.588  31.686  0.00  0.00    +0.013 A 
BRANCH  18  19
ATOM     19  C   UNL     1      -4.678 -17.526  29.666  0.00  0.00    +0.119 C 
BRANCH  19  20
ATOM     20  N   UNL     1      -5.748 -17.869  30.650  0.00  0.00    -0.302 NA
ATOM     21  C   UNL     1      -6.642 -19.008  30.152  0.00  0.00    +0.066 C 
ATOM     22  C   UNL     1      -7.742 -19.369  31.203  0.00  0.00    -0.064 C 
ATOM     23  N   UNL     1      -8.574 -18.123  31.515  0.00  0.00    +0.379 N 
ATOM     24  C   UNL     1      -9.645 -18.472  32.459  0.00  0.00    -0.096 C 
ATOM     25  H   UNL     1      -9.054 -17.792  30.565  0.00  0.00    -0.082 HD
ATOM     26  C   UNL     1      -7.691 -16.985  32.008  0.00  0.00    -0.064 C 
ATOM     27  C   UNL     1      -6.584 -16.654  30.969  0.00  0.00    +0.066 C 
ENDBRANCH  19  20
ENDBRANCH  18  19
ENDBRANCH  14  15
ENDBRANCH  12  13
TORSDOF 6
ENDMDL
MODEL 2
REMARK VINA RESULT:      -7.9      1.624      2.495
REMARK  Name = C:\Users\Docking\Desktop\test protocol\1iep_ligandH.pdb
REMARK  8 active torsions:
REMARK  status: ('A' for Active; 'I' for Inactive)
REMARK    1  A    between atoms: _5  and  _11
REMARK    2  A    between atoms: _19  and  _21
REMARK    3  A    between atoms: _22  and  _66
REMARK    4  A    between atoms: _27  and  _30
REMARK    5  A    between atoms: _32  and  _33
REMARK    6  A    between atoms: _38  and  _43
REMARK    7  A    between atoms: _43  and  _46
REMARK    8  A    between atoms: _53  and  _55
REMARK                            x       y       z     vdW  Elec       q    Type
REMARK                         _______ _______ _______ _____ _____    ______ ____
ROOT
ATOM     10  C   UNL     1       6.948 -14.203  32.339  0.00  0.00    +0.038 A 
ATOM     11  C   UNL     1       5.622 -14.358  31.858  0.00  0.00    +0.047 A 
ATOM     12  C   UNL     1       4.477 -13.986  32.675  0.00  0.00    +0.035 A 
ATOM     32  C   UNL     1       4.720 -13.456  33.976  0.00  0.00    +0.024 A 
ATOM     33  C   UNL     1       6.060 -13.293  34.480  0.00  0.00    +0.007 A 
ATOM     34  C   UNL     1       7.193 -13.661  33.680  0.00  0.00    -0.029 A 
ATOM     35  C   UNL     1       8.608 -13.471  34.275  0.00  0.00    +0.045 C 
ENDROOT
BRANCH  10   9
ATOM      4  C   UNL     1       9.831 -17.506  30.384  0.00  0.00    +0.077 A 
ATOM      5  C   UNL     1       9.184 -18.574  31.090  0.00  0.00    +0.048 A 
ATOM      6  C   UNL     1       8.118 -18.230  31.952  0.00  0.00    +0.116 A 
ATOM      7  N   UNL     1       7.736 -16.914  32.089  0.00  0.00    -0.223 NA
ATOM      8  C   UNL     1       8.382 -15.907  31.395  0.00  0.00    +0.220 A 
ATOM      9  N   UNL     1       8.010 -14.577  31.512  0.00  0.00    -0.283 N 
ATOM     36  H   UNL     1       8.516 -13.864  30.989  0.00  0.00    +0.155 HD
ATOM     37  N   UNL     1       9.404 -16.209  30.567  0.00  0.00    -0.214 NA
BRANCH   4   3
ATOM      1  C   UNL     1      11.953 -17.830  27.115  0.00  0.00    +0.020 A 
ATOM      2  C   UNL     1      10.820 -17.626  27.987  0.00  0.00    +0.013 A 
ATOM      3  C   UNL     1      10.970 -17.709  29.435  0.00  0.00    +0.019 A 
ATOM     38  C   UNL     1      12.291 -18.002  29.971  0.00  0.00    +0.120 A 
ATOM     39  N   UNL     1      13.363 -18.196  29.106  0.00  0.00    -0.263 NA
ATOM     40  C   UNL     1      13.231 -18.120  27.711  0.00  0.00    +0.111 A 
ENDBRANCH   4   3
ENDBRANCH  10   9
BRANCH  12  13
ATOM     13  N   UNL     1       3.109 -14.127  32.243  0.00  0.00    -0.281 N 
ATOM     14  C   UNL     1       2.082 -14.807  32.878  0.00  0.00    +0.248 C 
ATOM     30  O   UNL     1       2.238 -15.580  33.812  0.00  0.00    -0.270 OA
ATOM     31  H   UNL     1       2.868 -13.672  31.363  0.00  0.00    +0.155 HD
BRANCH  14  15
ATOM     15  C   UNL     1       0.681 -14.611  32.397  0.00  0.00    +0.037 A 
ATOM     16  C   UNL     1       0.399 -13.907  31.143  0.00  0.00    +0.013 A 
ATOM     17  C   UNL     1      -0.962 -13.716  30.711  0.00  0.00    +0.005 A 
ATOM     18  C   UNL     1      -2.054 -14.232  31.533  0.00  0.00    -0.033 A 
ATOM     28  C   UNL     1      -1.746 -14.931  32.770  0.00  0.00    +0.005 A 
ATOM     29  C   UNL     1      -0.413 -15.119  33.198  0.00  0.00    +0.013 A 
BRANCH  18  19
ATOM     19  C   UNL     1      -3.538 -14.056  31.160  0.00  0.00    +0.119 C 
BRANCH  19  20
ATOM     20  N   UNL     1      -4.398 -15.276  31.183  0.00  0.00    -0.302 NA
ATOM     21  C   UNL     1      -4.077 -16.227  30.026  0.00  0.00    +0.066 C 
ATOM     22  C   UNL     1      -4.971 -17.509  30.078  0.00  0.00    -0.064 C 
ATOM     23  N   UNL     1      -6.445 -17.101  30.051  0.00  0.00    +0.379 N 
ATOM     24  C   UNL     1      -7.287 -18.306  30.041  0.00  0.00    -0.096 C 
ATOM     25  H   UNL     1      -6.626 -16.553  29.097  0.00  0.00    -0.082 HD
ATOM     26  C   UNL     1      -6.772 -16.153  31.196  0.00  0.00    -0.064 C 
ATOM     27  C   UNL     1      -5.858 -14.897  31.152  0.00  0.00    +0.066 C 
ENDBRANCH  19  20
ENDBRANCH  18  19
ENDBRANCH  14  15
ENDBRANCH  12  13
TORSDOF 6
ENDMDL
MODEL 3
REMARK VINA RESULT:      -7.7     18.937     23.596
REMARK  Name = C:\Users\Docking\Desktop\test protocol\1iep_ligandH.pdb
REMARK  8 active torsions:
REMARK  status: ('A' for Active; 'I' for Inactive)
REMARK    1  A    between atoms: _5  and  _11
REMARK    2  A    between atoms: _19  and  _21
REMARK    3  A    between atoms: _22  and  _66
REMARK    4  A    between atoms: _27  and  _30
REMARK    5  A    between atoms: _32  and  _33
REMARK    6  A    between atoms: _38  and  _43
REMARK    7  A    between atoms: _43  and  _46
REMARK    8  A    between atoms: _53  and  _55
REMARK                            x       y       z     vdW  Elec       q    Type
REMARK                         _______ _______ _______ _____ _____    ______ ____
ROOT
ATOM     10  C   UNL     1     -16.156 -20.889  20.146  0.00  0.00    +0.038 A 
ATOM     11  C   UNL     1     -14.863 -21.465  20.228  0.00  0.00    +0.047 A 
ATOM     12  C   UNL     1     -14.675 -22.829  20.699  0.00  0.00    +0.035 A 
ATOM     32  C   UNL     1     -15.828 -23.578  21.075  0.00  0.00    +0.024 A 
ATOM     33  C   UNL     1     -17.150 -23.007  20.998  0.00  0.00    +0.007 A 
ATOM     34  C   UNL     1     -17.340 -21.662  20.538  0.00  0.00    -0.029 A 
ATOM     35  C   UNL     1     -18.780 -21.099  20.483  0.00  0.00    +0.045 C 
ENDROOT
BRANCH  10   9
ATOM      4  C   UNL     1     -17.064 -17.677  16.697  0.00  0.00    +0.077 A 
ATOM      5  C   UNL     1     -17.288 -18.702  15.719  0.00  0.00    +0.048 A 
ATOM      6  C   UNL     1     -17.153 -20.044  16.143  0.00  0.00    +0.116 A 
ATOM      7  N   UNL     1     -16.818 -20.326  17.449  0.00  0.00    -0.223 NA
ATOM      8  C   UNL     1     -16.607 -19.313  18.367  0.00  0.00    +0.220 A 
ATOM      9  N   UNL     1     -16.278 -19.575  19.687  0.00  0.00    -0.283 N 
ATOM     36  H   UNL     1     -16.123 -18.800  20.332  0.00  0.00    +0.155 HD
ATOM     37  N   UNL     1     -16.729 -18.024  17.986  0.00  0.00    -0.214 NA
BRANCH   4   3
ATOM      1  C   UNL     1     -17.112 -13.785  17.086  0.00  0.00    +0.020 A 
ATOM      2  C   UNL     1     -16.997 -15.185  17.422  0.00  0.00    +0.013 A 
ATOM      3  C   UNL     1     -17.172 -16.213  16.403  0.00  0.00    +0.019 A 
ATOM     38  C   UNL     1     -17.464 -15.786  15.043  0.00  0.00    +0.120 A 
ATOM     39  N   UNL     1     -17.570 -14.430  14.749  0.00  0.00    -0.263 NA
ATOM     40  C   UNL     1     -17.405 -13.433  15.722  0.00  0.00    +0.111 A 
ENDBRANCH   4   3
ENDBRANCH  10   9
BRANCH  12  13
ATOM     13  N   UNL     1     -13.386 -23.465  20.811  0.00  0.00    -0.281 N 
ATOM     14  C   UNL     1     -12.689 -23.779  21.966  0.00  0.00    +0.248 C 
ATOM     30  O   UNL     1     -12.976 -23.366  23.080  0.00  0.00    -0.270 OA
ATOM     31  H   UNL     1     -12.932 -23.713  19.932  0.00  0.00    +0.155 HD
BRANCH  14  15
ATOM     15  C   UNL     1     -11.493 -24.670  21.868  0.00  0.00    +0.037 A 
ATOM     16  C   UNL     1     -11.049 -25.475  23.009  0.00  0.00    +0.013 A 
ATOM     17  C   UNL     1      -9.882 -26.313  22.893  0.00  0.00    +0.005 A 
ATOM     18  C   UNL     1      -9.151 -26.351  21.629  0.00  0.00    -0.033 A 
ATOM     28  C   UNL     1      -9.616 -25.546  20.512  0.00  0.00    +0.005 A 
ATOM     29  C   UNL     1     -10.759 -24.723  20.622  0.00  0.00    +0.013 A 
BRANCH  18  19
ATOM     19  C   UNL     1      -7.883 -27.200  21.422  0.00  0.00    +0.119 C 
BRANCH  19  20
ATOM     20  N   UNL     1      -8.060 -28.678  21.312  0.00  0.00    -0.302 NA
ATOM     21  C   UNL     1      -7.226 -29.436  22.348  0.00  0.00    +0.066 C 
ATOM     22  C   UNL     1      -7.441 -30.980  22.234  0.00  0.00    -0.064 C 
ATOM     23  N   UNL     1      -7.090 -31.437  20.817  0.00  0.00    +0.379 N 
ATOM     24  C   UNL     1      -7.236 -32.897  20.722  0.00  0.00    -0.096 C 
ATOM     25  H   UNL     1      -6.017 -31.192  20.639  0.00  0.00    -0.082 HD
ATOM     26  C   UNL     1      -7.913 -30.687  19.780  0.00  0.00    -0.064 C 
ATOM     27  C   UNL     1      -7.715 -29.152  19.922  0.00  0.00    +0.066 C 
ENDBRANCH  19  20
ENDBRANCH  18  19
ENDBRANCH  14  15
ENDBRANCH  12  13
TORSDOF 6
ENDMDL
MODEL 4
REMARK VINA RESULT:      -7.7      2.786      3.370
REMARK  Name = C:\Users\Docking\Desktop\test protocol\1iep_ligandH.pdb
REMARK  8 active torsions:
REMARK  status: ('A' for Active; 'I' for Inactive)
REMARK    1  A    between atoms: _5  and  _11
REMARK    2  A    between atoms: _19  and  _21
REMARK    3  A    between atoms: _22  and  _66
REMARK    4  A    between atoms: _27  and  _30
REMARK    5  A    between atoms: _32  and  _33
REMARK    6  A    between atoms: _38  and  _43
REMARK    7  A    between atoms: _43  and  _46
REMARK    8  A    between atoms: _53  and  _55
REMARK                            x       y       z     vdW  Elec       q    Type
REMARK                         _______ _______ _______ _____ _____    ______ ____
ROOT
ATOM     10  C   UNL     1       6.891 -14.308  32.244  0.00  0.00    +0.038 A 
ATOM     11  C   UNL     1       5.575 -14.515  31.759  0.00  0.00    +0.047 A 
ATOM     12  C   UNL     1       4.413 -14.158  32.559  0.00  0.00    +0.035 A 
ATOM     32  C   UNL     1       4.630 -13.590  33.848  0.00  0.00    +0.024 A 
ATOM     33  C   UNL     1       5.962 -13.374  34.357  0.00  0.00    +0.007 A 
ATOM     34  C   UNL     1       7.111 -13.727  33.573  0.00  0.00    -0.029 A 
ATOM     35  C   UNL     1       8.515 -13.479  34.172  0.00  0.00    +0.045 C 
ENDROOT
BRANCH  10   9
ATOM      4  C   UNL     1       9.905 -17.563  30.411  0.00  0.00    +0.077 A 
ATOM      5  C   UNL     1       9.297 -18.630  31.151  0.00  0.00    +0.048 A 
ATOM      6  C   UNL     1       8.216 -18.299  31.998  0.00  0.00    +0.116 A 
ATOM      7  N   UNL     1       7.783 -16.993  32.089  0.00  0.00    -0.223 NA
ATOM      8  C   UNL     1       8.393 -15.987  31.363  0.00  0.00    +0.220 A 
ATOM      9  N   UNL     1       7.970 -14.669  31.433  0.00  0.00    -0.283 N 
ATOM     36  H   UNL     1       8.451 -13.955  30.887  0.00  0.00    +0.155 HD
ATOM     37  N   UNL     1       9.429 -16.278  30.548  0.00  0.00    -0.214 NA
BRANCH   4   3
ATOM      1  C   UNL     1      13.492 -18.186  28.979  0.00  0.00    +0.020 A 
ATOM      2  C   UNL     1      12.417 -18.008  29.927  0.00  0.00    +0.013 A 
ATOM      3  C   UNL     1      11.056 -17.755  29.472  0.00  0.00    +0.019 A 
ATOM     38  C   UNL     1      10.814 -17.690  28.038  0.00  0.00    +0.120 A 
ATOM     39  N   UNL     1      11.869 -17.864  27.148  0.00  0.00    -0.263 NA
ATOM     40  C   UNL     1      13.183 -18.106  27.575  0.00  0.00    +0.111 A 
ENDBRANCH   4   3
ENDBRANCH  10   9
BRANCH  12  13
ATOM     13  N   UNL     1       3.053 -14.352  32.123  0.00  0.00    -0.281 N 
ATOM     14  C   UNL     1       2.010 -14.937  32.821  0.00  0.00    +0.248 C 
ATOM     30  O   UNL     1       2.143 -15.579  33.853  0.00  0.00    -0.270 OA
ATOM     31  H   UNL     1       2.832 -14.016  31.185  0.00  0.00    +0.155 HD
BRANCH  14  15
ATOM     15  C   UNL     1       0.619 -14.802  32.290  0.00  0.00    +0.037 A 
ATOM     16  C   UNL     1       0.293 -13.816  31.257  0.00  0.00    +0.013 A 
ATOM     17  C   UNL     1      -1.060 -13.695  30.774  0.00  0.00    +0.005 A 
ATOM     18  C   UNL     1      -2.097 -14.565  31.324  0.00  0.00    -0.033 A 
ATOM     28  C   UNL     1      -1.744 -15.538  32.344  0.00  0.00    +0.005 A 
ATOM     29  C   UNL     1      -0.420 -15.659  32.821  0.00  0.00    +0.013 A 
BRANCH  18  19
ATOM     19  C   UNL     1      -3.571 -14.491  30.883  0.00  0.00    +0.119 C 
BRANCH  19  20
ATOM     20  N   UNL     1      -4.413 -13.419  31.491  0.00  0.00    -0.302 NA
ATOM     21  C   UNL     1      -5.074 -13.877  32.795  0.00  0.00    +0.066 C 
ATOM     22  C   UNL     1      -5.933 -12.736  33.430  0.00  0.00    -0.064 C 
ATOM     23  N   UNL     1      -6.987 -12.274  32.422  0.00  0.00    +0.379 N 
ATOM     24  C   UNL     1      -7.834 -11.242  33.036  0.00  0.00    -0.096 C 
ATOM     25  H   UNL     1      -7.637 -13.150  32.188  0.00  0.00    -0.082 HD
ATOM     26  C   UNL     1      -6.340 -11.820  31.121  0.00  0.00    -0.064 C 
ATOM     27  C   UNL     1      -5.464 -12.951  30.515  0.00  0.00    +0.066 C 
ENDBRANCH  19  20
ENDBRANCH  18  19
ENDBRANCH  14  15
ENDBRANCH  12  13
TORSDOF 6
ENDMDL
MODEL 5
REMARK VINA RESULT:      -7.6     18.948     20.282
REMARK  Name = C:\Users\Docking\Desktop\test protocol\1iep_ligandH.pdb
REMARK  8 active torsions:
REMARK  status: ('A' for Active; 'I' for Inactive)
REMARK    1  A    between atoms: _5  and  _11
REMARK    2  A    between atoms: _19  and  _21
REMARK    3  A    between atoms: _22  and  _66
REMARK    4  A    between atoms: _27  and  _30
REMARK    5  A    between atoms: _32  and  _33
REMARK    6  A    between atoms: _38  and  _43
REMARK    7  A    between atoms: _43  and  _46
REMARK    8  A    between atoms: _53  and  _55
REMARK                            x       y       z     vdW  Elec       q    Type
REMARK                         _______ _______ _______ _____ _____    ______ ____
ROOT
ATOM     10  C   UNL     1       6.124 -20.038  13.181  0.00  0.00    +0.038 A 
ATOM     11  C   UNL     1       4.779 -19.795  12.799  0.00  0.00    +0.047 A 
ATOM     12  C   UNL     1       3.872 -20.892  12.500  0.00  0.00    +0.035 A 
ATOM     32  C   UNL     1       4.366 -22.225  12.602  0.00  0.00    +0.024 A 
ATOM     33  C   UNL     1       5.730 -22.490  12.988  0.00  0.00    +0.007 A 
ATOM     34  C   UNL     1       6.631 -21.412  13.281  0.00  0.00    -0.029 A 
ATOM     35  C   UNL     1       8.084 -21.755  13.683  0.00  0.00    +0.045 C 
ENDROOT
BRANCH  10   9
ATOM      4  C   UNL     1       9.047 -16.489  11.805  0.00  0.00    +0.077 A 
ATOM      5  C   UNL     1       8.938 -16.855  10.422  0.00  0.00    +0.048 A 
ATOM      6  C   UNL     1       8.125 -17.967  10.108  0.00  0.00    +0.116 A 
ATOM      7  N   UNL     1       7.474 -18.654  11.110  0.00  0.00    -0.223 NA
ATOM      8  C   UNL     1       7.603 -18.276  12.433  0.00  0.00    +0.220 A 
ATOM      9  N   UNL     1       6.951 -18.947  13.456  0.00  0.00    -0.283 N 
ATOM     36  H   UNL     1       7.078 -18.642  14.421  0.00  0.00    +0.155 HD
ATOM     37  N   UNL     1       8.374 -17.218  12.760  0.00  0.00    -0.214 NA
BRANCH   4   3
ATOM      1  C   UNL     1      10.198 -13.266  13.700  0.00  0.00    +0.020 A 
ATOM      2  C   UNL     1       9.366 -14.362  13.259  0.00  0.00    +0.013 A 
ATOM      3  C   UNL     1       9.866 -15.335  12.296  0.00  0.00    +0.019 A 
ATOM     38  C   UNL     1      11.222 -15.170  11.795  0.00  0.00    +0.120 A 
ATOM     39  N   UNL     1      12.000 -14.104  12.238  0.00  0.00    -0.263 NA
ATOM     40  C   UNL     1      11.529 -13.161  13.163  0.00  0.00    +0.111 A 
ENDBRANCH   4   3
ENDBRANCH  10   9
BRANCH  12  13
ATOM     13  N   UNL     1       2.499 -20.706  12.100  0.00  0.00    -0.281 N 
ATOM     14  C   UNL     1       1.995 -20.589  10.815  0.00  0.00    +0.248 C 
ATOM     30  O   UNL     1       2.679 -20.411   9.818  0.00  0.00    -0.270 OA
ATOM     31  H   UNL     1       1.816 -20.655  12.855  0.00  0.00    +0.155 HD
BRANCH  14  15
ATOM     15  C   UNL     1       0.517 -20.665  10.609  0.00  0.00    +0.037 A 
ATOM     16  C   UNL     1      -0.106 -21.843  10.000  0.00  0.00    +0.013 A 
ATOM     17  C   UNL     1      -1.532 -21.884   9.797  0.00  0.00    +0.005 A 
ATOM     18  C   UNL     1      -2.347 -20.743  10.207  0.00  0.00    -0.033 A 
ATOM     28  C   UNL     1      -1.704 -19.589  10.814  0.00  0.00    +0.005 A 
ATOM     29  C   UNL     1      -0.306 -19.545  11.012  0.00  0.00    +0.013 A 
BRANCH  18  19
ATOM     19  C   UNL     1      -3.873 -20.691  10.010  0.00  0.00    +0.119 C 
BRANCH  19  20
ATOM     20  N   UNL     1      -4.710 -21.516  10.931  0.00  0.00    -0.302 NA
ATOM     21  C   UNL     1      -4.337 -21.294  12.400  0.00  0.00    +0.066 C 
ATOM     22  C   UNL     1      -5.237 -22.148  13.351  0.00  0.00    -0.064 C 
ATOM     23  N   UNL     1      -5.111 -23.626  12.977  0.00  0.00    +0.379 N 
ATOM     24  C   UNL     1      -5.911 -24.437  13.906  0.00  0.00    -0.096 C 
ATOM     25  H   UNL     1      -4.043 -23.917  13.107  0.00  0.00    -0.082 HD
ATOM     26  C   UNL     1      -5.478 -23.855  11.518  0.00  0.00    -0.064 C 
ATOM     27  C   UNL     1      -4.597 -22.980  10.583  0.00  0.00    +0.066 C 
ENDBRANCH  19  20
ENDBRANCH  18  19
ENDBRANCH  14  15
ENDBRANCH  12  13
TORSDOF 6
ENDMDL
