MODEL 1
REMARK VINA RESULT:      -8.4      0.000      0.000
REMARK  Name = C:\Users\Docking\Desktop\test protocol\1iep_ligandH.pdb
REMARK  8 active torsions:
REMARK  status: ('A' for Active; 'I' for Inactive)
REMARK    1  A    between atoms: _5  and  _11
REMARK    2  A    between atoms: _19  and  _21
REMARK    3  A    between atoms: _22  and  _66
REMARK    4  A    between atoms: _27  and  _30
REMARK    5  A    between atoms: _32  and  _33
REMARK    6  A    between atoms: _38  and  _43
REMARK    7  A    between atoms: _43  and  _46
REMARK    8  A    between atoms: _53  and  _55
REMARK                            x       y       z     vdW  Elec       q    Type
REMARK                         _______ _______ _______ _____ _____    ______ ____
ROOT
ATOM     10  C   UNL     1     -14.573 -21.875  21.787  0.00  0.00    +0.038 A 
ATOM     11  C   UNL     1     -14.715 -20.893  20.773  0.00  0.00    +0.047 A 
ATOM     12  C   UNL     1     -15.944 -20.128  20.633  0.00  0.00    +0.035 A 
ATOM     32  C   UNL     1     -17.009 -20.387  21.545  0.00  0.00    +0.024 A 
ATOM     33  C   UNL     1     -16.882 -21.382  22.581  0.00  0.00    +0.007 A 
ATOM     34  C   UNL     1     -15.673 -22.142  22.722  0.00  0.00    -0.029 A 
ATOM     35  C   UNL     1     -15.595 -23.200  23.846  0.00  0.00    +0.045 C 
ENDROOT
BRANCH  10   9
ATOM      4  C   UNL     1     -11.620 -25.397  20.403  0.00  0.00    +0.077 A 
ATOM      5  C   UNL     1     -12.563 -25.890  19.441  0.00  0.00    +0.048 A 
ATOM      6  C   UNL     1     -13.800 -25.213  19.339  0.00  0.00    +0.116 A 
ATOM      7  N   UNL     1     -14.062 -24.126  20.143  0.00  0.00    -0.223 NA
ATOM      8  C   UNL     1     -13.131 -23.677  21.062  0.00  0.00    +0.220 A 
ATOM      9  N   UNL     1     -13.371 -22.580  21.875  0.00  0.00    -0.283 N 
ATOM     36  H   UNL     1     -12.662 -22.285  22.545  0.00  0.00    +0.155 HD
ATOM     37  N   UNL     1     -11.944 -24.307  21.180  0.00  0.00    -0.214 NA
BRANCH   4   3
ATOM      1  C   UNL     1      -7.904 -25.932  21.501  0.00  0.00    +0.020 A 
ATOM      2  C   UNL     1      -9.190 -25.302  21.310  0.00  0.00    +0.013 A 
ATOM      3  C   UNL     1     -10.270 -26.003  20.627  0.00  0.00    +0.019 A 
ATOM     38  C   UNL     1     -10.014 -27.352  20.146  0.00  0.00    +0.120 A 
ATOM     39  N   UNL     1      -8.765 -27.933  20.343  0.00  0.00    -0.263 NA
ATOM     40  C   UNL     1      -7.718 -27.267  20.997  0.00  0.00    +0.111 A 
ENDBRANCH   4   3
ENDBRANCH  10   9
BRANCH  12  13
ATOM     13  N   UNL     1     -16.149 -19.124  19.619  0.00  0.00    -0.281 N 
ATOM     14  C   UNL     1     -16.611 -19.303  18.325  0.00  0.00    +0.248 C 
ATOM     30  O   UNL     1     -16.717 -20.387  17.772  0.00  0.00    -0.270 OA
ATOM     31  H   UNL     1     -15.926 -18.165  19.887  0.00  0.00    +0.155 HD
BRANCH  14  15
ATOM     15  C   UNL     1     -16.998 -18.101  17.524  0.00  0.00    +0.037 A 
ATOM     16  C   UNL     1     -17.985 -18.193  16.445  0.00  0.00    +0.013 A 
ATOM     17  C   UNL     1     -18.327 -17.022  15.677  0.00  0.00    +0.005 A 
ATOM     18  C   UNL     1     -17.683 -15.748  15.987  0.00  0.00    -0.033 A 
ATOM     28  C   UNL     1     -16.711 -15.685  17.066  0.00  0.00    +0.005 A 
ATOM     29  C   UNL     1     -16.372 -16.830  17.821  0.00  0.00    +0.013 A 
BRANCH  18  19
ATOM     19  C   UNL     1     -17.972 -14.453  15.206  0.00  0.00    +0.119 C 
BRANCH  19  20
ATOM     20  N   UNL     1     -16.868 -13.902  14.364  0.00  0.00    -0.302 NA
ATOM     21  C   UNL     1     -16.834 -12.371  14.392  0.00  0.00    +0.066 C 
ATOM     22  C   UNL     1     -15.660 -11.812  13.524  0.00  0.00    -0.064 C 
ATOM     23  N   UNL     1     -15.801 -12.324  12.090  0.00  0.00    +0.379 N 
ATOM     24  C   UNL     1     -14.731 -11.754  11.258  0.00  0.00    -0.096 C 
ATOM     25  H   UNL     1     -16.774 -11.952  11.692  0.00  0.00    -0.082 HD
ATOM     26  C   UNL     1     -15.838 -13.845  12.053  0.00  0.00    -0.064 C 
ATOM     27  C   UNL     1     -16.990 -14.392  12.942  0.00  0.00    +0.066 C 
ENDBRANCH  19  20
ENDBRANCH  18  19
ENDBRANCH  14  15
ENDBRANCH  12  13
TORSDOF 6
ENDMDL
MODEL 2
REMARK VINA RESULT:      -8.0      2.226     13.223
REMARK  Name = C:\Users\Docking\Desktop\test protocol\1iep_ligandH.pdb
REMARK  8 active torsions:
REMARK  status: ('A' for Active; 'I' for Inactive)
REMARK    1  A    between atoms: _5  and  _11
REMARK    2  A    between atoms: _19  and  _21
REMARK    3  A    between atoms: _22  and  _66
REMARK    4  A    between atoms: _27  and  _30
REMARK    5  A    between atoms: _32  and  _33
REMARK    6  A    between atoms: _38  and  _43
REMARK    7  A    between atoms: _43  and  _46
REMARK    8  A    between atoms: _53  and  _55
REMARK                            x       y       z     vdW  Elec       q    Type
REMARK                         _______ _______ _______ _____ _____    ______ ____
ROOT
ATOM     10  C   UNL     1     -16.212 -20.490  19.986  0.00  0.00    +0.038 A 
ATOM     11  C   UNL     1     -15.014 -21.230  19.815  0.00  0.00    +0.047 A 
ATOM     12  C   UNL     1     -14.904 -22.603  20.283  0.00  0.00    +0.035 A 
ATOM     32  C   UNL     1     -16.035 -23.192  20.919  0.00  0.00    +0.024 A 
ATOM     33  C   UNL     1     -17.260 -22.455  21.101  0.00  0.00    +0.007 A 
ATOM     34  C   UNL     1     -17.374 -21.099  20.644  0.00  0.00    -0.029 A 
ATOM     35  C   UNL     1     -18.710 -20.354  20.873  0.00  0.00    +0.045 C 
ENDROOT
BRANCH  10   9
ATOM      4  C   UNL     1     -17.276 -17.232  16.626  0.00  0.00    +0.077 A 
ATOM      5  C   UNL     1     -17.747 -18.236  15.717  0.00  0.00    +0.048 A 
ATOM      6  C   UNL     1     -17.691 -19.580  16.149  0.00  0.00    +0.116 A 
ATOM      7  N   UNL     1     -17.200 -19.885  17.400  0.00  0.00    -0.223 NA
ATOM      8  C   UNL     1     -16.753 -18.892  18.252  0.00  0.00    +0.220 A 
ATOM      9  N   UNL     1     -16.262 -19.175  19.518  0.00  0.00    -0.283 N 
ATOM     36  H   UNL     1     -15.934 -18.415  20.113  0.00  0.00    +0.155 HD
ATOM     37  N   UNL     1     -16.794 -17.601  17.862  0.00  0.00    -0.214 NA
BRANCH   4   3
ATOM      1  C   UNL     1     -17.177 -13.338  16.991  0.00  0.00    +0.020 A 
ATOM      2  C   UNL     1     -17.176 -14.739  17.344  0.00  0.00    +0.013 A 
ATOM      3  C   UNL     1     -17.273 -15.767  16.316  0.00  0.00    +0.019 A 
ATOM     38  C   UNL     1     -17.370 -15.341  14.928  0.00  0.00    +0.120 A 
ATOM     39  N   UNL     1     -17.370 -13.984  14.617  0.00  0.00    -0.263 NA
ATOM     40  C   UNL     1     -17.279 -12.986  15.599  0.00  0.00    +0.111 A 
ENDBRANCH   4   3
ENDBRANCH  10   9
BRANCH  12  13
ATOM     13  N   UNL     1     -13.710 -23.400  20.145  0.00  0.00    -0.281 N 
ATOM     14  C   UNL     1     -12.791 -23.735  21.126  0.00  0.00    +0.248 C 
ATOM     30  O   UNL     1     -12.742 -23.218  22.232  0.00  0.00    -0.270 OA
ATOM     31  H   UNL     1     -13.520 -23.762  19.210  0.00  0.00    +0.155 HD
BRANCH  14  15
ATOM     15  C   UNL     1     -11.769 -24.785  20.830  0.00  0.00    +0.037 A 
ATOM     16  C   UNL     1     -12.147 -26.061  20.218  0.00  0.00    +0.013 A 
ATOM     17  C   UNL     1     -11.144 -27.064  19.959  0.00  0.00    +0.005 A 
ATOM     18  C   UNL     1      -9.752 -26.792  20.311  0.00  0.00    -0.033 A 
ATOM     28  C   UNL     1      -9.405 -25.515  20.912  0.00  0.00    +0.005 A 
ATOM     29  C   UNL     1     -10.385 -24.530  21.168  0.00  0.00    +0.013 A 
BRANCH  18  19
ATOM     19  C   UNL     1      -8.619 -27.812  20.090  0.00  0.00    +0.119 C 
BRANCH  19  20
ATOM     20  N   UNL     1      -8.427 -28.858  21.138  0.00  0.00    -0.302 NA
ATOM     21  C   UNL     1      -7.420 -28.422  22.206  0.00  0.00    +0.066 C 
ATOM     22  C   UNL     1      -7.248 -29.519  23.307  0.00  0.00    -0.064 C 
ATOM     23  N   UNL     1      -6.809 -30.830  22.652  0.00  0.00    +0.379 N 
ATOM     24  C   UNL     1      -6.590 -31.848  23.690  0.00  0.00    -0.096 C 
ATOM     25  H   UNL     1      -5.832 -30.646  22.147  0.00  0.00    -0.082 HD
ATOM     26  C   UNL     1      -7.804 -31.269  21.586  0.00  0.00    -0.064 C 
ATOM     27  C   UNL     1      -7.990 -30.160  20.513  0.00  0.00    +0.066 C 
ENDBRANCH  19  20
ENDBRANCH  18  19
ENDBRANCH  14  15
ENDBRANCH  12  13
TORSDOF 6
ENDMDL
MODEL 3
REMARK VINA RESULT:      -7.8     20.966     25.567
REMARK  Name = C:\Users\Docking\Desktop\test protocol\1iep_ligandH.pdb
REMARK  8 active torsions:
REMARK  status: ('A' for Active; 'I' for Inactive)
REMARK    1  A    between atoms: _5  and  _11
REMARK    2  A    between atoms: _19  and  _21
REMARK    3  A    between atoms: _22  and  _66
REMARK    4  A    between atoms: _27  and  _30
REMARK    5  A    between atoms: _32  and  _33
REMARK    6  A    between atoms: _38  and  _43
REMARK    7  A    between atoms: _43  and  _46
REMARK    8  A    between atoms: _53  and  _55
REMARK                            x       y       z     vdW  Elec       q    Type
REMARK                         _______ _______ _______ _____ _____    ______ ____
ROOT
ATOM     10  C   UNL     1       8.855 -18.086  31.603  0.00  0.00    +0.038 A 
ATOM     11  C   UNL     1       7.609 -17.436  31.796  0.00  0.00    +0.047 A 
ATOM     12  C   UNL     1       7.083 -17.199  33.132  0.00  0.00    +0.035 A 
ATOM     32  C   UNL     1       7.855 -17.633  34.249  0.00  0.00    +0.024 A 
ATOM     33  C   UNL     1       9.123 -18.296  34.071  0.00  0.00    +0.007 A 
ATOM     34  C   UNL     1       9.645 -18.536  32.756  0.00  0.00    -0.029 A 
ATOM     35  C   UNL     1      11.007 -19.257  32.624  0.00  0.00    +0.045 C 
ENDROOT
BRANCH  10   9
ATOM      4  C   UNL     1      11.578 -16.885  27.838  0.00  0.00    +0.077 A 
ATOM      5  C   UNL     1      12.116 -15.741  28.517  0.00  0.00    +0.048 A 
ATOM      6  C   UNL     1      11.661 -15.493  29.831  0.00  0.00    +0.116 A 
ATOM      7  N   UNL     1      10.736 -16.333  30.413  0.00  0.00    -0.223 NA
ATOM      8  C   UNL     1      10.236 -17.426  29.730  0.00  0.00    +0.220 A 
ATOM      9  N   UNL     1       9.312 -18.289  30.299  0.00  0.00    -0.283 N 
ATOM     36  H   UNL     1       8.961 -19.080  29.759  0.00  0.00    +0.155 HD
ATOM     37  N   UNL     1      10.654 -17.684  28.473  0.00  0.00    -0.214 NA
BRANCH   4   3
ATOM      1  C   UNL     1      11.457 -17.629  23.999  0.00  0.00    +0.020 A 
ATOM      2  C   UNL     1      11.034 -17.236  25.324  0.00  0.00    +0.013 A 
ATOM      3  C   UNL     1      11.963 -17.281  26.446  0.00  0.00    +0.019 A 
ATOM     38  C   UNL     1      13.323 -17.731  26.192  0.00  0.00    +0.120 A 
ATOM     39  N   UNL     1      13.701 -18.104  24.906  0.00  0.00    -0.263 NA
ATOM     40  C   UNL     1      12.816 -18.067  23.819  0.00  0.00    +0.111 A 
ENDBRANCH   4   3
ENDBRANCH  10   9
BRANCH  12  13
ATOM     13  N   UNL     1       5.821 -16.551  33.389  0.00  0.00    -0.281 N 
ATOM     14  C   UNL     1       5.461 -15.243  33.107  0.00  0.00    +0.248 C 
ATOM     30  O   UNL     1       6.247 -14.365  32.783  0.00  0.00    -0.270 OA
ATOM     31  H   UNL     1       5.106 -17.127  33.833  0.00  0.00    +0.155 HD
BRANCH  14  15
ATOM     15  C   UNL     1       4.023 -14.851  33.216  0.00  0.00    +0.037 A 
ATOM     16  C   UNL     1       3.383 -14.663  34.520  0.00  0.00    +0.013 A 
ATOM     17  C   UNL     1       1.990 -14.301  34.597  0.00  0.00    +0.005 A 
ATOM     18  C   UNL     1       1.228 -14.122  33.363  0.00  0.00    -0.033 A 
ATOM     28  C   UNL     1       1.889 -14.310  32.082  0.00  0.00    +0.005 A 
ATOM     29  C   UNL     1       3.254 -14.666  32.004  0.00  0.00    +0.013 A 
BRANCH  18  19
ATOM     19  C   UNL     1      -0.268 -13.757  33.350  0.00  0.00    +0.119 C 
BRANCH  19  20
ATOM     20  N   UNL     1      -1.120 -14.398  32.304  0.00  0.00    -0.302 NA
ATOM     21  C   UNL     1      -2.439 -13.649  32.099  0.00  0.00    +0.066 C 
ATOM     22  C   UNL     1      -3.308 -14.320  30.985  0.00  0.00    -0.064 C 
ATOM     23  N   UNL     1      -3.567 -15.781  31.356  0.00  0.00    +0.379 N 
ATOM     24  C   UNL     1      -4.431 -16.399  30.340  0.00  0.00    -0.096 C 
ATOM     25  H   UNL     1      -4.121 -15.791  32.323  0.00  0.00    -0.082 HD
ATOM     26  C   UNL     1      -2.260 -16.533  31.565  0.00  0.00    -0.064 C 
ATOM     27  C   UNL     1      -1.392 -15.841  32.652  0.00  0.00    +0.066 C 
ENDBRANCH  19  20
ENDBRANCH  18  19
ENDBRANCH  14  15
ENDBRANCH  12  13
TORSDOF 6
ENDMDL
MODEL 4
REMARK VINA RESULT:      -7.7      1.866      2.771
REMARK  Name = C:\Users\Docking\Desktop\test protocol\1iep_ligandH.pdb
REMARK  8 active torsions:
REMARK  status: ('A' for Active; 'I' for Inactive)
REMARK    1  A    between atoms: _5  and  _11
REMARK    2  A    between atoms: _19  and  _21
REMARK    3  A    between atoms: _22  and  _66
REMARK    4  A    between atoms: _27  and  _30
REMARK    5  A    between atoms: _32  and  _33
REMARK    6  A    between atoms: _38  and  _43
REMARK    7  A    between atoms: _43  and  _46
REMARK    8  A    between atoms: _53  and  _55
REMARK                            x       y       z     vdW  Elec       q    Type
REMARK                         _______ _______ _______ _____ _____    ______ ____
ROOT
ATOM     10  C   UNL     1     -14.263 -21.905  22.116  0.00  0.00    +0.038 A 
ATOM     11  C   UNL     1     -14.452 -20.996  21.044  0.00  0.00    +0.047 A 
ATOM     12  C   UNL     1     -15.652 -20.178  20.954  0.00  0.00    +0.035 A 
ATOM     32  C   UNL     1     -16.638 -20.311  21.974  0.00  0.00    +0.024 A 
ATOM     33  C   UNL     1     -16.462 -21.231  23.070  0.00  0.00    +0.007 A 
ATOM     34  C   UNL     1     -15.282 -22.042  23.163  0.00  0.00    -0.029 A 
ATOM     35  C   UNL     1     -15.150 -23.016  24.357  0.00  0.00    +0.045 C 
ENDROOT
BRANCH  10   9
ATOM      4  C   UNL     1     -11.500 -25.502  20.547  0.00  0.00    +0.077 A 
ATOM      5  C   UNL     1     -12.484 -25.920  19.591  0.00  0.00    +0.048 A 
ATOM      6  C   UNL     1     -13.691 -25.187  19.539  0.00  0.00    +0.116 A 
ATOM      7  N   UNL     1     -13.887 -24.117  20.386  0.00  0.00    -0.223 NA
ATOM      8  C   UNL     1     -12.918 -23.742  21.298  0.00  0.00    +0.220 A 
ATOM      9  N   UNL     1     -13.091 -22.665  22.153  0.00  0.00    -0.283 N 
ATOM     36  H   UNL     1     -12.355 -22.424  22.817  0.00  0.00    +0.155 HD
ATOM     37  N   UNL     1     -11.758 -24.427  21.368  0.00  0.00    -0.214 NA
BRANCH   4   3
ATOM      1  C   UNL     1      -8.628 -28.158  20.514  0.00  0.00    +0.020 A 
ATOM      2  C   UNL     1      -9.928 -27.556  20.326  0.00  0.00    +0.013 A 
ATOM      3  C   UNL     1     -10.173 -26.174  20.720  0.00  0.00    +0.019 A 
ATOM     38  C   UNL     1      -9.072 -25.422  21.303  0.00  0.00    +0.120 A 
ATOM     39  N   UNL     1      -7.831 -26.029  21.473  0.00  0.00    -0.263 NA
ATOM     40  C   UNL     1      -7.584 -27.358  21.100  0.00  0.00    +0.111 A 
ENDBRANCH   4   3
ENDBRANCH  10   9
BRANCH  12  13
ATOM     13  N   UNL     1     -15.903 -19.244  19.885  0.00  0.00    -0.281 N 
ATOM     14  C   UNL     1     -16.395 -19.511  18.618  0.00  0.00    +0.248 C 
ATOM     30  O   UNL     1     -16.494 -20.630  18.137  0.00  0.00    -0.270 OA
ATOM     31  H   UNL     1     -15.692 -18.266  20.087  0.00  0.00    +0.155 HD
BRANCH  14  15
ATOM     15  C   UNL     1     -16.827 -18.370  17.755  0.00  0.00    +0.037 A 
ATOM     16  C   UNL     1     -17.791 -18.560  16.669  0.00  0.00    +0.013 A 
ATOM     17  C   UNL     1     -18.177 -17.446  15.840  0.00  0.00    +0.005 A 
ATOM     18  C   UNL     1     -17.599 -16.129  16.097  0.00  0.00    -0.033 A 
ATOM     28  C   UNL     1     -16.649 -15.967  17.185  0.00  0.00    +0.005 A 
ATOM     29  C   UNL     1     -16.267 -17.057  17.998  0.00  0.00    +0.013 A 
BRANCH  18  19
ATOM     19  C   UNL     1     -17.938 -14.887  15.250  0.00  0.00    +0.119 C 
BRANCH  19  20
ATOM     20  N   UNL     1     -19.328 -14.351  15.349  0.00  0.00    -0.302 NA
ATOM     21  C   UNL     1     -19.487 -13.027  14.596  0.00  0.00    +0.066 C 
ATOM     22  C   UNL     1     -20.953 -12.491  14.691  0.00  0.00    -0.064 C 
ATOM     23  N   UNL     1     -21.339 -12.328  16.162  0.00  0.00    +0.379 N 
ATOM     24  C   UNL     1     -22.696 -11.769  16.254  0.00  0.00    -0.096 C 
ATOM     25  H   UNL     1     -20.638 -11.589  16.615  0.00  0.00    -0.082 HD
ATOM     26  C   UNL     1     -21.181 -13.639  16.919  0.00  0.00    -0.064 C 
ATOM     27  C   UNL     1     -19.728 -14.177  16.794  0.00  0.00    +0.066 C 
ENDBRANCH  19  20
ENDBRANCH  18  19
ENDBRANCH  14  15
ENDBRANCH  12  13
TORSDOF 6
ENDMDL
MODEL 5
REMARK VINA RESULT:      -7.5     20.250     23.911
REMARK  Name = C:\Users\Docking\Desktop\test protocol\1iep_ligandH.pdb
REMARK  8 active torsions:
REMARK  status: ('A' for Active; 'I' for Inactive)
REMARK    1  A    between atoms: _5  and  _11
REMARK    2  A    between atoms: _19  and  _21
REMARK    3  A    between atoms: _22  and  _66
REMARK    4  A    between atoms: _27  and  _30
REMARK    5  A    between atoms: _32  and  _33
REMARK    6  A    between atoms: _38  and  _43
REMARK    7  A    between atoms: _43  and  _46
REMARK    8  A    between atoms: _53  and  _55
REMARK                            x       y       z     vdW  Elec       q    Type
REMARK                         _______ _______ _______ _____ _____    ______ ____
ROOT
ATOM     10  C   UNL     1       6.674 -14.175  32.572  0.00  0.00    +0.038 A 
ATOM     11  C   UNL     1       5.359 -14.327  32.061  0.00  0.00    +0.047 A 
ATOM     12  C   UNL     1       4.196 -13.967  32.857  0.00  0.00    +0.035 A 
ATOM     32  C   UNL     1       4.408 -13.453  34.170  0.00  0.00    +0.024 A 
ATOM     33  C   UNL     1       5.737 -13.293  34.705  0.00  0.00    +0.007 A 
ATOM     34  C   UNL     1       6.888 -13.649  33.926  0.00  0.00    -0.029 A 
ATOM     35  C   UNL     1       8.289 -13.462  34.554  0.00  0.00    +0.045 C 
ENDROOT
BRANCH  10   9
ATOM      4  C   UNL     1       9.733 -17.419  30.796  0.00  0.00    +0.077 A 
ATOM      5  C   UNL     1       9.145 -18.480  31.563  0.00  0.00    +0.048 A 
ATOM      6  C   UNL     1       8.063 -18.147  32.407  0.00  0.00    +0.116 A 
ATOM      7  N   UNL     1       7.609 -16.848  32.472  0.00  0.00    -0.223 NA
ATOM      8  C   UNL     1       8.199 -15.848  31.721  0.00  0.00    +0.220 A 
ATOM      9  N   UNL     1       7.754 -14.536  31.765  0.00  0.00    -0.283 N 
ATOM     36  H   UNL     1       8.221 -13.826  31.201  0.00  0.00    +0.155 HD
ATOM     37  N   UNL     1       9.236 -16.140  30.908  0.00  0.00    -0.214 NA
BRANCH   4   3
ATOM      1  C   UNL     1      11.888 -17.709  27.545  0.00  0.00    +0.020 A 
ATOM      2  C   UNL     1      10.746 -17.513  28.409  0.00  0.00    +0.013 A 
ATOM      3  C   UNL     1      10.882 -17.613  29.856  0.00  0.00    +0.019 A 
ATOM     38  C   UNL     1      12.197 -17.912  30.403  0.00  0.00    +0.120 A 
ATOM     39  N   UNL     1      13.278 -18.097  29.546  0.00  0.00    -0.263 NA
ATOM     40  C   UNL     1      13.159 -18.006  28.151  0.00  0.00    +0.111 A 
ENDBRANCH   4   3
ENDBRANCH  10   9
BRANCH  12  13
ATOM     13  N   UNL     1       2.838 -14.107  32.394  0.00  0.00    -0.281 N 
ATOM     14  C   UNL     1       1.724 -14.485  33.125  0.00  0.00    +0.248 C 
ATOM     30  O   UNL     1       1.764 -14.969  34.246  0.00  0.00    -0.270 OA
ATOM     31  H   UNL     1       2.678 -13.902  31.408  0.00  0.00    +0.155 HD
BRANCH  14  15
ATOM     15  C   UNL     1       0.369 -14.313  32.518  0.00  0.00    +0.037 A 
ATOM     16  C   UNL     1      -0.841 -14.737  33.227  0.00  0.00    +0.013 A 
ATOM     17  C   UNL     1      -2.134 -14.575  32.610  0.00  0.00    +0.005 A 
ATOM     18  C   UNL     1      -2.224 -13.985  31.277  0.00  0.00    -0.033 A 
ATOM     28  C   UNL     1      -1.008 -13.569  30.598  0.00  0.00    +0.005 A 
ATOM     29  C   UNL     1       0.262 -13.727  31.199  0.00  0.00    +0.013 A 
BRANCH  18  19
ATOM     19  C   UNL     1      -3.560 -13.795  30.534  0.00  0.00    +0.119 C 
BRANCH  19  20
ATOM     20  N   UNL     1      -4.809 -13.847  31.351  0.00  0.00    -0.302 NA
ATOM     21  C   UNL     1      -5.486 -15.219  31.277  0.00  0.00    +0.066 C 
ATOM     22  C   UNL     1      -6.779 -15.264  32.155  0.00  0.00    -0.064 C 
ATOM     23  N   UNL     1      -7.738 -14.162  31.701  0.00  0.00    +0.379 N 
ATOM     24  C   UNL     1      -8.979 -14.238  32.485  0.00  0.00    -0.096 C 
ATOM     25  H   UNL     1      -7.999 -14.359  30.635  0.00  0.00    -0.082 HD
ATOM     26  C   UNL     1      -7.072 -12.795  31.768  0.00  0.00    -0.064 C 
ATOM     27  C   UNL     1      -5.772 -12.770  30.916  0.00  0.00    +0.066 C 
ENDBRANCH  19  20
ENDBRANCH  18  19
ENDBRANCH  14  15
ENDBRANCH  12  13
TORSDOF 6
ENDMDL
