MODEL 1
REMARK VINA RESULT:      -7.8      0.000      0.000
REMARK  Name = C:\Users\Docking\Desktop\test protocol\1iep_ligandH.pdb
REMARK  8 active torsions:
REMARK  status: ('A' for Active; 'I' for Inactive)
REMARK    1  A    between atoms: _5  and  _11
REMARK    2  A    between atoms: _19  and  _21
REMARK    3  A    between atoms: _22  and  _66
REMARK    4  A    between atoms: _27  and  _30
REMARK    5  A    between atoms: _32  and  _33
REMARK    6  A    between atoms: _38  and  _43
REMARK    7  A    between atoms: _43  and  _46
REMARK    8  A    between atoms: _53  and  _55
REMARK                            x       y       z     vdW  Elec       q    Type
REMARK                         _______ _______ _______ _____ _____    ______ ____
ROOT
ATOM     10  C   UNL     1      -1.530  14.087  25.611  0.00  0.00    +0.038 A 
ATOM     11  C   UNL     1      -0.223  14.582  25.854  0.00  0.00    +0.047 A 
ATOM     12  C   UNL     1       0.413  14.423  27.152  0.00  0.00    +0.035 A 
ATOM     32  C   UNL     1      -0.310  13.752  28.181  0.00  0.00    +0.024 A 
ATOM     33  C   UNL     1      -1.640  13.244  27.952  0.00  0.00    +0.007 A 
ATOM     34  C   UNL     1      -2.274  13.400  26.674  0.00  0.00    -0.029 A 
ATOM     35  C   UNL     1      -3.703  12.840  26.488  0.00  0.00    +0.045 C 
ENDROOT
BRANCH  10   9
ATOM      4  C   UNL     1      -4.344  16.457  22.529  0.00  0.00    +0.077 A 
ATOM      5  C   UNL     1      -4.749  17.400  23.531  0.00  0.00    +0.048 A 
ATOM      6  C   UNL     1      -4.215  17.236  24.829  0.00  0.00    +0.116 A 
ATOM      7  N   UNL     1      -3.343  16.202  25.094  0.00  0.00    -0.223 NA
ATOM      8  C   UNL     1      -2.975  15.309  24.104  0.00  0.00    +0.220 A 
ATOM      9  N   UNL     1      -2.093  14.267  24.346  0.00  0.00    -0.283 N 
ATOM     36  H   UNL     1      -1.852  13.625  23.591  0.00  0.00    +0.155 HD
ATOM     37  N   UNL     1      -3.471  15.444  22.857  0.00  0.00    -0.214 NA
BRANCH   4   3
ATOM      1  C   UNL     1      -4.726  17.378  18.746  0.00  0.00    +0.020 A 
ATOM      2  C   UNL     1      -4.231  17.375  20.104  0.00  0.00    +0.013 A 
ATOM      3  C   UNL     1      -4.819  16.500  21.109  0.00  0.00    +0.019 A 
ATOM     38  C   UNL     1      -5.915  15.632  20.706  0.00  0.00    +0.120 A 
ATOM     39  N   UNL     1      -6.372  15.657  19.392  0.00  0.00    -0.263 NA
ATOM     40  C   UNL     1      -5.815  16.497  18.416  0.00  0.00    +0.111 A 
ENDBRANCH   4   3
ENDBRANCH  10   9
BRANCH  12  13
ATOM     13  N   UNL     1       1.734  14.911  27.459  0.00  0.00    -0.281 N 
ATOM     14  C   UNL     1       2.908  14.183  27.568  0.00  0.00    +0.248 C 
ATOM     30  O   UNL     1       2.961  12.964  27.628  0.00  0.00    -0.270 OA
ATOM     31  H   UNL     1       1.814  15.916  27.615  0.00  0.00    +0.155 HD
BRANCH  14  15
ATOM     15  C   UNL     1       4.209  14.916  27.634  0.00  0.00    +0.037 A 
ATOM     16  C   UNL     1       5.445  14.316  27.125  0.00  0.00    +0.013 A 
ATOM     17  C   UNL     1       6.689  15.038  27.217  0.00  0.00    +0.005 A 
ATOM     18  C   UNL     1       6.703  16.369  27.819  0.00  0.00    -0.033 A 
ATOM     28  C   UNL     1       5.461  16.942  28.311  0.00  0.00    +0.005 A 
ATOM     29  C   UNL     1       4.240  16.237  28.224  0.00  0.00    +0.013 A 
BRANCH  18  19
ATOM     19  C   UNL     1       7.989  17.202  27.977  0.00  0.00    +0.119 C 
BRANCH  19  20
ATOM     20  N   UNL     1       8.398  17.571  29.365  0.00  0.00    -0.302 NA
ATOM     21  C   UNL     1       9.547  18.583  29.376  0.00  0.00    +0.066 C 
ATOM     22  C   UNL     1       9.947  18.975  30.835  0.00  0.00    -0.064 C 
ATOM     23  N   UNL     1      10.328  17.714  31.613  0.00  0.00    +0.379 N 
ATOM     24  C   UNL     1      10.760  18.085  32.968  0.00  0.00    -0.096 C 
ATOM     25  H   UNL     1      11.199  17.248  31.096  0.00  0.00    -0.082 HD
ATOM     26  C   UNL     1       9.191  16.702  31.605  0.00  0.00    -0.064 C 
ATOM     27  C   UNL     1       8.782  16.341  30.150  0.00  0.00    +0.066 C 
ENDBRANCH  19  20
ENDBRANCH  18  19
ENDBRANCH  14  15
ENDBRANCH  12  13
TORSDOF 6
ENDMDL
MODEL 2
REMARK VINA RESULT:      -7.7     18.964     22.617
REMARK  Name = C:\Users\Docking\Desktop\test protocol\1iep_ligandH.pdb
REMARK  8 active torsions:
REMARK  status: ('A' for Active; 'I' for Inactive)
REMARK    1  A    between atoms: _5  and  _11
REMARK    2  A    between atoms: _19  and  _21
REMARK    3  A    between atoms: _22  and  _66
REMARK    4  A    between atoms: _27  and  _30
REMARK    5  A    between atoms: _32  and  _33
REMARK    6  A    between atoms: _38  and  _43
REMARK    7  A    between atoms: _43  and  _46
REMARK    8  A    between atoms: _53  and  _55
REMARK                            x       y       z     vdW  Elec       q    Type
REMARK                         _______ _______ _______ _____ _____    ______ ____
ROOT
ATOM     10  C   UNL     1      20.145  21.844  26.345  0.00  0.00    +0.038 A 
ATOM     11  C   UNL     1      20.897  20.940  25.551  0.00  0.00    +0.047 A 
ATOM     12  C   UNL     1      21.988  20.166  26.122  0.00  0.00    +0.035 A 
ATOM     32  C   UNL     1      22.285  20.336  27.506  0.00  0.00    +0.024 A 
ATOM     33  C   UNL     1      21.532  21.251  28.327  0.00  0.00    +0.007 A 
ATOM     34  C   UNL     1      20.456  22.019  27.768  0.00  0.00    -0.029 A 
ATOM     35  C   UNL     1      19.687  22.991  28.694  0.00  0.00    +0.045 C 
ENDROOT
BRANCH  10   9
ATOM      4  C   UNL     1      18.481  25.594  23.854  0.00  0.00    +0.077 A 
ATOM      5  C   UNL     1      19.784  26.187  23.762  0.00  0.00    +0.048 A 
ATOM      6  C   UNL     1      20.855  25.499  24.376  0.00  0.00    +0.116 A 
ATOM      7  N   UNL     1      20.628  24.307  25.029  0.00  0.00    -0.223 NA
ATOM      8  C   UNL     1      19.358  23.764  25.100  0.00  0.00    +0.220 A 
ATOM      9  N   UNL     1      19.108  22.562  25.745  0.00  0.00    -0.283 N 
ATOM     36  H   UNL     1      18.156  22.198  25.781  0.00  0.00    +0.155 HD
ATOM     37  N   UNL     1      18.319  24.402  24.523  0.00  0.00    -0.214 NA
BRANCH   4   3
ATOM      1  C   UNL     1      14.863  26.077  22.448  0.00  0.00    +0.020 A 
ATOM      2  C   UNL     1      16.024  25.444  23.031  0.00  0.00    +0.013 A 
ATOM      3  C   UNL     1      17.251  26.199  23.253  0.00  0.00    +0.019 A 
ATOM     38  C   UNL     1      17.269  27.604  22.872  0.00  0.00    +0.120 A 
ATOM     39  N   UNL     1      16.137  28.185  22.311  0.00  0.00    -0.263 NA
ATOM     40  C   UNL     1      14.951  27.468  22.091  0.00  0.00    +0.111 A 
ENDBRANCH   4   3
ENDBRANCH  10   9
BRANCH  12  13
ATOM     13  N   UNL     1      22.792  19.239  25.364  0.00  0.00    -0.281 N 
ATOM     14  C   UNL     1      24.045  19.450  24.814  0.00  0.00    +0.248 C 
ATOM     30  O   UNL     1      24.578  20.545  24.708  0.00  0.00    -0.270 OA
ATOM     31  H   UNL     1      22.387  18.315  25.215  0.00  0.00    +0.155 HD
BRANCH  14  15
ATOM     15  C   UNL     1      24.812  18.278  24.294  0.00  0.00    +0.037 A 
ATOM     16  C   UNL     1      26.277  18.275  24.277  0.00  0.00    +0.013 A 
ATOM     17  C   UNL     1      26.993  17.138  23.754  0.00  0.00    +0.005 A 
ATOM     18  C   UNL     1      26.243  15.993  23.244  0.00  0.00    -0.033 A 
ATOM     28  C   UNL     1      24.790  16.020  23.278  0.00  0.00    +0.005 A 
ATOM     29  C   UNL     1      24.085  17.133  23.789  0.00  0.00    +0.013 A 
BRANCH  18  19
ATOM     19  C   UNL     1      26.923  14.746  22.648  0.00  0.00    +0.119 C 
BRANCH  19  20
ATOM     20  N   UNL     1      27.630  13.834  23.596  0.00  0.00    -0.302 NA
ATOM     21  C   UNL     1      27.944  12.477  22.961  0.00  0.00    +0.066 C 
ATOM     22  C   UNL     1      28.704  11.544  23.959  0.00  0.00    -0.064 C 
ATOM     23  N   UNL     1      27.866  11.367  25.226  0.00  0.00    +0.379 N 
ATOM     24  C   UNL     1      28.551  10.444  26.143  0.00  0.00    -0.096 C 
ATOM     25  H   UNL     1      26.901  10.896  24.930  0.00  0.00    -0.082 HD
ATOM     26  C   UNL     1      27.547  12.712  25.863  0.00  0.00    -0.064 C 
ATOM     27  C   UNL     1      26.818  13.643  24.854  0.00  0.00    +0.066 C 
ENDBRANCH  19  20
ENDBRANCH  18  19
ENDBRANCH  14  15
ENDBRANCH  12  13
TORSDOF 6
ENDMDL
MODEL 3
REMARK VINA RESULT:      -7.6     19.012     20.213
REMARK  Name = C:\Users\Docking\Desktop\test protocol\1iep_ligandH.pdb
REMARK  8 active torsions:
REMARK  status: ('A' for Active; 'I' for Inactive)
REMARK    1  A    between atoms: _5  and  _11
REMARK    2  A    between atoms: _19  and  _21
REMARK    3  A    between atoms: _22  and  _66
REMARK    4  A    between atoms: _27  and  _30
REMARK    5  A    between atoms: _32  and  _33
REMARK    6  A    between atoms: _38  and  _43
REMARK    7  A    between atoms: _43  and  _46
REMARK    8  A    between atoms: _53  and  _55
REMARK                            x       y       z     vdW  Elec       q    Type
REMARK                         _______ _______ _______ _____ _____    ______ ____
ROOT
ATOM     10  C   UNL     1       7.458  19.988   8.483  0.00  0.00    +0.038 A 
ATOM     11  C   UNL     1       8.786  19.744   8.916  0.00  0.00    +0.047 A 
ATOM     12  C   UNL     1       9.720  20.837   9.134  0.00  0.00    +0.035 A 
ATOM     32  C   UNL     1       9.266  22.169   8.905  0.00  0.00    +0.024 A 
ATOM     33  C   UNL     1       7.919  22.436   8.465  0.00  0.00    +0.007 A 
ATOM     34  C   UNL     1       6.995  21.361   8.245  0.00  0.00    -0.029 A 
ATOM     35  C   UNL     1       5.565  21.705   7.766  0.00  0.00    +0.045 C 
ENDROOT
BRANCH  10   9
ATOM      4  C   UNL     1       5.590  16.507   5.757  0.00  0.00    +0.077 A 
ATOM      5  C   UNL     1       6.361  16.906   4.616  0.00  0.00    +0.048 A 
ATOM      6  C   UNL     1       7.221  18.016   4.769  0.00  0.00    +0.116 A 
ATOM      7  N   UNL     1       7.297  18.671   5.980  0.00  0.00    -0.223 NA
ATOM      8  C   UNL     1       6.538  18.262   7.060  0.00  0.00    +0.220 A 
ATOM      9  N   UNL     1       6.604  18.900   8.289  0.00  0.00    -0.283 N 
ATOM     36  H   UNL     1       6.022  18.572   9.060  0.00  0.00    +0.155 HD
ATOM     37  N   UNL     1       5.708  17.205   6.939  0.00  0.00    -0.214 NA
BRANCH   4   3
ATOM      1  C   UNL     1       3.744  13.188   6.694  0.00  0.00    +0.020 A 
ATOM      2  C   UNL     1       4.687  14.282   6.742  0.00  0.00    +0.013 A 
ATOM      3  C   UNL     1       4.638  15.351   5.753  0.00  0.00    +0.019 A 
ATOM     38  C   UNL     1       3.616  15.284   4.720  0.00  0.00    +0.120 A 
ATOM     39  N   UNL     1       2.722  14.217   4.698  0.00  0.00    -0.263 NA
ATOM     40  C   UNL     1       2.760  13.182   5.643  0.00  0.00    +0.111 A 
ENDBRANCH   4   3
ENDBRANCH  10   9
BRANCH  12  13
ATOM     13  N   UNL     1      11.083  20.650   9.565  0.00  0.00    -0.281 N 
ATOM     14  C   UNL     1      12.212  20.498   8.777  0.00  0.00    +0.248 C 
ATOM     30  O   UNL     1      12.191  20.286   7.574  0.00  0.00    -0.270 OA
ATOM     31  H   UNL     1      11.234  20.626  10.574  0.00  0.00    +0.155 HD
BRANCH  14  15
ATOM     15  C   UNL     1      13.558  20.579   9.421  0.00  0.00    +0.037 A 
ATOM     16  C   UNL     1      14.111  19.449  10.172  0.00  0.00    +0.013 A 
ATOM     17  C   UNL     1      15.405  19.559  10.798  0.00  0.00    +0.005 A 
ATOM     18  C   UNL     1      16.156  20.806  10.673  0.00  0.00    -0.033 A 
ATOM     28  C   UNL     1      15.587  21.909   9.918  0.00  0.00    +0.005 A 
ATOM     29  C   UNL     1      14.318  21.805   9.304  0.00  0.00    +0.013 A 
BRANCH  18  19
ATOM     19  C   UNL     1      17.535  21.020  11.326  0.00  0.00    +0.119 C 
BRANCH  19  20
ATOM     20  N   UNL     1      17.633  22.063  12.391  0.00  0.00    -0.302 NA
ATOM     21  C   UNL     1      19.086  22.429  12.704  0.00  0.00    +0.066 C 
ATOM     22  C   UNL     1      19.169  23.537  13.804  0.00  0.00    -0.064 C 
ATOM     23  N   UNL     1      18.448  23.056  15.064  0.00  0.00    +0.379 N 
ATOM     24  C   UNL     1      18.574  24.072  16.120  0.00  0.00    -0.096 C 
ATOM     25  H   UNL     1      18.964  22.134  15.418  0.00  0.00    -0.082 HD
ATOM     26  C   UNL     1      17.002  22.688  14.761  0.00  0.00    -0.064 C 
ATOM     27  C   UNL     1      16.930  21.607  13.646  0.00  0.00    +0.066 C 
ENDBRANCH  19  20
ENDBRANCH  18  19
ENDBRANCH  14  15
ENDBRANCH  12  13
TORSDOF 6
ENDMDL
MODEL 4
REMARK VINA RESULT:      -7.6      2.145     12.814
REMARK  Name = C:\Users\Docking\Desktop\test protocol\1iep_ligandH.pdb
REMARK  8 active torsions:
REMARK  status: ('A' for Active; 'I' for Inactive)
REMARK    1  A    between atoms: _5  and  _11
REMARK    2  A    between atoms: _19  and  _21
REMARK    3  A    between atoms: _22  and  _66
REMARK    4  A    between atoms: _27  and  _30
REMARK    5  A    between atoms: _32  and  _33
REMARK    6  A    between atoms: _38  and  _43
REMARK    7  A    between atoms: _43  and  _46
REMARK    8  A    between atoms: _53  and  _55
REMARK                            x       y       z     vdW  Elec       q    Type
REMARK                         _______ _______ _______ _____ _____    ______ ____
ROOT
ATOM     10  C   UNL     1       0.130  14.609  27.549  0.00  0.00    +0.038 A 
ATOM     11  C   UNL     1      -0.481  15.050  26.348  0.00  0.00    +0.047 A 
ATOM     12  C   UNL     1      -1.721  14.458  25.873  0.00  0.00    +0.035 A 
ATOM     32  C   UNL     1      -2.314  13.419  26.648  0.00  0.00    +0.024 A 
ATOM     33  C   UNL     1      -1.706  12.957  27.871  0.00  0.00    +0.007 A 
ATOM     34  C   UNL     1      -0.481  13.536  28.343  0.00  0.00    -0.029 A 
ATOM     35  C   UNL     1       0.130  12.998  29.658  0.00  0.00    +0.045 C 
ENDROOT
BRANCH  10   9
ATOM      4  C   UNL     1       4.918  14.954  27.556  0.00  0.00    +0.077 A 
ATOM      5  C   UNL     1       5.060  13.818  26.692  0.00  0.00    +0.048 A 
ATOM      6  C   UNL     1       3.877  13.168  26.274  0.00  0.00    +0.116 A 
ATOM      7  N   UNL     1       2.648  13.630  26.695  0.00  0.00    -0.223 NA
ATOM      8  C   UNL     1       2.547  14.727  27.530  0.00  0.00    +0.220 A 
ATOM      9  N   UNL     1       1.321  15.214  27.959  0.00  0.00    -0.283 N 
ATOM     36  H   UNL     1       1.289  16.022  28.580  0.00  0.00    +0.155 HD
ATOM     37  N   UNL     1       3.662  15.364  27.944  0.00  0.00    -0.214 NA
BRANCH   4   3
ATOM      1  C   UNL     1       7.825  17.552  27.871  0.00  0.00    +0.020 A 
ATOM      2  C   UNL     1       6.711  16.815  27.319  0.00  0.00    +0.013 A 
ATOM      3  C   UNL     1       6.074  15.748  28.079  0.00  0.00    +0.019 A 
ATOM     38  C   UNL     1       6.591  15.449  29.406  0.00  0.00    +0.120 A 
ATOM     39  N   UNL     1       7.666  16.175  29.911  0.00  0.00    -0.263 NA
ATOM     40  C   UNL     1       8.288  17.203  29.188  0.00  0.00    +0.111 A 
ENDBRANCH   4   3
ENDBRANCH  10   9
BRANCH  12  13
ATOM     13  N   UNL     1      -2.384  14.859  24.657  0.00  0.00    -0.281 N 
ATOM     14  C   UNL     1      -3.716  14.689  24.316  0.00  0.00    +0.248 C 
ATOM     30  O   UNL     1      -4.497  13.971  24.922  0.00  0.00    -0.270 OA
ATOM     31  H   UNL     1      -1.799  15.325  23.962  0.00  0.00    +0.155 HD
BRANCH  14  15
ATOM     15  C   UNL     1      -4.253  15.410  23.122  0.00  0.00    +0.037 A 
ATOM     16  C   UNL     1      -3.802  16.762  22.784  0.00  0.00    +0.013 A 
ATOM     17  C   UNL     1      -4.349  17.441  21.636  0.00  0.00    +0.005 A 
ATOM     18  C   UNL     1      -5.355  16.767  20.818  0.00  0.00    -0.033 A 
ATOM     28  C   UNL     1      -5.781  15.424  21.174  0.00  0.00    +0.005 A 
ATOM     29  C   UNL     1      -5.247  14.756  22.298  0.00  0.00    +0.013 A 
BRANCH  18  19
ATOM     19  C   UNL     1      -6.009  17.425  19.588  0.00  0.00    +0.119 C 
BRANCH  19  20
ATOM     20  N   UNL     1      -5.381  17.164  18.258  0.00  0.00    -0.302 NA
ATOM     21  C   UNL     1      -3.853  17.242  18.320  0.00  0.00    +0.066 C 
ATOM     22  C   UNL     1      -3.211  16.945  16.926  0.00  0.00    -0.064 C 
ATOM     23  N   UNL     1      -3.762  17.930  15.893  0.00  0.00    +0.379 N 
ATOM     24  C   UNL     1      -3.117  17.691  14.594  0.00  0.00    -0.096 C 
ATOM     25  H   UNL     1      -3.484  18.958  16.225  0.00  0.00    -0.082 HD
ATOM     26  C   UNL     1      -5.281  17.861  15.827  0.00  0.00    -0.064 C 
ATOM     27  C   UNL     1      -5.908  18.129  17.224  0.00  0.00    +0.066 C 
ENDBRANCH  19  20
ENDBRANCH  18  19
ENDBRANCH  14  15
ENDBRANCH  12  13
TORSDOF 6
ENDMDL
MODEL 5
REMARK VINA RESULT:      -7.5     18.937     22.947
REMARK  Name = C:\Users\Docking\Desktop\test protocol\1iep_ligandH.pdb
REMARK  8 active torsions:
REMARK  status: ('A' for Active; 'I' for Inactive)
REMARK    1  A    between atoms: _5  and  _11
REMARK    2  A    between atoms: _19  and  _21
REMARK    3  A    between atoms: _22  and  _66
REMARK    4  A    between atoms: _27  and  _30
REMARK    5  A    between atoms: _32  and  _33
REMARK    6  A    between atoms: _38  and  _43
REMARK    7  A    between atoms: _43  and  _46
REMARK    8  A    between atoms: _53  and  _55
REMARK                            x       y       z     vdW  Elec       q    Type
REMARK                         _______ _______ _______ _____ _____    ______ ____
ROOT
ATOM     10  C   UNL     1      20.284  21.831  26.318  0.00  0.00    +0.038 A 
ATOM     11  C   UNL     1      21.024  20.917  25.527  0.00  0.00    +0.047 A 
ATOM     12  C   UNL     1      22.135  20.164  26.088  0.00  0.00    +0.035 A 
ATOM     32  C   UNL     1      22.463  20.365  27.460  0.00  0.00    +0.024 A 
ATOM     33  C   UNL     1      21.722  21.291  28.279  0.00  0.00    +0.007 A 
ATOM     34  C   UNL     1      20.626  22.039  27.731  0.00  0.00    -0.029 A 
ATOM     35  C   UNL     1      19.870  23.023  28.654  0.00  0.00    +0.045 C 
ENDROOT
BRANCH  10   9
ATOM      4  C   UNL     1      18.514  25.567  23.879  0.00  0.00    +0.077 A 
ATOM      5  C   UNL     1      19.800  26.198  23.796  0.00  0.00    +0.048 A 
ATOM      6  C   UNL     1      20.890  25.531  24.400  0.00  0.00    +0.116 A 
ATOM      7  N   UNL     1      20.696  24.325  25.037  0.00  0.00    -0.223 NA
ATOM      8  C   UNL     1      19.443  23.745  25.100  0.00  0.00    +0.220 A 
ATOM      9  N   UNL     1      19.227  22.528  25.728  0.00  0.00    -0.283 N 
ATOM     36  H   UNL     1      18.285  22.137  25.760  0.00  0.00    +0.155 HD
ATOM     37  N   UNL     1      18.386  24.362  24.532  0.00  0.00    -0.214 NA
BRANCH   4   3
ATOM      1  C   UNL     1      14.854  25.992  22.565  0.00  0.00    +0.020 A 
ATOM      2  C   UNL     1      16.032  25.385  23.143  0.00  0.00    +0.013 A 
ATOM      3  C   UNL     1      17.267  26.145  23.287  0.00  0.00    +0.019 A 
ATOM     38  C   UNL     1      17.278  27.528  22.832  0.00  0.00    +0.120 A 
ATOM     39  N   UNL     1      16.129  28.084  22.278  0.00  0.00    -0.263 NA
ATOM     40  C   UNL     1      14.935  27.362  22.133  0.00  0.00    +0.111 A 
ENDBRANCH   4   3
ENDBRANCH  10   9
BRANCH  12  13
ATOM     13  N   UNL     1      22.929  19.228  25.330  0.00  0.00    -0.281 N 
ATOM     14  C   UNL     1      24.146  19.452  24.707  0.00  0.00    +0.248 C 
ATOM     30  O   UNL     1      24.636  20.556  24.525  0.00  0.00    -0.270 OA
ATOM     31  H   UNL     1      22.547  18.286  25.243  0.00  0.00    +0.155 HD
BRANCH  14  15
ATOM     15  C   UNL     1      24.923  18.280  24.200  0.00  0.00    +0.037 A 
ATOM     16  C   UNL     1      26.387  18.306  24.145  0.00  0.00    +0.013 A 
ATOM     17  C   UNL     1      27.112  17.169  23.635  0.00  0.00    +0.005 A 
ATOM     18  C   UNL     1      26.372  15.995  23.177  0.00  0.00    -0.033 A 
ATOM     28  C   UNL     1      24.920  15.995  23.246  0.00  0.00    +0.005 A 
ATOM     29  C   UNL     1      24.206  17.108  23.745  0.00  0.00    +0.013 A 
BRANCH  18  19
ATOM     19  C   UNL     1      27.062  14.746  22.598  0.00  0.00    +0.119 C 
BRANCH  19  20
ATOM     20  N   UNL     1      26.813  14.432  21.159  0.00  0.00    -0.302 NA
ATOM     21  C   UNL     1      27.153  12.978  20.821  0.00  0.00    +0.066 C 
ATOM     22  C   UNL     1      26.866  12.661  19.317  0.00  0.00    -0.064 C 
ATOM     23  N   UNL     1      27.664  13.622  18.435  0.00  0.00    +0.379 N 
ATOM     24  C   UNL     1      27.441  13.290  17.020  0.00  0.00    -0.096 C 
ATOM     25  H   UNL     1      28.745  13.463  18.654  0.00  0.00    -0.082 HD
ATOM     26  C   UNL     1      27.334  15.071  18.766  0.00  0.00    -0.064 C 
ATOM     27  C   UNL     1      27.595  15.367  20.269  0.00  0.00    +0.066 C 
ENDBRANCH  19  20
ENDBRANCH  18  19
ENDBRANCH  14  15
ENDBRANCH  12  13
TORSDOF 6
ENDMDL
