MODEL 1
REMARK VINA RESULT:      -7.7      0.000      0.000
REMARK  Name = C:\Users\Docking\Desktop\test protocol\1iep_ligandH.pdb
REMARK  8 active torsions:
REMARK  status: ('A' for Active; 'I' for Inactive)
REMARK    1  A    between atoms: _5  and  _11
REMARK    2  A    between atoms: _19  and  _21
REMARK    3  A    between atoms: _22  and  _66
REMARK    4  A    between atoms: _27  and  _30
REMARK    5  A    between atoms: _32  and  _33
REMARK    6  A    between atoms: _38  and  _43
REMARK    7  A    between atoms: _43  and  _46
REMARK    8  A    between atoms: _53  and  _55
REMARK                            x       y       z     vdW  Elec       q    Type
REMARK                         _______ _______ _______ _____ _____    ______ ____
ROOT
ATOM     10  C   UNL     1     -34.993  -2.123  -5.563  0.00  0.00    +0.038 A 
ATOM     11  C   UNL     1     -35.489  -0.848  -5.938  0.00  0.00    +0.047 A 
ATOM     12  C   UNL     1     -36.880  -0.666  -6.325  0.00  0.00    +0.035 A 
ATOM     32  C   UNL     1     -37.738  -1.804  -6.317  0.00  0.00    +0.024 A 
ATOM     33  C   UNL     1     -37.250  -3.107  -5.940  0.00  0.00    +0.007 A 
ATOM     34  C   UNL     1     -35.879  -3.293  -5.559  0.00  0.00    -0.029 A 
ATOM     35  C   UNL     1     -35.409  -4.714  -5.171  0.00  0.00    +0.045 C 
ENDROOT
BRANCH  10   9
ATOM      4  C   UNL     1     -30.399  -3.062  -6.588  0.00  0.00    +0.077 A 
ATOM      5  C   UNL     1     -30.705  -3.371  -7.955  0.00  0.00    +0.048 A 
ATOM      6  C   UNL     1     -32.058  -3.282  -8.353  0.00  0.00    +0.116 A 
ATOM      7  N   UNL     1     -33.024  -2.912  -7.443  0.00  0.00    -0.223 NA
ATOM      8  C   UNL     1     -32.695  -2.623  -6.131  0.00  0.00    +0.220 A 
ATOM      9  N   UNL     1     -33.649  -2.240  -5.201  0.00  0.00    -0.283 N 
ATOM     36  H   UNL     1     -33.367  -2.042  -4.241  0.00  0.00    +0.155 HD
ATOM     37  N   UNL     1     -31.410  -2.701  -5.726  0.00  0.00    -0.214 NA
BRANCH   4   3
ATOM      1  C   UNL     1     -27.227  -4.138  -4.568  0.00  0.00    +0.020 A 
ATOM      2  C   UNL     1     -28.574  -4.140  -5.090  0.00  0.00    +0.013 A 
ATOM      3  C   UNL     1     -29.015  -3.107  -6.018  0.00  0.00    +0.019 A 
ATOM     38  C   UNL     1     -28.061  -2.077  -6.402  0.00  0.00    +0.120 A 
ATOM     39  N   UNL     1     -26.771  -2.100  -5.882  0.00  0.00    -0.263 NA
ATOM     40  C   UNL     1     -26.335  -3.088  -4.987  0.00  0.00    +0.111 A 
ENDBRANCH   4   3
ENDBRANCH  10   9
BRANCH  12  13
ATOM     13  N   UNL     1     -37.438   0.603  -6.723  0.00  0.00    -0.281 N 
ATOM     14  C   UNL     1     -37.042   1.870  -6.327  0.00  0.00    +0.248 C 
ATOM     30  O   UNL     1     -36.279   2.097  -5.399  0.00  0.00    -0.270 OA
ATOM     31  H   UNL     1     -38.221   0.562  -7.376  0.00  0.00    +0.155 HD
BRANCH  14  15
ATOM     15  C   UNL     1     -37.581   3.057  -7.057  0.00  0.00    +0.037 A 
ATOM     16  C   UNL     1     -36.987   4.386  -6.891  0.00  0.00    +0.013 A 
ATOM     17  C   UNL     1     -37.538   5.517  -7.595  0.00  0.00    +0.005 A 
ATOM     18  C   UNL     1     -38.689   5.323  -8.473  0.00  0.00    -0.033 A 
ATOM     28  C   UNL     1     -39.255   3.993  -8.623  0.00  0.00    +0.005 A 
ATOM     29  C   UNL     1     -38.719   2.882  -7.935  0.00  0.00    +0.013 A 
BRANCH  18  19
ATOM     19  C   UNL     1     -39.355   6.476  -9.247  0.00  0.00    +0.119 C 
BRANCH  19  20
ATOM     20  N   UNL     1     -40.770   6.805  -8.900  0.00  0.00    -0.302 NA
ATOM     21  C   UNL     1     -41.470   7.581 -10.019  0.00  0.00    +0.066 C 
ATOM     22  C   UNL     1     -42.956   7.897  -9.650  0.00  0.00    -0.064 C 
ATOM     23  N   UNL     1     -42.996   8.683  -8.338  0.00  0.00    +0.379 N 
ATOM     24  C   UNL     1     -44.388   9.032  -8.017  0.00  0.00    -0.096 C 
ATOM     25  H   UNL     1     -42.437   9.634  -8.496  0.00  0.00    -0.082 HD
ATOM     26  C   UNL     1     -42.300   7.919  -7.220  0.00  0.00    -0.064 C 
ATOM     27  C   UNL     1     -40.833   7.585  -7.610  0.00  0.00    +0.066 C 
ENDBRANCH  19  20
ENDBRANCH  18  19
ENDBRANCH  14  15
ENDBRANCH  12  13
TORSDOF 6
ENDMDL
MODEL 2
REMARK VINA RESULT:      -7.6     11.128     13.651
REMARK  Name = C:\Users\Docking\Desktop\test protocol\1iep_ligandH.pdb
REMARK  8 active torsions:
REMARK  status: ('A' for Active; 'I' for Inactive)
REMARK    1  A    between atoms: _5  and  _11
REMARK    2  A    between atoms: _19  and  _21
REMARK    3  A    between atoms: _22  and  _66
REMARK    4  A    between atoms: _27  and  _30
REMARK    5  A    between atoms: _32  and  _33
REMARK    6  A    between atoms: _38  and  _43
REMARK    7  A    between atoms: _43  and  _46
REMARK    8  A    between atoms: _53  and  _55
REMARK                            x       y       z     vdW  Elec       q    Type
REMARK                         _______ _______ _______ _____ _____    ______ ____
ROOT
ATOM     10  C   UNL     1     -32.521   8.673 -13.731  0.00  0.00    +0.038 A 
ATOM     11  C   UNL     1     -32.216   9.580 -12.684  0.00  0.00    +0.047 A 
ATOM     12  C   UNL     1     -32.641  10.969 -12.745  0.00  0.00    +0.035 A 
ATOM     32  C   UNL     1     -33.378  11.401 -13.886  0.00  0.00    +0.024 A 
ATOM     33  C   UNL     1     -33.695  10.493 -14.960  0.00  0.00    +0.007 A 
ATOM     34  C   UNL     1     -33.276   9.122 -14.907  0.00  0.00    -0.029 A 
ATOM     35  C   UNL     1     -33.639   8.194 -16.090  0.00  0.00    +0.045 C 
ENDROOT
BRANCH  10   9
ATOM      4  C   UNL     1     -29.111   5.302 -13.951  0.00  0.00    +0.077 A 
ATOM      5  C   UNL     1     -28.112   6.254 -14.346  0.00  0.00    +0.048 A 
ATOM      6  C   UNL     1     -28.519   7.600 -14.488  0.00  0.00    +0.116 A 
ATOM      7  N   UNL     1     -29.829   7.956 -14.250  0.00  0.00    -0.223 NA
ATOM      8  C   UNL     1     -30.767   7.012 -13.873  0.00  0.00    +0.220 A 
ATOM      9  N   UNL     1     -32.088   7.349 -13.621  0.00  0.00    -0.283 N 
ATOM     36  H   UNL     1     -32.751   6.623 -13.351  0.00  0.00    +0.155 HD
ATOM     37  N   UNL     1     -30.404   5.721 -13.732  0.00  0.00    -0.214 NA
BRANCH   4   3
ATOM      1  C   UNL     1     -27.589   1.927 -12.689  0.00  0.00    +0.020 A 
ATOM      2  C   UNL     1     -27.815   3.346 -12.841  0.00  0.00    +0.013 A 
ATOM      3  C   UNL     1     -28.835   3.844 -13.756  0.00  0.00    +0.019 A 
ATOM     38  C   UNL     1     -29.615   2.872 -14.508  0.00  0.00    +0.120 A 
ATOM     39  N   UNL     1     -29.374   1.512 -14.342  0.00  0.00    -0.263 NA
ATOM     40  C   UNL     1     -28.395   1.021 -13.466  0.00  0.00    +0.111 A 
ENDBRANCH   4   3
ENDBRANCH  10   9
BRANCH  12  13
ATOM     13  N   UNL     1     -32.354  11.938 -11.716  0.00  0.00    -0.281 N 
ATOM     14  C   UNL     1     -32.825  11.962 -10.413  0.00  0.00    +0.248 C 
ATOM     30  O   UNL     1     -33.739  11.266  -9.996  0.00  0.00    -0.270 OA
ATOM     31  H   UNL     1     -31.728  12.699 -11.980  0.00  0.00    +0.155 HD
BRANCH  14  15
ATOM     15  C   UNL     1     -32.199  12.904  -9.436  0.00  0.00    +0.037 A 
ATOM     16  C   UNL     1     -32.053  12.547  -8.023  0.00  0.00    +0.013 A 
ATOM     17  C   UNL     1     -31.462  13.482  -7.099  0.00  0.00    +0.005 A 
ATOM     18  C   UNL     1     -31.011  14.783  -7.586  0.00  0.00    -0.033 A 
ATOM     28  C   UNL     1     -31.163  15.109  -8.994  0.00  0.00    +0.005 A 
ATOM     29  C   UNL     1     -31.743  14.196  -9.903  0.00  0.00    +0.013 A 
BRANCH  18  19
ATOM     19  C   UNL     1     -30.387  15.850  -6.667  0.00  0.00    +0.119 C 
BRANCH  19  20
ATOM     20  N   UNL     1     -28.921  16.098  -6.803  0.00  0.00    -0.302 NA
ATOM     21  C   UNL     1     -28.115  14.796  -6.797  0.00  0.00    +0.066 C 
ATOM     22  C   UNL     1     -26.585  15.073  -6.963  0.00  0.00    -0.064 C 
ATOM     23  N   UNL     1     -26.115  16.007  -5.847  0.00  0.00    +0.379 N 
ATOM     24  C   UNL     1     -24.665  16.222  -5.966  0.00  0.00    -0.096 C 
ATOM     25  H   UNL     1     -26.301  15.493  -4.875  0.00  0.00    -0.082 HD
ATOM     26  C   UNL     1     -26.913  17.303  -5.844  0.00  0.00    -0.064 C 
ATOM     27  C   UNL     1     -28.434  17.015  -5.708  0.00  0.00    +0.066 C 
ENDBRANCH  19  20
ENDBRANCH  18  19
ENDBRANCH  14  15
ENDBRANCH  12  13
TORSDOF 6
ENDMDL
MODEL 3
REMARK VINA RESULT:      -7.6      1.624      2.097
REMARK  Name = C:\Users\Docking\Desktop\test protocol\1iep_ligandH.pdb
REMARK  8 active torsions:
REMARK  status: ('A' for Active; 'I' for Inactive)
REMARK    1  A    between atoms: _5  and  _11
REMARK    2  A    between atoms: _19  and  _21
REMARK    3  A    between atoms: _22  and  _66
REMARK    4  A    between atoms: _27  and  _30
REMARK    5  A    between atoms: _32  and  _33
REMARK    6  A    between atoms: _38  and  _43
REMARK    7  A    between atoms: _43  and  _46
REMARK    8  A    between atoms: _53  and  _55
REMARK                            x       y       z     vdW  Elec       q    Type
REMARK                         _______ _______ _______ _____ _____    ______ ____
ROOT
ATOM     10  C   UNL     1     -36.013  -1.560  -5.709  0.00  0.00    +0.038 A 
ATOM     11  C   UNL     1     -36.326  -0.194  -5.928  0.00  0.00    +0.047 A 
ATOM     12  C   UNL     1     -37.672   0.221  -6.290  0.00  0.00    +0.035 A 
ATOM     32  C   UNL     1     -38.677  -0.782  -6.418  0.00  0.00    +0.024 A 
ATOM     33  C   UNL     1     -38.376  -2.175  -6.201  0.00  0.00    +0.007 A 
ATOM     34  C   UNL     1     -37.049  -2.591  -5.846  0.00  0.00    -0.029 A 
ATOM     35  C   UNL     1     -36.782  -4.099  -5.632  0.00  0.00    +0.045 C 
ENDROOT
BRANCH  10   9
ATOM      4  C   UNL     1     -31.516  -2.785  -6.854  0.00  0.00    +0.077 A 
ATOM      5  C   UNL     1     -31.806  -2.768  -8.259  0.00  0.00    +0.048 A 
ATOM      6  C   UNL     1     -33.127  -2.446  -8.645  0.00  0.00    +0.116 A 
ATOM      7  N   UNL     1     -34.078  -2.164  -7.689  0.00  0.00    -0.223 NA
ATOM      8  C   UNL     1     -33.765  -2.191  -6.342  0.00  0.00    +0.220 A 
ATOM      9  N   UNL     1     -34.704  -1.902  -5.364  0.00  0.00    -0.283 N 
ATOM     36  H   UNL     1     -34.435  -1.940  -4.381  0.00  0.00    +0.155 HD
ATOM     37  N   UNL     1     -32.512  -2.497  -5.948  0.00  0.00    -0.214 NA
BRANCH   4   3
ATOM      1  C   UNL     1     -27.666  -2.796  -6.163  0.00  0.00    +0.020 A 
ATOM      2  C   UNL     1     -28.944  -2.451  -6.742  0.00  0.00    +0.013 A 
ATOM      3  C   UNL     1     -30.166  -3.104  -6.290  0.00  0.00    +0.019 A 
ATOM     38  C   UNL     1     -30.060  -4.108  -5.241  0.00  0.00    +0.120 A 
ATOM     39  N   UNL     1     -28.815  -4.420  -4.704  0.00  0.00    -0.263 NA
ATOM     40  C   UNL     1     -27.632  -3.799  -5.132  0.00  0.00    +0.111 A 
ENDBRANCH   4   3
ENDBRANCH  10   9
BRANCH  12  13
ATOM     13  N   UNL     1     -38.047   1.593  -6.531  0.00  0.00    -0.281 N 
ATOM     14  C   UNL     1     -38.350   2.191  -7.743  0.00  0.00    +0.248 C 
ATOM     30  O   UNL     1     -38.137   1.688  -8.836  0.00  0.00    -0.270 OA
ATOM     31  H   UNL     1     -38.095   2.195  -5.709  0.00  0.00    +0.155 HD
BRANCH  14  15
ATOM     15  C   UNL     1     -38.967   3.553  -7.741  0.00  0.00    +0.037 A 
ATOM     16  C   UNL     1     -38.200   4.735  -8.143  0.00  0.00    +0.013 A 
ATOM     17  C   UNL     1     -38.814   6.039  -8.116  0.00  0.00    +0.005 A 
ATOM     18  C   UNL     1     -40.205   6.167  -7.686  0.00  0.00    -0.033 A 
ATOM     28  C   UNL     1     -40.944   4.977  -7.298  0.00  0.00    +0.005 A 
ATOM     29  C   UNL     1     -40.345   3.697  -7.322  0.00  0.00    +0.013 A 
BRANCH  18  19
ATOM     19  C   UNL     1     -40.934   7.521  -7.606  0.00  0.00    +0.119 C 
BRANCH  19  20
ATOM     20  N   UNL     1     -41.481   8.080  -8.878  0.00  0.00    -0.302 NA
ATOM     21  C   UNL     1     -40.589   9.186  -9.450  0.00  0.00    +0.066 C 
ATOM     22  C   UNL     1     -41.164   9.744 -10.793  0.00  0.00    -0.064 C 
ATOM     23  N   UNL     1     -42.585  10.259 -10.561  0.00  0.00    +0.379 N 
ATOM     24  C   UNL     1     -43.107  10.837 -11.808  0.00  0.00    -0.096 C 
ATOM     25  H   UNL     1     -42.528  11.078  -9.806  0.00  0.00    -0.082 HD
ATOM     26  C   UNL     1     -43.478   9.167  -9.990  0.00  0.00    -0.064 C 
ATOM     27  C   UNL     1     -42.882   8.599  -8.671  0.00  0.00    +0.066 C 
ENDBRANCH  19  20
ENDBRANCH  18  19
ENDBRANCH  14  15
ENDBRANCH  12  13
TORSDOF 6
ENDMDL
MODEL 4
REMARK VINA RESULT:      -7.5      4.322      7.192
REMARK  Name = C:\Users\Docking\Desktop\test protocol\1iep_ligandH.pdb
REMARK  8 active torsions:
REMARK  status: ('A' for Active; 'I' for Inactive)
REMARK    1  A    between atoms: _5  and  _11
REMARK    2  A    between atoms: _19  and  _21
REMARK    3  A    between atoms: _22  and  _66
REMARK    4  A    between atoms: _27  and  _30
REMARK    5  A    between atoms: _32  and  _33
REMARK    6  A    between atoms: _38  and  _43
REMARK    7  A    between atoms: _43  and  _46
REMARK    8  A    between atoms: _53  and  _55
REMARK                            x       y       z     vdW  Elec       q    Type
REMARK                         _______ _______ _______ _____ _____    ______ ____
ROOT
ATOM     10  C   UNL     1     -37.304  -1.339  -6.005  0.00  0.00    +0.038 A 
ATOM     11  C   UNL     1     -37.736  -0.067  -6.459  0.00  0.00    +0.047 A 
ATOM     12  C   UNL     1     -37.107   0.578  -7.601  0.00  0.00    +0.035 A 
ATOM     32  C   UNL     1     -36.043  -0.104  -8.260  0.00  0.00    +0.024 A 
ATOM     33  C   UNL     1     -35.591  -1.397  -7.812  0.00  0.00    +0.007 A 
ATOM     34  C   UNL     1     -36.205  -2.037  -6.684  0.00  0.00    -0.029 A 
ATOM     35  C   UNL     1     -35.676  -3.421  -6.243  0.00  0.00    +0.045 C 
ENDROOT
BRANCH  10   9
ATOM      4  C   UNL     1     -40.502  -4.342  -4.056  0.00  0.00    +0.077 A 
ATOM      5  C   UNL     1     -40.955  -4.788  -5.342  0.00  0.00    +0.048 A 
ATOM      6  C   UNL     1     -40.345  -4.214  -6.480  0.00  0.00    +0.116 A 
ATOM      7  N   UNL     1     -39.355  -3.267  -6.331  0.00  0.00    -0.223 NA
ATOM      8  C   UNL     1     -38.943  -2.858  -5.077  0.00  0.00    +0.220 A 
ATOM      9  N   UNL     1     -37.944  -1.912  -4.904  0.00  0.00    -0.283 N 
ATOM     36  H   UNL     1     -37.673  -1.631  -3.962  0.00  0.00    +0.155 HD
ATOM     37  N   UNL     1     -39.511  -3.389  -3.974  0.00  0.00    -0.214 NA
BRANCH   4   3
ATOM      1  C   UNL     1     -42.064  -4.527  -0.475  0.00  0.00    +0.020 A 
ATOM      2  C   UNL     1     -41.547  -3.980  -1.708  0.00  0.00    +0.013 A 
ATOM      3  C   UNL     1     -41.047  -4.856  -2.760  0.00  0.00    +0.019 A 
ATOM     38  C   UNL     1     -41.084  -6.292  -2.531  0.00  0.00    +0.120 A 
ATOM     39  N   UNL     1     -41.586  -6.790  -1.333  0.00  0.00    -0.263 NA
ATOM     40  C   UNL     1     -42.068  -5.957  -0.312  0.00  0.00    +0.111 A 
ENDBRANCH   4   3
ENDBRANCH  10   9
BRANCH  12  13
ATOM     13  N   UNL     1     -37.497   1.873  -8.102  0.00  0.00    -0.281 N 
ATOM     14  C   UNL     1     -38.733   2.259  -8.594  0.00  0.00    +0.248 C 
ATOM     30  O   UNL     1     -39.636   1.486  -8.877  0.00  0.00    -0.270 OA
ATOM     31  H   UNL     1     -36.773   2.592  -8.094  0.00  0.00    +0.155 HD
BRANCH  14  15
ATOM     15  C   UNL     1     -39.000   3.712  -8.816  0.00  0.00    +0.037 A 
ATOM     16  C   UNL     1     -38.331   4.739  -8.014  0.00  0.00    +0.013 A 
ATOM     17  C   UNL     1     -38.619   6.134  -8.237  0.00  0.00    +0.005 A 
ATOM     18  C   UNL     1     -39.581   6.509  -9.271  0.00  0.00    -0.033 A 
ATOM     28  C   UNL     1     -40.227   5.470 -10.056  0.00  0.00    +0.005 A 
ATOM     29  C   UNL     1     -39.947   4.102  -9.839  0.00  0.00    +0.013 A 
BRANCH  18  19
ATOM     19  C   UNL     1     -39.965   7.972  -9.564  0.00  0.00    +0.119 C 
BRANCH  19  20
ATOM     20  N   UNL     1     -41.418   8.278  -9.726  0.00  0.00    -0.302 NA
ATOM     21  C   UNL     1     -41.648   9.613 -10.440  0.00  0.00    +0.066 C 
ATOM     22  C   UNL     1     -43.172   9.906 -10.622  0.00  0.00    -0.064 C 
ATOM     23  N   UNL     1     -43.857   9.899  -9.254  0.00  0.00    +0.379 N 
ATOM     24  C   UNL     1     -45.280  10.232  -9.415  0.00  0.00    -0.096 C 
ATOM     25  H   UNL     1     -43.389  10.702  -8.638  0.00  0.00    -0.082 HD
ATOM     26  C   UNL     1     -43.631   8.576  -8.536  0.00  0.00    -0.064 C 
ATOM     27  C   UNL     1     -42.113   8.279  -8.387  0.00  0.00    +0.066 C 
ENDBRANCH  19  20
ENDBRANCH  18  19
ENDBRANCH  14  15
ENDBRANCH  12  13
TORSDOF 6
ENDMDL
MODEL 5
REMARK VINA RESULT:      -7.3      5.232      8.039
REMARK  Name = C:\Users\Docking\Desktop\test protocol\1iep_ligandH.pdb
REMARK  8 active torsions:
REMARK  status: ('A' for Active; 'I' for Inactive)
REMARK    1  A    between atoms: _5  and  _11
REMARK    2  A    between atoms: _19  and  _21
REMARK    3  A    between atoms: _22  and  _66
REMARK    4  A    between atoms: _27  and  _30
REMARK    5  A    between atoms: _32  and  _33
REMARK    6  A    between atoms: _38  and  _43
REMARK    7  A    between atoms: _43  and  _46
REMARK    8  A    between atoms: _53  and  _55
REMARK                            x       y       z     vdW  Elec       q    Type
REMARK                         _______ _______ _______ _____ _____    ______ ____
ROOT
ATOM     10  C   UNL     1     -37.627   1.890  -7.097  0.00  0.00    +0.038 A 
ATOM     11  C   UNL     1     -38.397   2.812  -7.851  0.00  0.00    +0.047 A 
ATOM     12  C   UNL     1     -38.117   4.239  -7.809  0.00  0.00    +0.035 A 
ATOM     32  C   UNL     1     -37.043   4.692  -6.989  0.00  0.00    +0.024 A 
ATOM     33  C   UNL     1     -36.251   3.769  -6.215  0.00  0.00    +0.007 A 
ATOM     34  C   UNL     1     -36.524   2.361  -6.250  0.00  0.00    -0.029 A 
ATOM     35  C   UNL     1     -35.647   1.419  -5.394  0.00  0.00    +0.045 C 
ENDROOT
BRANCH  10   9
ATOM      4  C   UNL     1     -40.289  -1.917  -5.889  0.00  0.00    +0.077 A 
ATOM      5  C   UNL     1     -41.110  -1.137  -5.008  0.00  0.00    +0.048 A 
ATOM      6  C   UNL     1     -40.810   0.238  -4.888  0.00  0.00    +0.116 A 
ATOM      7  N   UNL     1     -39.764   0.783  -5.601  0.00  0.00    -0.223 NA
ATOM      8  C   UNL     1     -38.991   0.003  -6.442  0.00  0.00    +0.220 A 
ATOM      9  N   UNL     1     -37.940   0.531  -7.175  0.00  0.00    -0.283 N 
ATOM     36  H   UNL     1     -37.389  -0.079  -7.778  0.00  0.00    +0.155 HD
ATOM     37  N   UNL     1     -39.257  -1.314  -6.572  0.00  0.00    -0.214 NA
BRANCH   4   3
ATOM      1  C   UNL     1     -40.273  -5.803  -5.448  0.00  0.00    +0.020 A 
ATOM      2  C   UNL     1     -40.061  -4.401  -5.172  0.00  0.00    +0.013 A 
ATOM      3  C   UNL     1     -40.484  -3.382  -6.125  0.00  0.00    +0.019 A 
ATOM     38  C   UNL     1     -41.124  -3.820  -7.357  0.00  0.00    +0.120 A 
ATOM     39  N   UNL     1     -41.313  -5.177  -7.596  0.00  0.00    -0.263 NA
ATOM     40  C   UNL     1     -40.909  -6.166  -6.687  0.00  0.00    +0.111 A 
ENDBRANCH   4   3
ENDBRANCH  10   9
BRANCH  12  13
ATOM     13  N   UNL     1     -38.870   5.222  -8.547  0.00  0.00    -0.281 N 
ATOM     14  C   UNL     1     -40.080   5.802  -8.204  0.00  0.00    +0.248 C 
ATOM     30  O   UNL     1     -40.808   5.402  -7.308  0.00  0.00    -0.270 OA
ATOM     31  H   UNL     1     -38.461   5.528  -9.430  0.00  0.00    +0.155 HD
BRANCH  14  15
ATOM     15  C   UNL     1     -40.558   6.988  -8.978  0.00  0.00    +0.037 A 
ATOM     16  C   UNL     1     -39.738   7.587 -10.034  0.00  0.00    +0.013 A 
ATOM     17  C   UNL     1     -40.215   8.741 -10.754  0.00  0.00    +0.005 A 
ATOM     18  C   UNL     1     -41.521   9.304 -10.419  0.00  0.00    -0.033 A 
ATOM     28  C   UNL     1     -42.316   8.687  -9.370  0.00  0.00    +0.005 A 
ATOM     29  C   UNL     1     -41.851   7.556  -8.662  0.00  0.00    +0.013 A 
BRANCH  18  19
ATOM     19  C   UNL     1     -42.101  10.547 -11.120  0.00  0.00    +0.119 C 
BRANCH  19  20
ATOM     20  N   UNL     1     -43.350  10.362 -11.918  0.00  0.00    -0.302 NA
ATOM     21  C   UNL     1     -43.266   9.143 -12.842  0.00  0.00    +0.066 C 
ATOM     22  C   UNL     1     -44.590   8.952 -13.652  0.00  0.00    -0.064 C 
ATOM     23  N   UNL     1     -44.881  10.221 -14.454  0.00  0.00    +0.379 N 
ATOM     24  C   UNL     1     -46.094  10.023 -15.262  0.00  0.00    -0.096 C 
ATOM     25  H   UNL     1     -44.030  10.381 -15.156  0.00  0.00    -0.082 HD
ATOM     26  C   UNL     1     -44.963  11.438 -13.544  0.00  0.00    -0.064 C 
ATOM     27  C   UNL     1     -43.655  11.602 -12.721  0.00  0.00    +0.066 C 
ENDBRANCH  19  20
ENDBRANCH  18  19
ENDBRANCH  14  15
ENDBRANCH  12  13
TORSDOF 6
ENDMDL
