MODEL 1
REMARK VINA RESULT:      -7.4      0.000      0.000
REMARK  Name = C:\Users\Docking\Desktop\test protocol\1iep_ligandH.pdb
REMARK  8 active torsions:
REMARK  status: ('A' for Active; 'I' for Inactive)
REMARK    1  A    between atoms: _5  and  _11
REMARK    2  A    between atoms: _19  and  _21
REMARK    3  A    between atoms: _22  and  _66
REMARK    4  A    between atoms: _27  and  _30
REMARK    5  A    between atoms: _32  and  _33
REMARK    6  A    between atoms: _38  and  _43
REMARK    7  A    between atoms: _43  and  _46
REMARK    8  A    between atoms: _53  and  _55
REMARK                            x       y       z     vdW  Elec       q    Type
REMARK                         _______ _______ _______ _____ _____    ______ ____
ROOT
ATOM     10  C   UNL     1     -60.302   7.523  28.492  0.00  0.00    +0.038 A 
ATOM     11  C   UNL     1     -59.189   7.578  29.370  0.00  0.00    +0.047 A 
ATOM     12  C   UNL     1     -58.035   8.412  29.071  0.00  0.00    +0.035 A 
ATOM     32  C   UNL     1     -58.050   9.179  27.870  0.00  0.00    +0.024 A 
ATOM     33  C   UNL     1     -59.172   9.135  26.966  0.00  0.00    +0.007 A 
ATOM     34  C   UNL     1     -60.312   8.313  27.255  0.00  0.00    -0.029 A 
ATOM     35  C   UNL     1     -61.485   8.299  26.247  0.00  0.00    +0.045 C 
ENDROOT
BRANCH  10   9
ATOM      4  C   UNL     1     -62.395   3.222  28.886  0.00  0.00    +0.077 A 
ATOM      5  C   UNL     1     -61.247   2.549  28.350  0.00  0.00    +0.048 A 
ATOM      6  C   UNL     1     -60.142   3.346  27.979  0.00  0.00    +0.116 A 
ATOM      7  N   UNL     1     -60.191   4.715  28.137  0.00  0.00    -0.223 NA
ATOM      8  C   UNL     1     -61.315   5.332  28.655  0.00  0.00    +0.220 A 
ATOM      9  N   UNL     1     -61.384   6.706  28.829  0.00  0.00    -0.283 N 
ATOM     36  H   UNL     1     -62.233   7.124  29.208  0.00  0.00    +0.155 HD
ATOM     37  N   UNL     1     -62.384   4.593  29.015  0.00  0.00    -0.214 NA
BRANCH   4   3
ATOM      1  C   UNL     1     -65.882   1.450  28.881  0.00  0.00    +0.020 A 
ATOM      2  C   UNL     1     -64.700   2.130  28.404  0.00  0.00    +0.013 A 
ATOM      3  C   UNL     1     -63.640   2.517  29.327  0.00  0.00    +0.019 A 
ATOM     38  C   UNL     1     -63.808   2.197  30.736  0.00  0.00    +0.120 A 
ATOM     39  N   UNL     1     -64.958   1.543  31.167  0.00  0.00    -0.263 NA
ATOM     40  C   UNL     1     -65.985   1.167  30.289  0.00  0.00    +0.111 A 
ENDBRANCH   4   3
ENDBRANCH  10   9
BRANCH  12  13
ATOM     13  N   UNL     1     -56.873   8.501  29.920  0.00  0.00    -0.281 N 
ATOM     14  C   UNL     1     -56.502   9.548  30.748  0.00  0.00    +0.248 C 
ATOM     30  O   UNL     1     -57.005  10.661  30.722  0.00  0.00    -0.270 OA
ATOM     31  H   UNL     1     -56.248   7.695  29.909  0.00  0.00    +0.155 HD
BRANCH  14  15
ATOM     15  C   UNL     1     -55.404   9.330  31.738  0.00  0.00    +0.037 A 
ATOM     16  C   UNL     1     -55.502   8.291  32.766  0.00  0.00    +0.013 A 
ATOM     17  C   UNL     1     -54.435   8.114  33.719  0.00  0.00    +0.005 A 
ATOM     18  C   UNL     1     -53.259   8.978  33.647  0.00  0.00    -0.033 A 
ATOM     28  C   UNL     1     -53.186   9.998  32.614  0.00  0.00    +0.005 A 
ATOM     29  C   UNL     1     -54.230  10.175  31.678  0.00  0.00    +0.013 A 
BRANCH  18  19
ATOM     19  C   UNL     1     -52.083   8.875  34.636  0.00  0.00    +0.119 C 
BRANCH  19  20
ATOM     20  N   UNL     1     -50.704   8.978  34.072  0.00  0.00    -0.302 NA
ATOM     21  C   UNL     1     -49.920   7.672  34.229  0.00  0.00    +0.066 C 
ATOM     22  C   UNL     1     -48.488   7.791  33.614  0.00  0.00    -0.064 C 
ATOM     23  N   UNL     1     -47.745   8.952  34.277  0.00  0.00    +0.379 N 
ATOM     24  C   UNL     1     -46.378   9.030  33.742  0.00  0.00    -0.096 C 
ATOM     25  H   UNL     1     -47.670   8.727  35.367  0.00  0.00    -0.082 HD
ATOM     26  C   UNL     1     -48.520  10.254  34.128  0.00  0.00    -0.064 C 
ATOM     27  C   UNL     1     -49.952  10.116  34.717  0.00  0.00    +0.066 C 
ENDBRANCH  19  20
ENDBRANCH  18  19
ENDBRANCH  14  15
ENDBRANCH  12  13
TORSDOF 6
ENDMDL
MODEL 2
REMARK VINA RESULT:      -7.3     19.925     26.838
REMARK  Name = C:\Users\Docking\Desktop\test protocol\1iep_ligandH.pdb
REMARK  8 active torsions:
REMARK  status: ('A' for Active; 'I' for Inactive)
REMARK    1  A    between atoms: _5  and  _11
REMARK    2  A    between atoms: _19  and  _21
REMARK    3  A    between atoms: _22  and  _66
REMARK    4  A    between atoms: _27  and  _30
REMARK    5  A    between atoms: _32  and  _33
REMARK    6  A    between atoms: _38  and  _43
REMARK    7  A    between atoms: _43  and  _46
REMARK    8  A    between atoms: _53  and  _55
REMARK                            x       y       z     vdW  Elec       q    Type
REMARK                         _______ _______ _______ _____ _____    ______ ____
ROOT
ATOM     10  C   UNL     1     -36.439  14.785  18.207  0.00  0.00    +0.038 A 
ATOM     11  C   UNL     1     -37.752  15.318  18.163  0.00  0.00    +0.047 A 
ATOM     12  C   UNL     1     -38.604  15.319  19.343  0.00  0.00    +0.035 A 
ATOM     32  C   UNL     1     -38.084  14.771  20.551  0.00  0.00    +0.024 A 
ATOM     33  C   UNL     1     -36.751  14.224  20.613  0.00  0.00    +0.007 A 
ATOM     34  C   UNL     1     -35.908  14.219  19.452  0.00  0.00    -0.029 A 
ATOM     35  C   UNL     1     -34.490  13.614  19.575  0.00  0.00    +0.045 C 
ENDROOT
BRANCH  10   9
ATOM      4  C   UNL     1     -33.271  16.886  15.275  0.00  0.00    +0.077 A 
ATOM      5  C   UNL     1     -33.170  18.043  16.118  0.00  0.00    +0.048 A 
ATOM      6  C   UNL     1     -33.955  18.061  17.292  0.00  0.00    +0.116 A 
ATOM      7  N   UNL     1     -34.776  16.996  17.593  0.00  0.00    -0.223 NA
ATOM      8  C   UNL     1     -34.852  15.896  16.758  0.00  0.00    +0.220 A 
ATOM      9  N   UNL     1     -35.665  14.811  17.044  0.00  0.00    -0.283 N 
ATOM     36  H   UNL     1     -35.698  14.022  16.399  0.00  0.00    +0.155 HD
ATOM     37  N   UNL     1     -34.113  15.855  15.629  0.00  0.00    -0.214 NA
BRANCH   4   3
ATOM      1  C   UNL     1     -30.356  16.441  12.706  0.00  0.00    +0.020 A 
ATOM      2  C   UNL     1     -31.050  16.603  13.962  0.00  0.00    +0.013 A 
ATOM      3  C   UNL     1     -32.502  16.717  14.002  0.00  0.00    +0.019 A 
ATOM     38  C   UNL     1     -33.229  16.661  12.742  0.00  0.00    +0.120 A 
ATOM     39  N   UNL     1     -32.533  16.505  11.547  0.00  0.00    -0.263 NA
ATOM     40  C   UNL     1     -31.135  16.396  11.497  0.00  0.00    +0.111 A 
ENDBRANCH   4   3
ENDBRANCH  10   9
BRANCH  12  13
ATOM     13  N   UNL     1     -39.949  15.838  19.356  0.00  0.00    -0.281 N 
ATOM     14  C   UNL     1     -41.129  15.142  19.557  0.00  0.00    +0.248 C 
ATOM     30  O   UNL     1     -41.223  13.923  19.544  0.00  0.00    -0.270 OA
ATOM     31  H   UNL     1     -40.042  16.842  19.199  0.00  0.00    +0.155 HD
BRANCH  14  15
ATOM     15  C   UNL     1     -42.389  15.909  19.793  0.00  0.00    +0.037 A 
ATOM     16  C   UNL     1     -43.417  15.418  20.715  0.00  0.00    +0.013 A 
ATOM     17  C   UNL     1     -44.631  16.170  20.912  0.00  0.00    +0.005 A 
ATOM     18  C   UNL     1     -44.824  17.422  20.185  0.00  0.00    -0.033 A 
ATOM     28  C   UNL     1     -43.786  17.889  19.280  0.00  0.00    +0.005 A 
ATOM     29  C   UNL     1     -42.595  17.154  19.085  0.00  0.00    +0.013 A 
BRANCH  18  19
ATOM     19  C   UNL     1     -46.097  18.279  20.317  0.00  0.00    +0.119 C 
BRANCH  19  20
ATOM     20  N   UNL     1     -46.487  18.717  21.690  0.00  0.00    -0.302 NA
ATOM     21  C   UNL     1     -48.007  18.774  21.865  0.00  0.00    +0.066 C 
ATOM     22  C   UNL     1     -48.397  19.213  23.314  0.00  0.00    -0.064 C 
ATOM     23  N   UNL     1     -47.765  20.572  23.620  0.00  0.00    +0.379 N 
ATOM     24  C   UNL     1     -48.178  21.014  24.960  0.00  0.00    -0.096 C 
ATOM     25  H   UNL     1     -48.168  21.305  22.883  0.00  0.00    -0.082 HD
ATOM     26  C   UNL     1     -46.254  20.525  23.446  0.00  0.00    -0.064 C 
ATOM     27  C   UNL     1     -45.877  20.060  22.011  0.00  0.00    +0.066 C 
ENDBRANCH  19  20
ENDBRANCH  18  19
ENDBRANCH  14  15
ENDBRANCH  12  13
TORSDOF 6
ENDMDL
MODEL 3
REMARK VINA RESULT:      -6.9      6.864     11.742
REMARK  Name = C:\Users\Docking\Desktop\test protocol\1iep_ligandH.pdb
REMARK  8 active torsions:
REMARK  status: ('A' for Active; 'I' for Inactive)
REMARK    1  A    between atoms: _5  and  _11
REMARK    2  A    between atoms: _19  and  _21
REMARK    3  A    between atoms: _22  and  _66
REMARK    4  A    between atoms: _27  and  _30
REMARK    5  A    between atoms: _32  and  _33
REMARK    6  A    between atoms: _38  and  _43
REMARK    7  A    between atoms: _43  and  _46
REMARK    8  A    between atoms: _53  and  _55
REMARK                            x       y       z     vdW  Elec       q    Type
REMARK                         _______ _______ _______ _____ _____    ______ ____
ROOT
ATOM     10  C   UNL     1     -67.043  -1.383  33.077  0.00  0.00    +0.038 A 
ATOM     11  C   UNL     1     -66.088  -0.642  32.335  0.00  0.00    +0.047 A 
ATOM     12  C   UNL     1     -65.737   0.719  32.708  0.00  0.00    +0.035 A 
ATOM     32  C   UNL     1     -66.377   1.295  33.844  0.00  0.00    +0.024 A 
ATOM     33  C   UNL     1     -67.352   0.557  34.608  0.00  0.00    +0.007 A 
ATOM     34  C   UNL     1     -67.703  -0.786  34.244  0.00  0.00    -0.029 A 
ATOM     35  C   UNL     1     -68.759  -1.528  35.096  0.00  0.00    +0.045 C 
ENDROOT
BRANCH  10   9
ATOM      4  C   UNL     1     -69.280  -4.522  30.217  0.00  0.00    +0.077 A 
ATOM      5  C   UNL     1     -69.929  -3.478  29.479  0.00  0.00    +0.048 A 
ATOM      6  C   UNL     1     -69.667  -2.146  29.872  0.00  0.00    +0.116 A 
ATOM      7  N   UNL     1     -68.816  -1.890  30.925  0.00  0.00    -0.223 NA
ATOM      8  C   UNL     1     -68.207  -2.921  31.617  0.00  0.00    +0.220 A 
ATOM      9  N   UNL     1     -67.342  -2.687  32.674  0.00  0.00    -0.283 N 
ATOM     36  H   UNL     1     -66.918  -3.475  33.164  0.00  0.00    +0.155 HD
ATOM     37  N   UNL     1     -68.443  -4.201  31.262  0.00  0.00    -0.214 NA
BRANCH   4   3
ATOM      1  C   UNL     1     -68.595  -8.222  29.147  0.00  0.00    +0.020 A 
ATOM      2  C   UNL     1     -68.375  -6.820  29.418  0.00  0.00    +0.013 A 
ATOM      3  C   UNL     1     -69.454  -5.979  29.920  0.00  0.00    +0.019 A 
ATOM     38  C   UNL     1     -70.755  -6.593  30.141  0.00  0.00    +0.120 A 
ATOM     39  N   UNL     1     -70.938  -7.946  29.870  0.00  0.00    -0.263 NA
ATOM     40  C   UNL     1     -69.907  -8.764  29.385  0.00  0.00    +0.111 A 
ENDBRANCH   4   3
ENDBRANCH  10   9
BRANCH  12  13
ATOM     13  N   UNL     1     -64.781   1.523  31.988  0.00  0.00    -0.281 N 
ATOM     14  C   UNL     1     -63.418   1.633  32.215  0.00  0.00    +0.248 C 
ATOM     30  O   UNL     1     -62.848   1.217  33.213  0.00  0.00    -0.270 OA
ATOM     31  H   UNL     1     -65.153   2.079  31.218  0.00  0.00    +0.155 HD
BRANCH  14  15
ATOM     15  C   UNL     1     -62.569   2.316  31.192  0.00  0.00    +0.037 A 
ATOM     16  C   UNL     1     -61.219   2.785  31.516  0.00  0.00    +0.013 A 
ATOM     17  C   UNL     1     -60.427   3.456  30.516  0.00  0.00    +0.005 A 
ATOM     18  C   UNL     1     -60.983   3.660  29.180  0.00  0.00    -0.033 A 
ATOM     28  C   UNL     1     -62.323   3.179  28.884  0.00  0.00    +0.005 A 
ATOM     29  C   UNL     1     -63.102   2.522  29.863  0.00  0.00    +0.013 A 
BRANCH  18  19
ATOM     19  C   UNL     1     -60.218   4.384  28.057  0.00  0.00    +0.119 C 
BRANCH  19  20
ATOM     20  N   UNL     1     -60.236   5.877  28.070  0.00  0.00    -0.302 NA
ATOM     21  C   UNL     1     -61.449   6.443  27.326  0.00  0.00    +0.066 C 
ATOM     22  C   UNL     1     -61.464   8.006  27.368  0.00  0.00    -0.064 C 
ATOM     23  N   UNL     1     -60.163   8.542  26.770  0.00  0.00    +0.379 N 
ATOM     24  C   UNL     1     -60.199  10.012  26.755  0.00  0.00    -0.096 C 
ATOM     25  H   UNL     1     -60.109   8.194  25.712  0.00  0.00    -0.082 HD
ATOM     26  C   UNL     1     -58.952   7.982  27.502  0.00  0.00    -0.064 C 
ATOM     27  C   UNL     1     -58.962   6.428  27.479  0.00  0.00    +0.066 C 
ENDBRANCH  19  20
ENDBRANCH  18  19
ENDBRANCH  14  15
ENDBRANCH  12  13
TORSDOF 6
ENDMDL
MODEL 4
REMARK VINA RESULT:      -6.7      7.058     12.798
REMARK  Name = C:\Users\Docking\Desktop\test protocol\1iep_ligandH.pdb
REMARK  8 active torsions:
REMARK  status: ('A' for Active; 'I' for Inactive)
REMARK    1  A    between atoms: _5  and  _11
REMARK    2  A    between atoms: _19  and  _21
REMARK    3  A    between atoms: _22  and  _66
REMARK    4  A    between atoms: _27  and  _30
REMARK    5  A    between atoms: _32  and  _33
REMARK    6  A    between atoms: _38  and  _43
REMARK    7  A    between atoms: _43  and  _46
REMARK    8  A    between atoms: _53  and  _55
REMARK                            x       y       z     vdW  Elec       q    Type
REMARK                         _______ _______ _______ _____ _____    ______ ____
ROOT
ATOM     10  C   UNL     1     -67.926  -2.066  33.496  0.00  0.00    +0.038 A 
ATOM     11  C   UNL     1     -66.886  -1.317  32.889  0.00  0.00    +0.047 A 
ATOM     12  C   UNL     1     -67.177  -0.287  31.903  0.00  0.00    +0.035 A 
ATOM     32  C   UNL     1     -68.539  -0.046  31.560  0.00  0.00    +0.024 A 
ATOM     33  C   UNL     1     -69.609  -0.799  32.166  0.00  0.00    +0.007 A 
ATOM     34  C   UNL     1     -69.328  -1.817  33.137  0.00  0.00    -0.029 A 
ATOM     35  C   UNL     1     -70.514  -2.597  33.750  0.00  0.00    +0.045 C 
ENDROOT
BRANCH  10   9
ATOM      4  C   UNL     1     -66.883  -3.450  37.972  0.00  0.00    +0.077 A 
ATOM      5  C   UNL     1     -66.990  -2.110  38.474  0.00  0.00    +0.048 A 
ATOM      6  C   UNL     1     -67.308  -1.093  37.546  0.00  0.00    +0.116 A 
ATOM      7  N   UNL     1     -67.503  -1.404  36.218  0.00  0.00    -0.223 NA
ATOM      8  C   UNL     1     -67.391  -2.706  35.766  0.00  0.00    +0.220 A 
ATOM      9  N   UNL     1     -67.591  -3.042  34.436  0.00  0.00    -0.283 N 
ATOM     36  H   UNL     1     -67.491  -4.013  34.141  0.00  0.00    +0.155 HD
ATOM     37  N   UNL     1     -67.086  -3.695  36.632  0.00  0.00    -0.214 NA
BRANCH   4   3
ATOM      1  C   UNL     1     -66.693  -7.087  39.398  0.00  0.00    +0.020 A 
ATOM      2  C   UNL     1     -67.038  -5.978  38.538  0.00  0.00    +0.013 A 
ATOM      3  C   UNL     1     -66.557  -4.633  38.828  0.00  0.00    +0.019 A 
ATOM     38  C   UNL     1     -65.721  -4.443  40.004  0.00  0.00    +0.120 A 
ATOM     39  N   UNL     1     -65.406  -5.530  40.814  0.00  0.00    -0.263 NA
ATOM     40  C   UNL     1     -65.865  -6.828  40.546  0.00  0.00    +0.111 A 
ENDBRANCH   4   3
ENDBRANCH  10   9
BRANCH  12  13
ATOM     13  N   UNL     1     -66.162   0.500  31.248  0.00  0.00    -0.281 N 
ATOM     14  C   UNL     1     -65.247   1.364  31.828  0.00  0.00    +0.248 C 
ATOM     30  O   UNL     1     -65.304   1.756  32.984  0.00  0.00    -0.270 OA
ATOM     31  H   UNL     1     -66.111   0.409  30.233  0.00  0.00    +0.155 HD
BRANCH  14  15
ATOM     15  C   UNL     1     -64.115   1.879  31.000  0.00  0.00    +0.037 A 
ATOM     16  C   UNL     1     -64.269   2.111  29.561  0.00  0.00    +0.013 A 
ATOM     17  C   UNL     1     -63.155   2.592  28.783  0.00  0.00    +0.005 A 
ATOM     18  C   UNL     1     -61.876   2.845  29.443  0.00  0.00    -0.033 A 
ATOM     28  C   UNL     1     -61.752   2.610  30.872  0.00  0.00    +0.005 A 
ATOM     29  C   UNL     1     -62.842   2.138  31.638  0.00  0.00    +0.013 A 
BRANCH  18  19
ATOM     19  C   UNL     1     -60.628   3.338  28.687  0.00  0.00    +0.119 C 
BRANCH  19  20
ATOM     20  N   UNL     1     -60.665   4.727  28.139  0.00  0.00    -0.302 NA
ATOM     21  C   UNL     1     -59.626   4.937  27.035  0.00  0.00    +0.066 C 
ATOM     22  C   UNL     1     -59.694   6.388  26.457  0.00  0.00    -0.064 C 
ATOM     23  N   UNL     1     -59.491   7.395  27.591  0.00  0.00    +0.379 N 
ATOM     24  C   UNL     1     -59.496   8.759  27.042  0.00  0.00    -0.096 C 
ATOM     25  H   UNL     1     -58.483   7.211  28.030  0.00  0.00    -0.082 HD
ATOM     26  C   UNL     1     -60.519   7.192  28.695  0.00  0.00    -0.064 C 
ATOM     27  C   UNL     1     -60.463   5.738  29.241  0.00  0.00    +0.066 C 
ENDBRANCH  19  20
ENDBRANCH  18  19
ENDBRANCH  14  15
ENDBRANCH  12  13
TORSDOF 6
ENDMDL
MODEL 5
REMARK VINA RESULT:      -6.6      1.521      2.248
REMARK  Name = C:\Users\Docking\Desktop\test protocol\1iep_ligandH.pdb
REMARK  8 active torsions:
REMARK  status: ('A' for Active; 'I' for Inactive)
REMARK    1  A    between atoms: _5  and  _11
REMARK    2  A    between atoms: _19  and  _21
REMARK    3  A    between atoms: _22  and  _66
REMARK    4  A    between atoms: _27  and  _30
REMARK    5  A    between atoms: _32  and  _33
REMARK    6  A    between atoms: _38  and  _43
REMARK    7  A    between atoms: _43  and  _46
REMARK    8  A    between atoms: _53  and  _55
REMARK                            x       y       z     vdW  Elec       q    Type
REMARK                         _______ _______ _______ _____ _____    ______ ____
ROOT
ATOM     10  C   UNL     1     -60.401   7.685  28.428  0.00  0.00    +0.038 A 
ATOM     11  C   UNL     1     -59.227   7.810  29.214  0.00  0.00    +0.047 A 
ATOM     12  C   UNL     1     -58.140   8.688  28.808  0.00  0.00    +0.035 A 
ATOM     32  C   UNL     1     -58.284   9.426  27.597  0.00  0.00    +0.024 A 
ATOM     33  C   UNL     1     -59.470   9.310  26.786  0.00  0.00    +0.007 A 
ATOM     34  C   UNL     1     -60.544   8.444  27.180  0.00  0.00    -0.029 A 
ATOM     35  C   UNL     1     -61.790   8.354  26.268  0.00  0.00    +0.045 C 
ENDROOT
BRANCH  10   9
ATOM      4  C   UNL     1     -62.288   3.309  29.000  0.00  0.00    +0.077 A 
ATOM      5  C   UNL     1     -61.176   2.680  28.349  0.00  0.00    +0.048 A 
ATOM      6  C   UNL     1     -60.142   3.518  27.874  0.00  0.00    +0.116 A 
ATOM      7  N   UNL     1     -60.225   4.883  28.045  0.00  0.00    -0.223 NA
ATOM      8  C   UNL     1     -61.313   5.458  28.676  0.00  0.00    +0.220 A 
ATOM      9  N   UNL     1     -61.413   6.828  28.866  0.00  0.00    -0.283 N 
ATOM     36  H   UNL     1     -62.235   7.214  29.330  0.00  0.00    +0.155 HD
ATOM     37  N   UNL     1     -62.314   4.679  29.137  0.00  0.00    -0.214 NA
BRANCH   4   3
ATOM      1  C   UNL     1     -65.706   1.437  29.337  0.00  0.00    +0.020 A 
ATOM      2  C   UNL     1     -64.604   2.162  28.749  0.00  0.00    +0.013 A 
ATOM      3  C   UNL     1     -63.457   2.558  29.558  0.00  0.00    +0.019 A 
ATOM     38  C   UNL     1     -63.457   2.201  30.968  0.00  0.00    +0.120 A 
ATOM     39  N   UNL     1     -64.534   1.503  31.507  0.00  0.00    -0.263 NA
ATOM     40  C   UNL     1     -65.644   1.119  30.739  0.00  0.00    +0.111 A 
ENDBRANCH   4   3
ENDBRANCH  10   9
BRANCH  12  13
ATOM     13  N   UNL     1     -56.920   8.849  29.561  0.00  0.00    -0.281 N 
ATOM     14  C   UNL     1     -56.725   9.585  30.718  0.00  0.00    +0.248 C 
ATOM     30  O   UNL     1     -57.525  10.393  31.167  0.00  0.00    -0.270 OA
ATOM     31  H   UNL     1     -56.102   8.362  29.196  0.00  0.00    +0.155 HD
BRANCH  14  15
ATOM     15  C   UNL     1     -55.452   9.407  31.480  0.00  0.00    +0.037 A 
ATOM     16  C   UNL     1     -54.329  10.333  31.310  0.00  0.00    +0.013 A 
ATOM     17  C   UNL     1     -53.106  10.129  32.045  0.00  0.00    +0.005 A 
ATOM     18  C   UNL     1     -53.000   8.994  32.958  0.00  0.00    -0.033 A 
ATOM     28  C   UNL     1     -54.131   8.094  33.112  0.00  0.00    +0.005 A 
ATOM     29  C   UNL     1     -55.331   8.290  32.393  0.00  0.00    +0.013 A 
BRANCH  18  19
ATOM     19  C   UNL     1     -51.725   8.687  33.767  0.00  0.00    +0.119 C 
BRANCH  19  20
ATOM     20  N   UNL     1     -51.868   8.567  35.249  0.00  0.00    -0.302 NA
ATOM     21  C   UNL     1     -51.252   9.761  35.984  0.00  0.00    +0.066 C 
ATOM     22  C   UNL     1     -51.430   9.631  37.531  0.00  0.00    -0.064 C 
ATOM     23  N   UNL     1     -50.800   8.320  38.005  0.00  0.00    +0.379 N 
ATOM     24  C   UNL     1     -50.915   8.221  39.468  0.00  0.00    -0.096 C 
ATOM     25  H   UNL     1     -49.715   8.355  37.752  0.00  0.00    -0.082 HD
ATOM     26  C   UNL     1     -51.405   7.127  37.278  0.00  0.00    -0.064 C 
ATOM     27  C   UNL     1     -51.249   7.282  35.739  0.00  0.00    +0.066 C 
ENDBRANCH  19  20
ENDBRANCH  18  19
ENDBRANCH  14  15
ENDBRANCH  12  13
TORSDOF 6
ENDMDL
