MODEL 1
REMARK VINA RESULT:      -4.0      0.000      0.000
REMARK  Name = C:\Users\Docking\Desktop\test protocol\1iep_ligandH.pdb
REMARK  8 active torsions:
REMARK  status: ('A' for Active; 'I' for Inactive)
REMARK    1  A    between atoms: _5  and  _11
REMARK    2  A    between atoms: _19  and  _21
REMARK    3  A    between atoms: _22  and  _66
REMARK    4  A    between atoms: _27  and  _30
REMARK    5  A    between atoms: _32  and  _33
REMARK    6  A    between atoms: _38  and  _43
REMARK    7  A    between atoms: _43  and  _46
REMARK    8  A    between atoms: _53  and  _55
REMARK                            x       y       z     vdW  Elec       q    Type
REMARK                         _______ _______ _______ _____ _____    ______ ____
ROOT
ATOM     10  C   UNL     1      16.779  10.150   4.598  0.00  0.00    +0.038 A 
ATOM     11  C   UNL     1      15.869  11.220   4.792  0.00  0.00    +0.047 A 
ATOM     12  C   UNL     1      14.918  11.595   3.757  0.00  0.00    +0.035 A 
ATOM     32  C   UNL     1      14.920  10.857   2.537  0.00  0.00    +0.024 A 
ATOM     33  C   UNL     1      15.839   9.767   2.323  0.00  0.00    +0.007 A 
ATOM     34  C   UNL     1      16.781   9.394   3.339  0.00  0.00    -0.029 A 
ATOM     35  C   UNL     1      17.748   8.222   3.053  0.00  0.00    +0.045 C 
ENDROOT
BRANCH  10   9
ATOM      4  C   UNL     1      17.927   7.828   8.639  0.00  0.00    +0.077 A 
ATOM      5  C   UNL     1      16.632   7.218   8.726  0.00  0.00    +0.048 A 
ATOM      6  C   UNL     1      15.696   7.533   7.715  0.00  0.00    +0.116 A 
ATOM      7  N   UNL     1      16.042   8.395   6.697  0.00  0.00    -0.223 NA
ATOM      8  C   UNL     1      17.299   8.968   6.644  0.00  0.00    +0.220 A 
ATOM      9  N   UNL     1      17.671   9.832   5.625  0.00  0.00    -0.283 N 
ATOM     36  H   UNL     1      18.605  10.240   5.626  0.00  0.00    +0.155 HD
ATOM     37  N   UNL     1      18.210   8.685   7.598  0.00  0.00    -0.214 NA
BRANCH   4   3
ATOM      1  C   UNL     1      19.893   7.333  11.984  0.00  0.00    +0.020 A 
ATOM      2  C   UNL     1      18.799   7.566  11.070  0.00  0.00    +0.013 A 
ATOM      3  C   UNL     1      19.024   7.592   9.630  0.00  0.00    +0.019 A 
ATOM     38  C   UNL     1      20.378   7.376   9.144  0.00  0.00    +0.120 A 
ATOM     39  N   UNL     1      21.412   7.155  10.049  0.00  0.00    -0.263 NA
ATOM     40  C   UNL     1      21.208   7.130  11.437  0.00  0.00    +0.111 A 
ENDBRANCH   4   3
ENDBRANCH  10   9
BRANCH  12  13
ATOM     13  N   UNL     1      13.975  12.677   3.894  0.00  0.00    -0.281 N 
ATOM     14  C   UNL     1      13.871  13.820   3.117  0.00  0.00    +0.248 C 
ATOM     30  O   UNL     1      14.715  14.188   2.314  0.00  0.00    -0.270 OA
ATOM     31  H   UNL     1      13.302  12.591   4.656  0.00  0.00    +0.155 HD
BRANCH  14  15
ATOM     15  C   UNL     1      12.662  14.686   3.264  0.00  0.00    +0.037 A 
ATOM     16  C   UNL     1      12.690  16.101   2.886  0.00  0.00    +0.013 A 
ATOM     17  C   UNL     1      11.514  16.918   3.054  0.00  0.00    +0.005 A 
ATOM     18  C   UNL     1      10.299  16.320   3.603  0.00  0.00    -0.033 A 
ATOM     28  C   UNL     1      10.297  14.912   3.965  0.00  0.00    +0.005 A 
ATOM     29  C   UNL     1      11.448  14.109   3.803  0.00  0.00    +0.013 A 
BRANCH  18  19
ATOM     19  C   UNL     1       9.005  17.121   3.837  0.00  0.00    +0.119 C 
BRANCH  19  20
ATOM     20  N   UNL     1       8.141  16.707   4.983  0.00  0.00    -0.302 NA
ATOM     21  C   UNL     1       6.808  16.118   4.514  0.00  0.00    +0.066 C 
ATOM     22  C   UNL     1       5.926  15.669   5.724  0.00  0.00    -0.064 C 
ATOM     23  N   UNL     1       5.695  16.862   6.654  0.00  0.00    +0.379 N 
ATOM     24  C   UNL     1       4.819  16.458   7.763  0.00  0.00    -0.096 C 
ATOM     25  H   UNL     1       5.161  17.647   6.069  0.00  0.00    -0.082 HD
ATOM     26  C   UNL     1       7.016  17.455   7.122  0.00  0.00    -0.064 C 
ATOM     27  C   UNL     1       7.897  17.871   5.911  0.00  0.00    +0.066 C 
ENDBRANCH  19  20
ENDBRANCH  18  19
ENDBRANCH  14  15
ENDBRANCH  12  13
TORSDOF 6
ENDMDL
MODEL 2
REMARK VINA RESULT:      -3.9      1.656      2.160
REMARK  Name = C:\Users\Docking\Desktop\test protocol\1iep_ligandH.pdb
REMARK  8 active torsions:
REMARK  status: ('A' for Active; 'I' for Inactive)
REMARK    1  A    between atoms: _5  and  _11
REMARK    2  A    between atoms: _19  and  _21
REMARK    3  A    between atoms: _22  and  _66
REMARK    4  A    between atoms: _27  and  _30
REMARK    5  A    between atoms: _32  and  _33
REMARK    6  A    between atoms: _38  and  _43
REMARK    7  A    between atoms: _43  and  _46
REMARK    8  A    between atoms: _53  and  _55
REMARK                            x       y       z     vdW  Elec       q    Type
REMARK                         _______ _______ _______ _____ _____    ______ ____
ROOT
ATOM     10  C   UNL     1      17.385   9.834   3.651  0.00  0.00    +0.038 A 
ATOM     11  C   UNL     1      16.658  11.051   3.702  0.00  0.00    +0.047 A 
ATOM     12  C   UNL     1      15.808  11.468   2.598  0.00  0.00    +0.035 A 
ATOM     32  C   UNL     1      15.720  10.620   1.456  0.00  0.00    +0.024 A 
ATOM     33  C   UNL     1      16.452   9.379   1.386  0.00  0.00    +0.007 A 
ATOM     34  C   UNL     1      17.294   8.964   2.472  0.00  0.00    -0.029 A 
ATOM     35  C   UNL     1      18.061   7.628   2.340  0.00  0.00    +0.045 C 
ENDROOT
BRANCH  10   9
ATOM      4  C   UNL     1      18.008   7.879   7.989  0.00  0.00    +0.077 A 
ATOM      5  C   UNL     1      16.616   7.554   8.108  0.00  0.00    +0.048 A 
ATOM      6  C   UNL     1      15.772   7.913   7.033  0.00  0.00    +0.116 A 
ATOM      7  N   UNL     1      16.292   8.550   5.927  0.00  0.00    -0.223 NA
ATOM      8  C   UNL     1      17.639   8.850   5.846  0.00  0.00    +0.220 A 
ATOM      9  N   UNL     1      18.185   9.483   4.740  0.00  0.00    -0.283 N 
ATOM     36  H   UNL     1      19.183   9.694   4.721  0.00  0.00    +0.155 HD
ATOM     37  N   UNL     1      18.466   8.519   6.859  0.00  0.00    -0.214 NA
BRANCH   4   3
ATOM      1  C   UNL     1      21.313   6.792   9.776  0.00  0.00    +0.020 A 
ATOM      2  C   UNL     1      20.367   7.084   8.724  0.00  0.00    +0.013 A 
ATOM      3  C   UNL     1      19.027   7.561   9.039  0.00  0.00    +0.019 A 
ATOM     38  C   UNL     1      18.673   7.735  10.440  0.00  0.00    +0.120 A 
ATOM     39  N   UNL     1      19.604   7.444  11.432  0.00  0.00    -0.263 NA
ATOM     40  C   UNL     1      20.897   6.982  11.141  0.00  0.00    +0.111 A 
ENDBRANCH   4   3
ENDBRANCH  10   9
BRANCH  12  13
ATOM     13  N   UNL     1      15.054  12.697   2.590  0.00  0.00    -0.281 N 
ATOM     14  C   UNL     1      15.202  13.782   1.742  0.00  0.00    +0.248 C 
ATOM     30  O   UNL     1      16.153  13.950   0.993  0.00  0.00    -0.270 OA
ATOM     31  H   UNL     1      14.322  12.776   3.296  0.00  0.00    +0.155 HD
BRANCH  14  15
ATOM     15  C   UNL     1      14.148  14.842   1.735  0.00  0.00    +0.037 A 
ATOM     16  C   UNL     1      13.962  15.722   0.579  0.00  0.00    +0.013 A 
ATOM     17  C   UNL     1      12.950  16.747   0.605  0.00  0.00    +0.005 A 
ATOM     18  C   UNL     1      12.113  16.897   1.793  0.00  0.00    -0.033 A 
ATOM     28  C   UNL     1      12.315  16.007   2.924  0.00  0.00    +0.005 A 
ATOM     29  C   UNL     1      13.307  15.002   2.903  0.00  0.00    +0.013 A 
BRANCH  18  19
ATOM     19  C   UNL     1      11.022  17.978   1.917  0.00  0.00    +0.119 C 
BRANCH  19  20
ATOM     20  N   UNL     1       9.864  17.681   2.812  0.00  0.00    -0.302 NA
ATOM     21  C   UNL     1       8.731  16.968   2.069  0.00  0.00    +0.066 C 
ATOM     22  C   UNL     1       7.538  16.645   3.025  0.00  0.00    -0.064 C 
ATOM     23  N   UNL     1       7.035  17.940   3.664  0.00  0.00    +0.379 N 
ATOM     24  C   UNL     1       5.875  17.648   4.519  0.00  0.00    -0.096 C 
ATOM     25  H   UNL     1       6.689  18.610   2.843  0.00  0.00    -0.082 HD
ATOM     26  C   UNL     1       8.156  18.657   4.403  0.00  0.00    -0.064 C 
ATOM     27  C   UNL     1       9.349  18.947   3.450  0.00  0.00    +0.066 C 
ENDBRANCH  19  20
ENDBRANCH  18  19
ENDBRANCH  14  15
ENDBRANCH  12  13
TORSDOF 6
ENDMDL
MODEL 3
REMARK VINA RESULT:      -3.9      6.187      8.044
REMARK  Name = C:\Users\Docking\Desktop\test protocol\1iep_ligandH.pdb
REMARK  8 active torsions:
REMARK  status: ('A' for Active; 'I' for Inactive)
REMARK    1  A    between atoms: _5  and  _11
REMARK    2  A    between atoms: _19  and  _21
REMARK    3  A    between atoms: _22  and  _66
REMARK    4  A    between atoms: _27  and  _30
REMARK    5  A    between atoms: _32  and  _33
REMARK    6  A    between atoms: _38  and  _43
REMARK    7  A    between atoms: _43  and  _46
REMARK    8  A    between atoms: _53  and  _55
REMARK                            x       y       z     vdW  Elec       q    Type
REMARK                         _______ _______ _______ _____ _____    ______ ____
ROOT
ATOM     10  C   UNL     1      12.423   9.607   5.489  0.00  0.00    +0.038 A 
ATOM     11  C   UNL     1      12.651  10.669   6.401  0.00  0.00    +0.047 A 
ATOM     12  C   UNL     1      11.623  11.660   6.675  0.00  0.00    +0.035 A 
ATOM     32  C   UNL     1      10.371  11.538   6.004  0.00  0.00    +0.024 A 
ATOM     33  C   UNL     1      10.123  10.466   5.072  0.00  0.00    +0.007 A 
ATOM     34  C   UNL     1      11.134   9.487   4.796  0.00  0.00    -0.029 A 
ATOM     35  C   UNL     1      10.815   8.362   3.784  0.00  0.00    +0.045 C 
ENDROOT
BRANCH  10   9
ATOM      4  C   UNL     1      16.555   8.284   3.436  0.00  0.00    +0.077 A 
ATOM      5  C   UNL     1      16.672   9.529   2.732  0.00  0.00    +0.048 A 
ATOM      6  C   UNL     1      15.644  10.480   2.920  0.00  0.00    +0.116 A 
ATOM      7  N   UNL     1      14.583  10.197   3.753  0.00  0.00    -0.223 NA
ATOM      8  C   UNL     1      14.500   8.986   4.415  0.00  0.00    +0.220 A 
ATOM      9  N   UNL     1      13.446   8.683   5.264  0.00  0.00    -0.283 N 
ATOM     36  H   UNL     1      13.417   7.776   5.728  0.00  0.00    +0.155 HD
ATOM     37  N   UNL     1      15.468   8.061   4.252  0.00  0.00    -0.214 NA
BRANCH   4   3
ATOM      1  C   UNL     1      18.777   5.177   4.279  0.00  0.00    +0.020 A 
ATOM      2  C   UNL     1      17.792   6.225   4.420  0.00  0.00    +0.013 A 
ATOM      3  C   UNL     1      17.562   7.180   3.344  0.00  0.00    +0.019 A 
ATOM     38  C   UNL     1      18.351   7.046   2.128  0.00  0.00    +0.120 A 
ATOM     39  N   UNL     1      19.294   6.028   2.022  0.00  0.00    -0.263 NA
ATOM     40  C   UNL     1      19.525   5.104   3.052  0.00  0.00    +0.111 A 
ENDBRANCH   4   3
ENDBRANCH  10   9
BRANCH  12  13
ATOM     13  N   UNL     1      11.800  12.764   7.586  0.00  0.00    -0.281 N 
ATOM     14  C   UNL     1      11.611  12.775   8.958  0.00  0.00    +0.248 C 
ATOM     30  O   UNL     1      11.051  11.889   9.586  0.00  0.00    -0.270 OA
ATOM     31  H   UNL     1      12.102  13.644   7.167  0.00  0.00    +0.155 HD
BRANCH  14  15
ATOM     15  C   UNL     1      12.101  13.948   9.745  0.00  0.00    +0.037 A 
ATOM     16  C   UNL     1      11.346  15.202   9.790  0.00  0.00    +0.013 A 
ATOM     17  C   UNL     1      11.850  16.323  10.543  0.00  0.00    +0.005 A 
ATOM     18  C   UNL     1      13.117  16.193  11.259  0.00  0.00    -0.033 A 
ATOM     28  C   UNL     1      13.843  14.936  11.201  0.00  0.00    +0.005 A 
ATOM     29  C   UNL     1      13.352  13.835  10.463  0.00  0.00    +0.013 A 
BRANCH  18  19
ATOM     19  C   UNL     1      13.741  17.345  12.070  0.00  0.00    +0.119 C 
BRANCH  19  20
ATOM     20  N   UNL     1      15.226  17.342  12.230  0.00  0.00    -0.302 NA
ATOM     21  C   UNL     1      15.650  17.705  13.656  0.00  0.00    +0.066 C 
ATOM     22  C   UNL     1      17.206  17.675  13.811  0.00  0.00    -0.064 C 
ATOM     23  N   UNL     1      17.835  18.633  12.798  0.00  0.00    +0.379 N 
ATOM     24  C   UNL     1      19.294  18.650  12.981  0.00  0.00    -0.096 C 
ATOM     25  H   UNL     1      17.454  19.657  13.019  0.00  0.00    -0.082 HD
ATOM     26  C   UNL     1      17.416  18.280  11.378  0.00  0.00    -0.064 C 
ATOM     27  C   UNL     1      15.868  18.284  11.242  0.00  0.00    +0.066 C 
ENDBRANCH  19  20
ENDBRANCH  18  19
ENDBRANCH  14  15
ENDBRANCH  12  13
TORSDOF 6
ENDMDL
MODEL 4
REMARK VINA RESULT:      -3.8      2.604      4.795
REMARK  Name = C:\Users\Docking\Desktop\test protocol\1iep_ligandH.pdb
REMARK  8 active torsions:
REMARK  status: ('A' for Active; 'I' for Inactive)
REMARK    1  A    between atoms: _5  and  _11
REMARK    2  A    between atoms: _19  and  _21
REMARK    3  A    between atoms: _22  and  _66
REMARK    4  A    between atoms: _27  and  _30
REMARK    5  A    between atoms: _32  and  _33
REMARK    6  A    between atoms: _38  and  _43
REMARK    7  A    between atoms: _43  and  _46
REMARK    8  A    between atoms: _53  and  _55
REMARK                            x       y       z     vdW  Elec       q    Type
REMARK                         _______ _______ _______ _____ _____    ______ ____
ROOT
ATOM     10  C   UNL     1      18.026   7.496   7.764  0.00  0.00    +0.038 A 
ATOM     11  C   UNL     1      17.579   8.730   7.226  0.00  0.00    +0.047 A 
ATOM     12  C   UNL     1      16.596   8.771   6.154  0.00  0.00    +0.035 A 
ATOM     32  C   UNL     1      16.087   7.537   5.657  0.00  0.00    +0.024 A 
ATOM     33  C   UNL     1      16.531   6.273   6.191  0.00  0.00    +0.007 A 
ATOM     34  C   UNL     1      17.502   6.226   7.247  0.00  0.00    -0.029 A 
ATOM     35  C   UNL     1      17.946   4.843   7.777  0.00  0.00    +0.045 C 
ENDROOT
BRANCH  10   9
ATOM      4  C   UNL     1      19.226   7.631  12.409  0.00  0.00    +0.077 A 
ATOM      5  C   UNL     1      17.853   7.697  12.823  0.00  0.00    +0.048 A 
ATOM      6  C   UNL     1      16.870   7.702  11.808  0.00  0.00    +0.116 A 
ATOM      7  N   UNL     1      17.242   7.643  10.483  0.00  0.00    -0.223 NA
ATOM      8  C   UNL     1      18.574   7.582  10.119  0.00  0.00    +0.220 A 
ATOM      9  N   UNL     1      18.971   7.515   8.792  0.00  0.00    -0.283 N 
ATOM     36  H   UNL     1      19.965   7.478   8.564  0.00  0.00    +0.155 HD
ATOM     37  N   UNL     1      19.533   7.578  11.068  0.00  0.00    -0.214 NA
BRANCH   4   3
ATOM      1  C   UNL     1      22.652   6.815  14.110  0.00  0.00    +0.020 A 
ATOM      2  C   UNL     1      21.565   6.793  13.159  0.00  0.00    +0.013 A 
ATOM      3  C   UNL     1      20.379   7.616  13.363  0.00  0.00    +0.019 A 
ATOM     38  C   UNL     1      20.325   8.456  14.550  0.00  0.00    +0.120 A 
ATOM     39  N   UNL     1      21.386   8.455  15.450  0.00  0.00    -0.263 NA
ATOM     40  C   UNL     1      22.532   7.667  15.264  0.00  0.00    +0.111 A 
ENDBRANCH   4   3
ENDBRANCH  10   9
BRANCH  12  13
ATOM     13  N   UNL     1      16.111   9.993   5.563  0.00  0.00    -0.281 N 
ATOM     14  C   UNL     1      16.683  10.729   4.538  0.00  0.00    +0.248 C 
ATOM     30  O   UNL     1      17.818  10.561   4.116  0.00  0.00    -0.270 OA
ATOM     31  H   UNL     1      15.240  10.361   5.946  0.00  0.00    +0.155 HD
BRANCH  14  15
ATOM     15  C   UNL     1      15.885  11.819   3.898  0.00  0.00    +0.037 A 
ATOM     16  C   UNL     1      14.873  12.563   4.653  0.00  0.00    +0.013 A 
ATOM     17  C   UNL     1      14.105  13.598   4.007  0.00  0.00    +0.005 A 
ATOM     18  C   UNL     1      14.348  13.896   2.598  0.00  0.00    -0.033 A 
ATOM     28  C   UNL     1      15.361  13.146   1.874  0.00  0.00    +0.005 A 
ATOM     29  C   UNL     1      16.115  12.130   2.504  0.00  0.00    +0.013 A 
BRANCH  18  19
ATOM     19  C   UNL     1      13.561  14.969   1.823  0.00  0.00    +0.119 C 
BRANCH  19  20
ATOM     20  N   UNL     1      12.591  15.799   2.598  0.00  0.00    -0.302 NA
ATOM     21  C   UNL     1      11.182  15.201   2.583  0.00  0.00    +0.066 C 
ATOM     22  C   UNL     1      10.185  16.070   3.417  0.00  0.00    -0.064 C 
ATOM     23  N   UNL     1      10.173  17.497   2.867  0.00  0.00    +0.379 N 
ATOM     24  C   UNL     1       9.195  18.302   3.612  0.00  0.00    -0.096 C 
ATOM     25  H   UNL     1       9.834  17.447   1.806  0.00  0.00    -0.082 HD
ATOM     26  C   UNL     1      11.571  18.099   2.875  0.00  0.00    -0.064 C 
ATOM     27  C   UNL     1      12.560  17.212   2.068  0.00  0.00    +0.066 C 
ENDBRANCH  19  20
ENDBRANCH  18  19
ENDBRANCH  14  15
ENDBRANCH  12  13
TORSDOF 6
ENDMDL
MODEL 5
REMARK VINA RESULT:      -3.8      2.804     12.454
REMARK  Name = C:\Users\Docking\Desktop\test protocol\1iep_ligandH.pdb
REMARK  8 active torsions:
REMARK  status: ('A' for Active; 'I' for Inactive)
REMARK    1  A    between atoms: _5  and  _11
REMARK    2  A    between atoms: _19  and  _21
REMARK    3  A    between atoms: _22  and  _66
REMARK    4  A    between atoms: _27  and  _30
REMARK    5  A    between atoms: _32  and  _33
REMARK    6  A    between atoms: _38  and  _43
REMARK    7  A    between atoms: _43  and  _46
REMARK    8  A    between atoms: _53  and  _55
REMARK                            x       y       z     vdW  Elec       q    Type
REMARK                         _______ _______ _______ _____ _____    ______ ____
ROOT
ATOM     10  C   UNL     1      16.360  11.220   3.857  0.00  0.00    +0.038 A 
ATOM     11  C   UNL     1      16.674  10.841   5.188  0.00  0.00    +0.047 A 
ATOM     12  C   UNL     1      17.366   9.594   5.472  0.00  0.00    +0.035 A 
ATOM     32  C   UNL     1      17.728   8.757   4.376  0.00  0.00    +0.024 A 
ATOM     33  C   UNL     1      17.417   9.126   3.018  0.00  0.00    +0.007 A 
ATOM     34  C   UNL     1      16.731  10.354   2.731  0.00  0.00    -0.029 A 
ATOM     35  C   UNL     1      16.417  10.695   1.256  0.00  0.00    +0.045 C 
ENDROOT
BRANCH  10   9
ATOM      4  C   UNL     1      12.362  13.864   3.614  0.00  0.00    +0.077 A 
ATOM      5  C   UNL     1      11.528  12.737   3.916  0.00  0.00    +0.048 A 
ATOM      6  C   UNL     1      12.166  11.493   4.120  0.00  0.00    +0.116 A 
ATOM      7  N   UNL     1      13.538  11.395   4.027  0.00  0.00    -0.223 NA
ATOM      8  C   UNL     1      14.313  12.502   3.732  0.00  0.00    +0.220 A 
ATOM      9  N   UNL     1      15.694  12.428   3.641  0.00  0.00    -0.283 N 
ATOM     36  H   UNL     1      16.230  13.266   3.415  0.00  0.00    +0.155 HD
ATOM     37  N   UNL     1      13.727  13.700   3.532  0.00  0.00    -0.214 NA
BRANCH   4   3
ATOM      1  C   UNL     1      12.120  17.662   2.711  0.00  0.00    +0.020 A 
ATOM      2  C   UNL     1      12.678  16.347   2.926  0.00  0.00    +0.013 A 
ATOM      3  C   UNL     1      11.836  15.245   3.376  0.00  0.00    +0.019 A 
ATOM     38  C   UNL     1      10.423  15.510   3.600  0.00  0.00    +0.120 A 
ATOM     39  N   UNL     1       9.914  16.787   3.386  0.00  0.00    -0.263 NA
ATOM     40  C   UNL     1      10.715  17.855   2.954  0.00  0.00    +0.111 A 
ENDBRANCH   4   3
ENDBRANCH  10   9
BRANCH  12  13
ATOM     13  N   UNL     1      17.704   9.154   6.803  0.00  0.00    -0.281 N 
ATOM     14  C   UNL     1      17.139   8.116   7.525  0.00  0.00    +0.248 C 
ATOM     30  O   UNL     1      16.106   7.540   7.216  0.00  0.00    -0.270 OA
ATOM     31  H   UNL     1      18.450   9.670   7.269  0.00  0.00    +0.155 HD
BRANCH  14  15
ATOM     15  C   UNL     1      17.811   7.660   8.780  0.00  0.00    +0.037 A 
ATOM     16  C   UNL     1      17.054   7.013   9.855  0.00  0.00    +0.013 A 
ATOM     17  C   UNL     1      17.724   6.598  11.063  0.00  0.00    +0.005 A 
ATOM     18  C   UNL     1      19.160   6.828  11.200  0.00  0.00    -0.033 A 
ATOM     28  C   UNL     1      19.887   7.466  10.115  0.00  0.00    +0.005 A 
ATOM     29  C   UNL     1      19.234   7.875   8.931  0.00  0.00    +0.013 A 
BRANCH  18  19
ATOM     19  C   UNL     1      19.953   6.437  12.461  0.00  0.00    +0.119 C 
BRANCH  19  20
ATOM     20  N   UNL     1      20.148   7.492  13.500  0.00  0.00    -0.302 NA
ATOM     21  C   UNL     1      21.606   7.953  13.582  0.00  0.00    +0.066 C 
ATOM     22  C   UNL     1      21.789   9.073  14.658  0.00  0.00    -0.064 C 
ATOM     23  N   UNL     1      21.307   8.556  16.015  0.00  0.00    +0.379 N 
ATOM     24  C   UNL     1      21.531   9.586  17.040  0.00  0.00    -0.096 C 
ATOM     25  H   UNL     1      21.932   7.672  16.281  0.00  0.00    -0.082 HD
ATOM     26  C   UNL     1      19.859   8.093  15.941  0.00  0.00    -0.064 C 
ATOM     27  C   UNL     1      19.683   7.001  14.849  0.00  0.00    +0.066 C 
ENDBRANCH  19  20
ENDBRANCH  18  19
ENDBRANCH  14  15
ENDBRANCH  12  13
TORSDOF 6
ENDMDL
