MODEL 1
REMARK VINA RESULT:      -7.1      0.000      0.000
REMARK  Name = C:\Users\Docking\Desktop\test protocol\1iep_ligandH.pdb
REMARK  8 active torsions:
REMARK  status: ('A' for Active; 'I' for Inactive)
REMARK    1  A    between atoms: _5  and  _11
REMARK    2  A    between atoms: _19  and  _21
REMARK    3  A    between atoms: _22  and  _66
REMARK    4  A    between atoms: _27  and  _30
REMARK    5  A    between atoms: _32  and  _33
REMARK    6  A    between atoms: _38  and  _43
REMARK    7  A    between atoms: _43  and  _46
REMARK    8  A    between atoms: _53  and  _55
REMARK                            x       y       z     vdW  Elec       q    Type
REMARK                         _______ _______ _______ _____ _____    ______ ____
ROOT
ATOM     10  C   UNL     1     -22.482 -31.466   2.129  0.00  0.00    +0.038 A 
ATOM     11  C   UNL     1     -23.252 -32.640   1.925  0.00  0.00    +0.047 A 
ATOM     12  C   UNL     1     -23.491 -33.581   3.008  0.00  0.00    +0.035 A 
ATOM     32  C   UNL     1     -22.934 -33.294   4.288  0.00  0.00    +0.024 A 
ATOM     33  C   UNL     1     -22.148 -32.106   4.513  0.00  0.00    +0.007 A 
ATOM     34  C   UNL     1     -21.906 -31.176   3.448  0.00  0.00    -0.029 A 
ATOM     35  C   UNL     1     -21.050 -29.922   3.745  0.00  0.00    +0.045 C 
ENDROOT
BRANCH  10   9
ATOM      4  C   UNL     1     -20.214 -30.159  -1.894  0.00  0.00    +0.077 A 
ATOM      5  C   UNL     1     -19.332 -31.289  -1.835  0.00  0.00    +0.048 A 
ATOM      6  C   UNL     1     -19.491 -32.179  -0.749  0.00  0.00    +0.116 A 
ATOM      7  N   UNL     1     -20.462 -31.947   0.201  0.00  0.00    -0.223 NA
ATOM      8  C   UNL     1     -21.295 -30.846   0.115  0.00  0.00    +0.220 A 
ATOM      9  N   UNL     1     -22.283 -30.597   1.054  0.00  0.00    -0.283 N 
ATOM     36  H   UNL     1     -22.873 -29.770   0.959  0.00  0.00    +0.155 HD
ATOM     37  N   UNL     1     -21.163 -29.981  -0.912  0.00  0.00    -0.214 NA
BRANCH   4   3
ATOM      1  C   UNL     1     -21.276 -27.647  -4.699  0.00  0.00    +0.020 A 
ATOM      2  C   UNL     1     -21.370 -28.641  -3.654  0.00  0.00    +0.013 A 
ATOM      3  C   UNL     1     -20.173 -29.132  -2.982  0.00  0.00    +0.019 A 
ATOM     38  C   UNL     1     -18.886 -28.591  -3.393  0.00  0.00    +0.120 A 
ATOM     39  N   UNL     1     -18.826 -27.636  -4.403  0.00  0.00    -0.263 NA
ATOM     40  C   UNL     1     -19.971 -27.158  -5.058  0.00  0.00    +0.111 A 
ENDBRANCH   4   3
ENDBRANCH  10   9
BRANCH  12  13
ATOM     13  N   UNL     1     -24.258 -34.793   2.858  0.00  0.00    -0.281 N 
ATOM     14  C   UNL     1     -23.863 -35.984   2.271  0.00  0.00    +0.248 C 
ATOM     30  O   UNL     1     -22.855 -36.119   1.593  0.00  0.00    -0.270 OA
ATOM     31  H   UNL     1     -25.208 -34.769   3.228  0.00  0.00    +0.155 HD
BRANCH  14  15
ATOM     15  C   UNL     1     -24.717 -37.197   2.453  0.00  0.00    +0.037 A 
ATOM     16  C   UNL     1     -25.229 -37.945   1.303  0.00  0.00    +0.013 A 
ATOM     17  C   UNL     1     -26.065 -39.102   1.506  0.00  0.00    +0.005 A 
ATOM     18  C   UNL     1     -26.393 -39.518   2.868  0.00  0.00    -0.033 A 
ATOM     28  C   UNL     1     -25.866 -38.760   3.991  0.00  0.00    +0.005 A 
ATOM     29  C   UNL     1     -25.048 -37.626   3.796  0.00  0.00    +0.013 A 
BRANCH  18  19
ATOM     19  C   UNL     1     -27.295 -40.727   3.179  0.00  0.00    +0.119 C 
BRANCH  19  20
ATOM     20  N   UNL     1     -27.519 -41.061   4.617  0.00  0.00    -0.302 NA
ATOM     21  C   UNL     1     -27.423 -42.567   4.878  0.00  0.00    +0.066 C 
ATOM     22  C   UNL     1     -27.637 -42.897   6.392  0.00  0.00    -0.064 C 
ATOM     23  N   UNL     1     -28.995 -42.354   6.841  0.00  0.00    +0.379 N 
ATOM     24  C   UNL     1     -29.225 -42.713   8.248  0.00  0.00    -0.096 C 
ATOM     25  H   UNL     1     -29.779 -42.859   6.231  0.00  0.00    -0.082 HD
ATOM     26  C   UNL     1     -29.100 -40.858   6.582  0.00  0.00    -0.064 C 
ATOM     27  C   UNL     1     -28.856 -40.539   5.081  0.00  0.00    +0.066 C 
ENDBRANCH  19  20
ENDBRANCH  18  19
ENDBRANCH  14  15
ENDBRANCH  12  13
TORSDOF 6
ENDMDL
MODEL 2
REMARK VINA RESULT:      -7.0     15.750     22.789
REMARK  Name = C:\Users\Docking\Desktop\test protocol\1iep_ligandH.pdb
REMARK  8 active torsions:
REMARK  status: ('A' for Active; 'I' for Inactive)
REMARK    1  A    between atoms: _5  and  _11
REMARK    2  A    between atoms: _19  and  _21
REMARK    3  A    between atoms: _22  and  _66
REMARK    4  A    between atoms: _27  and  _30
REMARK    5  A    between atoms: _32  and  _33
REMARK    6  A    between atoms: _38  and  _43
REMARK    7  A    between atoms: _43  and  _46
REMARK    8  A    between atoms: _53  and  _55
REMARK                            x       y       z     vdW  Elec       q    Type
REMARK                         _______ _______ _______ _____ _____    ______ ____
ROOT
ATOM     10  C   UNL     1     -42.546 -43.331   6.585  0.00  0.00    +0.038 A 
ATOM     11  C   UNL     1     -41.905 -42.178   6.064  0.00  0.00    +0.047 A 
ATOM     12  C   UNL     1     -42.603 -40.905   5.973  0.00  0.00    +0.035 A 
ATOM     32  C   UNL     1     -43.954 -40.842   6.424  0.00  0.00    +0.024 A 
ATOM     33  C   UNL     1     -44.621 -42.004   6.956  0.00  0.00    +0.007 A 
ATOM     34  C   UNL     1     -43.938 -43.263   7.045  0.00  0.00    -0.029 A 
ATOM     35  C   UNL     1     -44.704 -44.478   7.618  0.00  0.00    +0.045 C 
ENDROOT
BRANCH  10   9
ATOM      4  C   UNL     1     -39.987 -46.608   8.983  0.00  0.00    +0.077 A 
ATOM      5  C   UNL     1     -40.064 -45.860  10.205  0.00  0.00    +0.048 A 
ATOM      6  C   UNL     1     -40.766 -44.634  10.172  0.00  0.00    +0.116 A 
ATOM      7  N   UNL     1     -41.343 -44.198   8.999  0.00  0.00    -0.223 NA
ATOM      8  C   UNL     1     -41.248 -44.942   7.838  0.00  0.00    +0.220 A 
ATOM      9  N   UNL     1     -41.827 -44.527   6.649  0.00  0.00    -0.283 N 
ATOM     36  H   UNL     1     -41.728 -45.101   5.812  0.00  0.00    +0.155 HD
ATOM     37  N   UNL     1     -40.582 -46.116   7.843  0.00  0.00    -0.214 NA
BRANCH   4   3
ATOM      1  C   UNL     1     -38.463 -49.903   7.527  0.00  0.00    +0.020 A 
ATOM      2  C   UNL     1     -39.153 -48.636   7.594  0.00  0.00    +0.013 A 
ATOM      3  C   UNL     1     -39.283 -47.923   8.858  0.00  0.00    +0.019 A 
ATOM     38  C   UNL     1     -38.698 -48.525  10.047  0.00  0.00    +0.120 A 
ATOM     39  N   UNL     1     -38.041 -49.748   9.953  0.00  0.00    -0.263 NA
ATOM     40  C   UNL     1     -37.911 -50.443   8.742  0.00  0.00    +0.111 A 
ENDBRANCH   4   3
ENDBRANCH  10   9
BRANCH  12  13
ATOM     13  N   UNL     1     -42.007 -39.703   5.445  0.00  0.00    -0.281 N 
ATOM     14  C   UNL     1     -42.244 -39.101   4.220  0.00  0.00    +0.248 C 
ATOM     30  O   UNL     1     -42.851 -39.626   3.299  0.00  0.00    -0.270 OA
ATOM     31  H   UNL     1     -41.327 -39.239   6.048  0.00  0.00    +0.155 HD
BRANCH  14  15
ATOM     15  C   UNL     1     -41.719 -37.723   3.979  0.00  0.00    +0.037 A 
ATOM     16  C   UNL     1     -41.257 -36.881   5.086  0.00  0.00    +0.013 A 
ATOM     17  C   UNL     1     -40.771 -35.549   4.827  0.00  0.00    +0.005 A 
ATOM     18  C   UNL     1     -40.743 -35.051   3.454  0.00  0.00    -0.033 A 
ATOM     28  C   UNL     1     -41.203 -35.908   2.375  0.00  0.00    +0.005 A 
ATOM     29  C   UNL     1     -41.681 -37.214   2.625  0.00  0.00    +0.013 A 
BRANCH  18  19
ATOM     19  C   UNL     1     -40.261 -33.634   3.088  0.00  0.00    +0.119 C 
BRANCH  19  20
ATOM     20  N   UNL     1     -39.771 -33.418   1.694  0.00  0.00    -0.302 NA
ATOM     21  C   UNL     1     -38.243 -33.371   1.623  0.00  0.00    +0.066 C 
ATOM     22  C   UNL     1     -37.747 -33.166   0.154  0.00  0.00    -0.064 C 
ATOM     23  N   UNL     1     -38.356 -31.882  -0.413  0.00  0.00    +0.379 N 
ATOM     24  C   UNL     1     -37.847 -31.657  -1.773  0.00  0.00    -0.096 C 
ATOM     25  H   UNL     1     -38.009 -31.035   0.223  0.00  0.00    -0.082 HD
ATOM     26  C   UNL     1     -39.876 -31.920  -0.343  0.00  0.00    -0.064 C 
ATOM     27  C   UNL     1     -40.357 -32.153   1.116  0.00  0.00    +0.066 C 
ENDBRANCH  19  20
ENDBRANCH  18  19
ENDBRANCH  14  15
ENDBRANCH  12  13
TORSDOF 6
ENDMDL
MODEL 3
REMARK VINA RESULT:      -7.0     13.423     20.782
REMARK  Name = C:\Users\Docking\Desktop\test protocol\1iep_ligandH.pdb
REMARK  8 active torsions:
REMARK  status: ('A' for Active; 'I' for Inactive)
REMARK    1  A    between atoms: _5  and  _11
REMARK    2  A    between atoms: _19  and  _21
REMARK    3  A    between atoms: _22  and  _66
REMARK    4  A    between atoms: _27  and  _30
REMARK    5  A    between atoms: _32  and  _33
REMARK    6  A    between atoms: _38  and  _43
REMARK    7  A    between atoms: _43  and  _46
REMARK    8  A    between atoms: _53  and  _55
REMARK                            x       y       z     vdW  Elec       q    Type
REMARK                         _______ _______ _______ _____ _____    ______ ____
ROOT
ATOM     10  C   UNL     1     -41.537 -36.519   4.021  0.00  0.00    +0.038 A 
ATOM     11  C   UNL     1     -40.413 -36.447   3.160  0.00  0.00    +0.047 A 
ATOM     12  C   UNL     1     -40.269 -35.365   2.199  0.00  0.00    +0.035 A 
ATOM     32  C   UNL     1     -41.290 -34.371   2.143  0.00  0.00    +0.024 A 
ATOM     33  C   UNL     1     -42.440 -34.430   3.010  0.00  0.00    +0.007 A 
ATOM     34  C   UNL     1     -42.588 -35.496   3.959  0.00  0.00    -0.029 A 
ATOM     35  C   UNL     1     -43.846 -35.512   4.859  0.00  0.00    +0.045 C 
ENDROOT
BRANCH  10   9
ATOM      4  C   UNL     1     -42.705 -41.036   5.148  0.00  0.00    +0.077 A 
ATOM      5  C   UNL     1     -43.211 -41.297   3.831  0.00  0.00    +0.048 A 
ATOM      6  C   UNL     1     -43.158 -40.239   2.895  0.00  0.00    +0.116 A 
ATOM      7  N   UNL     1     -42.637 -39.017   3.260  0.00  0.00    -0.223 NA
ATOM      8  C   UNL     1     -42.160 -38.799   4.539  0.00  0.00    +0.220 A 
ATOM      9  N   UNL     1     -41.624 -37.580   4.926  0.00  0.00    -0.283 N 
ATOM     36  H   UNL     1     -41.289 -37.456   5.881  0.00  0.00    +0.155 HD
ATOM     37  N   UNL     1     -42.200 -39.792   5.452  0.00  0.00    -0.214 NA
BRANCH   4   3
ATOM      1  C   UNL     1     -41.692 -44.040   7.440  0.00  0.00    +0.020 A 
ATOM      2  C   UNL     1     -41.662 -43.082   6.359  0.00  0.00    +0.013 A 
ATOM      3  C   UNL     1     -42.689 -42.053   6.247  0.00  0.00    +0.019 A 
ATOM     38  C   UNL     1     -43.739 -42.021   7.253  0.00  0.00    +0.120 A 
ATOM     39  N   UNL     1     -43.743 -42.958   8.282  0.00  0.00    -0.263 NA
ATOM     40  C   UNL     1     -42.762 -43.953   8.399  0.00  0.00    +0.111 A 
ENDBRANCH   4   3
ENDBRANCH  10   9
BRANCH  12  13
ATOM     13  N   UNL     1     -39.154 -35.244   1.293  0.00  0.00    -0.281 N 
ATOM     14  C   UNL     1     -39.065 -35.694  -0.014  0.00  0.00    +0.248 C 
ATOM     30  O   UNL     1     -39.859 -36.462  -0.536  0.00  0.00    -0.270 OA
ATOM     31  H   UNL     1     -38.329 -34.768   1.661  0.00  0.00    +0.155 HD
BRANCH  14  15
ATOM     15  C   UNL     1     -37.920 -35.236  -0.859  0.00  0.00    +0.037 A 
ATOM     16  C   UNL     1     -37.017 -36.195  -1.500  0.00  0.00    +0.013 A 
ATOM     17  C   UNL     1     -35.911 -35.726  -2.296  0.00  0.00    +0.005 A 
ATOM     18  C   UNL     1     -35.703 -34.289  -2.457  0.00  0.00    -0.033 A 
ATOM     28  C   UNL     1     -36.617 -33.360  -1.814  0.00  0.00    +0.005 A 
ATOM     29  C   UNL     1     -37.702 -33.816  -1.032  0.00  0.00    +0.013 A 
BRANCH  18  19
ATOM     19  C   UNL     1     -34.536 -33.699  -3.271  0.00  0.00    +0.119 C 
BRANCH  19  20
ATOM     20  N   UNL     1     -34.821 -32.486  -4.094  0.00  0.00    -0.302 NA
ATOM     21  C   UNL     1     -34.495 -32.705  -5.574  0.00  0.00    +0.066 C 
ATOM     22  C   UNL     1     -34.821 -31.434  -6.423  0.00  0.00    -0.064 C 
ATOM     23  N   UNL     1     -34.041 -30.240  -5.868  0.00  0.00    +0.379 N 
ATOM     24  C   UNL     1     -34.300 -29.056  -6.700  0.00  0.00    -0.096 C 
ATOM     25  H   UNL     1     -32.955 -30.479  -5.948  0.00  0.00    -0.082 HD
ATOM     26  C   UNL     1     -34.357 -30.016  -4.396  0.00  0.00    -0.064 C 
ATOM     27  C   UNL     1     -34.058 -31.296  -3.566  0.00  0.00    +0.066 C 
ENDBRANCH  19  20
ENDBRANCH  18  19
ENDBRANCH  14  15
ENDBRANCH  12  13
TORSDOF 6
ENDMDL
MODEL 4
REMARK VINA RESULT:      -6.9     18.248     21.316
REMARK  Name = C:\Users\Docking\Desktop\test protocol\1iep_ligandH.pdb
REMARK  8 active torsions:
REMARK  status: ('A' for Active; 'I' for Inactive)
REMARK    1  A    between atoms: _5  and  _11
REMARK    2  A    between atoms: _19  and  _21
REMARK    3  A    between atoms: _22  and  _66
REMARK    4  A    between atoms: _27  and  _30
REMARK    5  A    between atoms: _32  and  _33
REMARK    6  A    between atoms: _38  and  _43
REMARK    7  A    between atoms: _43  and  _46
REMARK    8  A    between atoms: _53  and  _55
REMARK                            x       y       z     vdW  Elec       q    Type
REMARK                         _______ _______ _______ _____ _____    ______ ____
ROOT
ATOM     10  C   UNL     1     -43.044 -42.399   4.373  0.00  0.00    +0.038 A 
ATOM     11  C   UNL     1     -42.033 -43.266   4.859  0.00  0.00    +0.047 A 
ATOM     12  C   UNL     1     -42.356 -44.592   5.361  0.00  0.00    +0.035 A 
ATOM     32  C   UNL     1     -43.720 -45.004   5.351  0.00  0.00    +0.024 A 
ATOM     33  C   UNL     1     -44.761 -44.135   4.862  0.00  0.00    +0.007 A 
ATOM     34  C   UNL     1     -44.449 -42.825   4.367  0.00  0.00    -0.029 A 
ATOM     35  C   UNL     1     -45.606 -41.933   3.861  0.00  0.00    +0.045 C 
ENDROOT
BRANCH  10   9
ATOM      4  C   UNL     1     -42.285 -37.702   5.005  0.00  0.00    +0.077 A 
ATOM      5  C   UNL     1     -42.678 -37.764   6.384  0.00  0.00    +0.048 A 
ATOM      6  C   UNL     1     -43.076 -39.022   6.889  0.00  0.00    +0.116 A 
ATOM      7  N   UNL     1     -43.076 -40.129   6.068  0.00  0.00    -0.223 NA
ATOM      8  C   UNL     1     -42.692 -40.034   4.743  0.00  0.00    +0.220 A 
ATOM      9  N   UNL     1     -42.677 -41.136   3.902  0.00  0.00    -0.283 N 
ATOM     36  H   UNL     1     -42.395 -41.023   2.928  0.00  0.00    +0.155 HD
ATOM     37  N   UNL     1     -42.310 -38.844   4.236  0.00  0.00    -0.214 NA
BRANCH   4   3
ATOM      1  C   UNL     1     -42.117 -34.595   2.634  0.00  0.00    +0.020 A 
ATOM      2  C   UNL     1     -42.594 -35.809   3.257  0.00  0.00    +0.013 A 
ATOM      3  C   UNL     1     -41.836 -36.445   4.326  0.00  0.00    +0.019 A 
ATOM     38  C   UNL     1     -40.590 -35.823   4.747  0.00  0.00    +0.120 A 
ATOM     39  N   UNL     1     -40.154 -34.656   4.128  0.00  0.00    -0.263 NA
ATOM     40  C   UNL     1     -40.874 -34.035   3.096  0.00  0.00    +0.111 A 
ENDBRANCH   4   3
ENDBRANCH  10   9
BRANCH  12  13
ATOM     13  N   UNL     1     -41.372 -45.513   5.874  0.00  0.00    -0.281 N 
ATOM     14  C   UNL     1     -41.052 -45.767   7.198  0.00  0.00    +0.248 C 
ATOM     30  O   UNL     1     -41.417 -45.081   8.141  0.00  0.00    -0.270 OA
ATOM     31  H   UNL     1     -40.848 -46.042   5.177  0.00  0.00    +0.155 HD
BRANCH  14  15
ATOM     15  C   UNL     1     -40.191 -46.946   7.519  0.00  0.00    +0.037 A 
ATOM     16  C   UNL     1     -39.774 -47.229   8.895  0.00  0.00    +0.013 A 
ATOM     17  C   UNL     1     -38.929 -48.363   9.175  0.00  0.00    +0.005 A 
ATOM     18  C   UNL     1     -38.496 -49.223   8.076  0.00  0.00    -0.033 A 
ATOM     28  C   UNL     1     -38.929 -48.921   6.721  0.00  0.00    +0.005 A 
ATOM     29  C   UNL     1     -39.756 -47.810   6.443  0.00  0.00    +0.013 A 
BRANCH  18  19
ATOM     19  C   UNL     1     -37.577 -50.441   8.279  0.00  0.00    +0.119 C 
BRANCH  19  20
ATOM     20  N   UNL     1     -38.028 -51.484   9.248  0.00  0.00    -0.302 NA
ATOM     21  C   UNL     1     -36.863 -52.337   9.759  0.00  0.00    +0.066 C 
ATOM     22  C   UNL     1     -37.350 -53.408  10.788  0.00  0.00    -0.064 C 
ATOM     23  N   UNL     1     -38.420 -54.287  10.138  0.00  0.00    +0.379 N 
ATOM     24  C   UNL     1     -38.838 -55.332  11.084  0.00  0.00    -0.096 C 
ATOM     25  H   UNL     1     -37.954 -54.792   9.260  0.00  0.00    -0.082 HD
ATOM     26  C   UNL     1     -39.581 -53.447   9.625  0.00  0.00    -0.064 C 
ATOM     27  C   UNL     1     -39.082 -52.367   8.625  0.00  0.00    +0.066 C 
ENDBRANCH  19  20
ENDBRANCH  18  19
ENDBRANCH  14  15
ENDBRANCH  12  13
TORSDOF 6
ENDMDL
MODEL 5
REMARK VINA RESULT:      -6.9     18.805     21.631
REMARK  Name = C:\Users\Docking\Desktop\test protocol\1iep_ligandH.pdb
REMARK  8 active torsions:
REMARK  status: ('A' for Active; 'I' for Inactive)
REMARK    1  A    between atoms: _5  and  _11
REMARK    2  A    between atoms: _19  and  _21
REMARK    3  A    between atoms: _22  and  _66
REMARK    4  A    between atoms: _27  and  _30
REMARK    5  A    between atoms: _32  and  _33
REMARK    6  A    between atoms: _38  and  _43
REMARK    7  A    between atoms: _43  and  _46
REMARK    8  A    between atoms: _53  and  _55
REMARK                            x       y       z     vdW  Elec       q    Type
REMARK                         _______ _______ _______ _____ _____    ______ ____
ROOT
ATOM     10  C   UNL     1     -42.970 -42.632   7.030  0.00  0.00    +0.038 A 
ATOM     11  C   UNL     1     -41.896 -43.544   7.190  0.00  0.00    +0.047 A 
ATOM     12  C   UNL     1     -42.138 -44.961   7.410  0.00  0.00    +0.035 A 
ATOM     32  C   UNL     1     -43.489 -45.416   7.458  0.00  0.00    +0.024 A 
ATOM     33  C   UNL     1     -44.592 -44.503   7.297  0.00  0.00    +0.007 A 
ATOM     34  C   UNL     1     -44.359 -43.103   7.083  0.00  0.00    -0.029 A 
ATOM     35  C   UNL     1     -45.581 -42.168   6.924  0.00  0.00    +0.045 C 
ENDROOT
BRANCH  10   9
ATOM      4  C   UNL     1     -42.476 -38.799   4.184  0.00  0.00    +0.077 A 
ATOM      5  C   UNL     1     -42.799 -39.556   3.009  0.00  0.00    +0.048 A 
ATOM      6  C   UNL     1     -43.078 -40.931   3.179  0.00  0.00    +0.116 A 
ATOM      7  N   UNL     1     -43.036 -41.495   4.435  0.00  0.00    -0.223 NA
ATOM      8  C   UNL     1     -42.720 -40.737   5.547  0.00  0.00    +0.220 A 
ATOM      9  N   UNL     1     -42.679 -41.282   6.821  0.00  0.00    -0.283 N 
ATOM     36  H   UNL     1     -42.434 -40.691   7.615  0.00  0.00    +0.155 HD
ATOM     37  N   UNL     1     -42.447 -39.422   5.411  0.00  0.00    -0.214 NA
BRANCH   4   3
ATOM      1  C   UNL     1     -40.606 -35.379   4.519  0.00  0.00    +0.020 A 
ATOM      2  C   UNL     1     -40.860 -36.801   4.554  0.00  0.00    +0.013 A 
ATOM      3  C   UNL     1     -42.160 -37.336   4.167  0.00  0.00    +0.019 A 
ATOM     38  C   UNL     1     -43.189 -36.397   3.746  0.00  0.00    +0.120 A 
ATOM     39  N   UNL     1     -42.916 -35.033   3.725  0.00  0.00    -0.263 NA
ATOM     40  C   UNL     1     -41.670 -34.507   4.096  0.00  0.00    +0.111 A 
ENDBRANCH   4   3
ENDBRANCH  10   9
BRANCH  12  13
ATOM     13  N   UNL     1     -41.088 -45.933   7.588  0.00  0.00    -0.281 N 
ATOM     14  C   UNL     1     -40.449 -46.291   8.764  0.00  0.00    +0.248 C 
ATOM     30  O   UNL     1     -40.537 -45.673   9.814  0.00  0.00    -0.270 OA
ATOM     31  H   UNL     1     -40.778 -46.416   6.744  0.00  0.00    +0.155 HD
BRANCH  14  15
ATOM     15  C   UNL     1     -39.575 -47.503   8.770  0.00  0.00    +0.037 A 
ATOM     16  C   UNL     1     -38.930 -47.968  10.001  0.00  0.00    +0.013 A 
ATOM     17  C   UNL     1     -38.077 -49.130   9.976  0.00  0.00    +0.005 A 
ATOM     18  C   UNL     1     -37.867 -49.837   8.715  0.00  0.00    -0.033 A 
ATOM     28  C   UNL     1     -38.523 -49.357   7.510  0.00  0.00    +0.005 A 
ATOM     29  C   UNL     1     -39.358 -48.218   7.530  0.00  0.00    +0.013 A 
BRANCH  18  19
ATOM     19  C   UNL     1     -36.957 -51.074   8.591  0.00  0.00    +0.119 C 
BRANCH  19  20
ATOM     20  N   UNL     1     -37.120 -52.148   9.615  0.00  0.00    -0.302 NA
ATOM     21  C   UNL     1     -35.887 -53.051   9.702  0.00  0.00    +0.066 C 
ATOM     22  C   UNL     1     -36.066 -54.156  10.794  0.00  0.00    -0.064 C 
ATOM     23  N   UNL     1     -37.318 -54.978  10.484  0.00  0.00    +0.379 N 
ATOM     24  C   UNL     1     -37.457 -56.053  11.476  0.00  0.00    -0.096 C 
ATOM     25  H   UNL     1     -37.171 -55.454   9.487  0.00  0.00    -0.082 HD
ATOM     26  C   UNL     1     -38.549 -54.087  10.393  0.00  0.00    -0.064 C 
ATOM     27  C   UNL     1     -38.349 -52.975   9.326  0.00  0.00    +0.066 C 
ENDBRANCH  19  20
ENDBRANCH  18  19
ENDBRANCH  14  15
ENDBRANCH  12  13
TORSDOF 6
ENDMDL
