MODEL 1
REMARK VINA RESULT:      -8.5      0.000      0.000
REMARK  Name = C:\Users\Docking\Desktop\test protocol\1iep_ligandH.pdb
REMARK  8 active torsions:
REMARK  status: ('A' for Active; 'I' for Inactive)
REMARK    1  A    between atoms: _5  and  _11
REMARK    2  A    between atoms: _19  and  _21
REMARK    3  A    between atoms: _22  and  _66
REMARK    4  A    between atoms: _27  and  _30
REMARK    5  A    between atoms: _32  and  _33
REMARK    6  A    between atoms: _38  and  _43
REMARK    7  A    between atoms: _43  and  _46
REMARK    8  A    between atoms: _53  and  _55
REMARK                            x       y       z     vdW  Elec       q    Type
REMARK                         _______ _______ _______ _____ _____    ______ ____
ROOT
ATOM     10  C   UNL     1      14.528  21.379   7.949  0.00  0.00    +0.038 A 
ATOM     11  C   UNL     1      15.734  21.500   8.686  0.00  0.00    +0.047 A 
ATOM     12  C   UNL     1      16.654  20.381   8.813  0.00  0.00    +0.035 A 
ATOM     32  C   UNL     1      16.315  19.152   8.174  0.00  0.00    +0.024 A 
ATOM     33  C   UNL     1      15.093  19.011   7.422  0.00  0.00    +0.007 A 
ATOM     34  C   UNL     1      14.181  20.111   7.296  0.00  0.00    -0.029 A 
ATOM     35  C   UNL     1      12.882  19.901   6.483  0.00  0.00    +0.045 C 
ENDROOT
BRANCH  10   9
ATOM      4  C   UNL     1      10.992  24.151   9.638  0.00  0.00    +0.077 A 
ATOM      5  C   UNL     1      10.797  23.307  10.782  0.00  0.00    +0.048 A 
ATOM      6  C   UNL     1      11.622  22.165  10.894  0.00  0.00    +0.116 A 
ATOM      7  N   UNL     1      12.569  21.898   9.930  0.00  0.00    -0.223 NA
ATOM      8  C   UNL     1      12.730  22.732   8.838  0.00  0.00    +0.220 A 
ATOM      9  N   UNL     1      13.682  22.486   7.860  0.00  0.00    -0.283 N 
ATOM     36  H   UNL     1      13.764  23.121   7.066  0.00  0.00    +0.155 HD
ATOM     37  N   UNL     1      11.954  23.827   8.707  0.00  0.00    -0.214 NA
BRANCH   4   3
ATOM      1  C   UNL     1       8.402  27.063   9.969  0.00  0.00    +0.020 A 
ATOM      2  C   UNL     1       9.136  25.854  10.264  0.00  0.00    +0.013 A 
ATOM      3  C   UNL     1      10.200  25.395   9.380  0.00  0.00    +0.019 A 
ATOM     38  C   UNL     1      10.500  26.189   8.198  0.00  0.00    +0.120 A 
ATOM     39  N   UNL     1       9.775  27.348   7.939  0.00  0.00    -0.263 NA
ATOM     40  C   UNL     1       8.748  27.799   8.781  0.00  0.00    +0.111 A 
ENDBRANCH   4   3
ENDBRANCH  10   9
BRANCH  12  13
ATOM     13  N   UNL     1      17.889  20.442   9.555  0.00  0.00    -0.281 N 
ATOM     14  C   UNL     1      19.102  20.973   9.147  0.00  0.00    +0.248 C 
ATOM     30  O   UNL     1      19.367  21.285   7.995  0.00  0.00    -0.270 OA
ATOM     31  H   UNL     1      17.866  20.046  10.494  0.00  0.00    +0.155 HD
BRANCH  14  15
ATOM     15  C   UNL     1      20.181  21.172  10.162  0.00  0.00    +0.037 A 
ATOM     16  C   UNL     1      20.407  20.197  11.231  0.00  0.00    +0.013 A 
ATOM     17  C   UNL     1      21.444  20.421  12.208  0.00  0.00    +0.005 A 
ATOM     18  C   UNL     1      22.263  21.627  12.117  0.00  0.00    -0.033 A 
ATOM     28  C   UNL     1      22.021  22.576  11.043  0.00  0.00    +0.005 A 
ATOM     29  C   UNL     1      21.005  22.359  10.085  0.00  0.00    +0.013 A 
BRANCH  18  19
ATOM     19  C   UNL     1      23.378  21.959  13.127  0.00  0.00    +0.119 C 
BRANCH  19  20
ATOM     20  N   UNL     1      22.956  22.418  14.485  0.00  0.00    -0.302 NA
ATOM     21  C   UNL     1      22.673  23.922  14.520  0.00  0.00    +0.066 C 
ATOM     22  C   UNL     1      22.211  24.381  15.942  0.00  0.00    -0.064 C 
ATOM     23  N   UNL     1      23.281  24.006  16.968  0.00  0.00    +0.379 N 
ATOM     24  C   UNL     1      22.876  24.488  18.297  0.00  0.00    -0.096 C 
ATOM     25  H   UNL     1      24.220  24.538  16.687  0.00  0.00    -0.082 HD
ATOM     26  C   UNL     1      23.571  22.512  16.938  0.00  0.00    -0.064 C 
ATOM     27  C   UNL     1      24.000  22.062  15.513  0.00  0.00    +0.066 C 
ENDBRANCH  19  20
ENDBRANCH  18  19
ENDBRANCH  14  15
ENDBRANCH  12  13
TORSDOF 6
ENDMDL
MODEL 2
REMARK VINA RESULT:      -8.1      7.734     11.975
REMARK  Name = C:\Users\Docking\Desktop\test protocol\1iep_ligandH.pdb
REMARK  8 active torsions:
REMARK  status: ('A' for Active; 'I' for Inactive)
REMARK    1  A    between atoms: _5  and  _11
REMARK    2  A    between atoms: _19  and  _21
REMARK    3  A    between atoms: _22  and  _66
REMARK    4  A    between atoms: _27  and  _30
REMARK    5  A    between atoms: _32  and  _33
REMARK    6  A    between atoms: _38  and  _43
REMARK    7  A    between atoms: _43  and  _46
REMARK    8  A    between atoms: _53  and  _55
REMARK                            x       y       z     vdW  Elec       q    Type
REMARK                         _______ _______ _______ _____ _____    ______ ____
ROOT
ATOM     10  C   UNL     1      20.277  25.542   3.742  0.00  0.00    +0.038 A 
ATOM     11  C   UNL     1      19.081  25.281   4.459  0.00  0.00    +0.047 A 
ATOM     12  C   UNL     1      18.452  23.970   4.421  0.00  0.00    +0.035 A 
ATOM     32  C   UNL     1      19.071  22.946   3.646  0.00  0.00    +0.024 A 
ATOM     33  C   UNL     1      20.286  23.195   2.911  0.00  0.00    +0.007 A 
ATOM     34  C   UNL     1      20.909  24.487   2.942  0.00  0.00    -0.029 A 
ATOM     35  C   UNL     1      22.208  24.698   2.130  0.00  0.00    +0.045 C 
ENDROOT
BRANCH  10   9
ATOM      4  C   UNL     1      21.193  29.872   1.884  0.00  0.00    +0.077 A 
ATOM      5  C   UNL     1      20.522  29.553   0.657  0.00  0.00    +0.048 A 
ATOM      6  C   UNL     1      19.961  28.261   0.542  0.00  0.00    +0.116 A 
ATOM      7  N   UNL     1      20.068  27.364   1.582  0.00  0.00    -0.223 NA
ATOM      8  C   UNL     1      20.724  27.704   2.752  0.00  0.00    +0.220 A 
ATOM      9  N   UNL     1      20.837  26.820   3.814  0.00  0.00    -0.283 N 
ATOM     36  H   UNL     1      21.334  27.106   4.657  0.00  0.00    +0.155 HD
ATOM     37  N   UNL     1      21.269  28.930   2.886  0.00  0.00    -0.214 NA
BRANCH   4   3
ATOM      1  C   UNL     1      23.153  33.231   1.460  0.00  0.00    +0.020 A 
ATOM      2  C   UNL     1      22.552  31.956   1.143  0.00  0.00    +0.013 A 
ATOM      3  C   UNL     1      21.834  31.197   2.159  0.00  0.00    +0.019 A 
ATOM     38  C   UNL     1      21.741  31.761   3.497  0.00  0.00    +0.120 A 
ATOM     39  N   UNL     1      22.331  32.991   3.774  0.00  0.00    -0.263 NA
ATOM     40  C   UNL     1      23.026  33.729   2.804  0.00  0.00    +0.111 A 
ENDBRANCH   4   3
ENDBRANCH  10   9
BRANCH  12  13
ATOM     13  N   UNL     1      17.233  23.648   5.121  0.00  0.00    -0.281 N 
ATOM     14  C   UNL     1      17.082  22.856   6.247  0.00  0.00    +0.248 C 
ATOM     30  O   UNL     1      17.951  22.126   6.701  0.00  0.00    -0.270 OA
ATOM     31  H   UNL     1      16.379  24.054   4.740  0.00  0.00    +0.155 HD
BRANCH  14  15
ATOM     15  C   UNL     1      15.771  22.864   6.965  0.00  0.00    +0.037 A 
ATOM     16  C   UNL     1      14.527  23.208   6.272  0.00  0.00    +0.013 A 
ATOM     17  C   UNL     1      13.278  23.225   6.992  0.00  0.00    +0.005 A 
ATOM     18  C   UNL     1      13.268  22.896   8.415  0.00  0.00    -0.033 A 
ATOM     28  C   UNL     1      14.516  22.554   9.077  0.00  0.00    +0.005 A 
ATOM     29  C   UNL     1      15.742  22.537   8.375  0.00  0.00    +0.013 A 
BRANCH  18  19
ATOM     19  C   UNL     1      11.985  22.910   9.268  0.00  0.00    +0.119 C 
BRANCH  19  20
ATOM     20  N   UNL     1      11.013  24.016   9.022  0.00  0.00    -0.302 NA
ATOM     21  C   UNL     1      11.587  25.382   9.409  0.00  0.00    +0.066 C 
ATOM     22  C   UNL     1      10.565  26.531   9.124  0.00  0.00    -0.064 C 
ATOM     23  N   UNL     1       9.266  26.254   9.884  0.00  0.00    +0.379 N 
ATOM     24  C   UNL     1       8.324  27.361   9.664  0.00  0.00    -0.096 C 
ATOM     25  H   UNL     1       9.510  26.227  10.971  0.00  0.00    -0.082 HD
ATOM     26  C   UNL     1       8.690  24.896   9.507  0.00  0.00    -0.064 C 
ATOM     27  C   UNL     1       9.724  23.766   9.766  0.00  0.00    +0.066 C 
ENDBRANCH  19  20
ENDBRANCH  18  19
ENDBRANCH  14  15
ENDBRANCH  12  13
TORSDOF 6
ENDMDL
MODEL 3
REMARK VINA RESULT:      -7.8      5.896      8.429
REMARK  Name = C:\Users\Docking\Desktop\test protocol\1iep_ligandH.pdb
REMARK  8 active torsions:
REMARK  status: ('A' for Active; 'I' for Inactive)
REMARK    1  A    between atoms: _5  and  _11
REMARK    2  A    between atoms: _19  and  _21
REMARK    3  A    between atoms: _22  and  _66
REMARK    4  A    between atoms: _27  and  _30
REMARK    5  A    between atoms: _32  and  _33
REMARK    6  A    between atoms: _38  and  _43
REMARK    7  A    between atoms: _43  and  _46
REMARK    8  A    between atoms: _53  and  _55
REMARK                            x       y       z     vdW  Elec       q    Type
REMARK                         _______ _______ _______ _____ _____    ______ ____
ROOT
ATOM     10  C   UNL     1      12.942  23.246   7.893  0.00  0.00    +0.038 A 
ATOM     11  C   UNL     1      14.110  23.575   7.159  0.00  0.00    +0.047 A 
ATOM     12  C   UNL     1      15.423  23.127   7.595  0.00  0.00    +0.035 A 
ATOM     32  C   UNL     1      15.510  22.342   8.782  0.00  0.00    +0.024 A 
ATOM     33  C   UNL     1      14.332  22.000   9.541  0.00  0.00    +0.007 A 
ATOM     34  C   UNL     1      13.035  22.442   9.117  0.00  0.00    -0.029 A 
ATOM     35  C   UNL     1      11.807  22.050   9.973  0.00  0.00    +0.045 C 
ENDROOT
BRANCH  10   9
ATOM      4  C   UNL     1       9.405  26.488   7.762  0.00  0.00    +0.077 A 
ATOM      5  C   UNL     1      10.061  27.331   8.720  0.00  0.00    +0.048 A 
ATOM      6  C   UNL     1      11.304  26.890   9.227  0.00  0.00    +0.116 A 
ATOM      7  N   UNL     1      11.841  25.694   8.801  0.00  0.00    -0.223 NA
ATOM      8  C   UNL     1      11.181  24.905   7.877  0.00  0.00    +0.220 A 
ATOM      9  N   UNL     1      11.706  23.703   7.428  0.00  0.00    -0.283 N 
ATOM     36  H   UNL     1      11.185  23.147   6.751  0.00  0.00    +0.155 HD
ATOM     37  N   UNL     1       9.992  25.303   7.378  0.00  0.00    -0.214 NA
BRANCH   4   3
ATOM      1  C   UNL     1       5.596  27.203   7.228  0.00  0.00    +0.020 A 
ATOM      2  C   UNL     1       6.842  26.879   7.885  0.00  0.00    +0.013 A 
ATOM      3  C   UNL     1       8.088  26.819   7.131  0.00  0.00    +0.019 A 
ATOM     38  C   UNL     1       8.039  27.096   5.704  0.00  0.00    +0.120 A 
ATOM     39  N   UNL     1       6.825  27.404   5.098  0.00  0.00    -0.263 NA
ATOM     40  C   UNL     1       5.619  27.463   5.813  0.00  0.00    +0.111 A 
ENDBRANCH   4   3
ENDBRANCH  10   9
BRANCH  12  13
ATOM     13  N   UNL     1      16.646  23.436   6.896  0.00  0.00    -0.281 N 
ATOM     14  C   UNL     1      17.160  22.821   5.766  0.00  0.00    +0.248 C 
ATOM     30  O   UNL     1      16.751  21.764   5.308  0.00  0.00    -0.270 OA
ATOM     31  H   UNL     1      17.199  24.202   7.280  0.00  0.00    +0.155 HD
BRANCH  14  15
ATOM     15  C   UNL     1      18.304  23.464   5.051  0.00  0.00    +0.037 A 
ATOM     16  C   UNL     1      19.679  22.995   5.240  0.00  0.00    +0.013 A 
ATOM     17  C   UNL     1      20.765  23.645   4.551  0.00  0.00    +0.005 A 
ATOM     18  C   UNL     1      20.480  24.770   3.664  0.00  0.00    -0.033 A 
ATOM     28  C   UNL     1      19.106  25.211   3.490  0.00  0.00    +0.005 A 
ATOM     29  C   UNL     1      18.039  24.577   4.165  0.00  0.00    +0.013 A 
BRANCH  18  19
ATOM     19  C   UNL     1      21.580  25.536   2.904  0.00  0.00    +0.119 C 
BRANCH  19  20
ATOM     20  N   UNL     1      22.087  24.927   1.638  0.00  0.00    -0.302 NA
ATOM     21  C   UNL     1      23.320  24.051   1.876  0.00  0.00    +0.066 C 
ATOM     22  C   UNL     1      23.824  23.404   0.545  0.00  0.00    -0.064 C 
ATOM     23  N   UNL     1      24.130  24.507  -0.471  0.00  0.00    +0.379 N 
ATOM     24  C   UNL     1      24.659  23.905  -1.703  0.00  0.00    -0.096 C 
ATOM     25  H   UNL     1      24.930  25.152  -0.038  0.00  0.00    -0.082 HD
ATOM     26  C   UNL     1      22.910  25.384  -0.711  0.00  0.00    -0.064 C 
ATOM     27  C   UNL     1      22.400  25.998   0.623  0.00  0.00    +0.066 C 
ENDBRANCH  19  20
ENDBRANCH  18  19
ENDBRANCH  14  15
ENDBRANCH  12  13
TORSDOF 6
ENDMDL
MODEL 4
REMARK VINA RESULT:      -7.6      8.177     15.915
REMARK  Name = C:\Users\Docking\Desktop\test protocol\1iep_ligandH.pdb
REMARK  8 active torsions:
REMARK  status: ('A' for Active; 'I' for Inactive)
REMARK    1  A    between atoms: _5  and  _11
REMARK    2  A    between atoms: _19  and  _21
REMARK    3  A    between atoms: _22  and  _66
REMARK    4  A    between atoms: _27  and  _30
REMARK    5  A    between atoms: _32  and  _33
REMARK    6  A    between atoms: _38  and  _43
REMARK    7  A    between atoms: _43  and  _46
REMARK    8  A    between atoms: _53  and  _55
REMARK                            x       y       z     vdW  Elec       q    Type
REMARK                         _______ _______ _______ _____ _____    ______ ____
ROOT
ATOM     10  C   UNL     1       9.445  25.095   9.436  0.00  0.00    +0.038 A 
ATOM     11  C   UNL     1       8.145  25.541   9.087  0.00  0.00    +0.047 A 
ATOM     12  C   UNL     1       7.940  26.829   8.442  0.00  0.00    +0.035 A 
ATOM     32  C   UNL     1       9.082  27.636   8.166  0.00  0.00    +0.024 A 
ATOM     33  C   UNL     1      10.410  27.198   8.515  0.00  0.00    +0.007 A 
ATOM     34  C   UNL     1      10.619  25.929   9.153  0.00  0.00    -0.029 A 
ATOM     35  C   UNL     1      12.065  25.514   9.511  0.00  0.00    +0.045 C 
ENDROOT
BRANCH  10   9
ATOM      4  C   UNL     1      10.735  20.472   9.396  0.00  0.00    +0.077 A 
ATOM      5  C   UNL     1      11.141  20.536   8.022  0.00  0.00    +0.048 A 
ATOM      6  C   UNL     1      10.995  21.775   7.359  0.00  0.00    +0.116 A 
ATOM      7  N   UNL     1      10.481  22.863   8.031  0.00  0.00    -0.223 NA
ATOM      8  C   UNL     1      10.097  22.766   9.356  0.00  0.00    +0.220 A 
ATOM      9  N   UNL     1       9.584  23.849  10.053  0.00  0.00    -0.283 N 
ATOM     36  H   UNL     1       9.306  23.735  11.028  0.00  0.00    +0.155 HD
ATOM     37  N   UNL     1      10.225  21.593  10.011  0.00  0.00    -0.214 NA
BRANCH   4   3
ATOM      1  C   UNL     1      10.109  17.778  12.162  0.00  0.00    +0.020 A 
ATOM      2  C   UNL     1       9.976  18.990  11.388  0.00  0.00    +0.013 A 
ATOM      3  C   UNL     1      10.831  19.234  10.233  0.00  0.00    +0.019 A 
ATOM     38  C   UNL     1      11.817  18.222   9.885  0.00  0.00    +0.120 A 
ATOM     39  N   UNL     1      11.923  17.064  10.650  0.00  0.00    -0.263 NA
ATOM     40  C   UNL     1      11.107  16.820  11.764  0.00  0.00    +0.111 A 
ENDBRANCH   4   3
ENDBRANCH  10   9
BRANCH  12  13
ATOM     13  N   UNL     1       6.643  27.339   8.072  0.00  0.00    -0.281 N 
ATOM     14  C   UNL     1       6.023  27.271   6.835  0.00  0.00    +0.248 C 
ATOM     30  O   UNL     1       6.583  26.948   5.798  0.00  0.00    -0.270 OA
ATOM     31  H   UNL     1       6.118  27.806   8.812  0.00  0.00    +0.155 HD
BRANCH  14  15
ATOM     15  C   UNL     1       4.575  27.628   6.732  0.00  0.00    +0.037 A 
ATOM     16  C   UNL     1       3.901  27.702   5.434  0.00  0.00    +0.013 A 
ATOM     17  C   UNL     1       2.508  28.065   5.362  0.00  0.00    +0.005 A 
ATOM     18  C   UNL     1       1.779  28.356   6.594  0.00  0.00    -0.033 A 
ATOM     28  C   UNL     1       2.471  28.271   7.869  0.00  0.00    +0.005 A 
ATOM     29  C   UNL     1       3.837  27.916   7.944  0.00  0.00    +0.013 A 
BRANCH  18  19
ATOM     19  C   UNL     1       0.296  28.772   6.611  0.00  0.00    +0.119 C 
BRANCH  19  20
ATOM     20  N   UNL     1      -0.674  27.823   7.235  0.00  0.00    -0.302 NA
ATOM     21  C   UNL     1      -0.864  28.098   8.729  0.00  0.00    +0.066 C 
ATOM     22  C   UNL     1      -1.899  27.110   9.362  0.00  0.00    -0.064 C 
ATOM     23  N   UNL     1      -1.434  25.672   9.130  0.00  0.00    +0.379 N 
ATOM     24  C   UNL     1      -2.374  24.743   9.773  0.00  0.00    -0.096 C 
ATOM     25  H   UNL     1      -0.444  25.552   9.629  0.00  0.00    -0.082 HD
ATOM     26  C   UNL     1      -1.239  25.391   7.647  0.00  0.00    -0.064 C 
ATOM     27  C   UNL     1      -0.232  26.397   7.022  0.00  0.00    +0.066 C 
ENDBRANCH  19  20
ENDBRANCH  18  19
ENDBRANCH  14  15
ENDBRANCH  12  13
TORSDOF 6
ENDMDL
MODEL 5
REMARK VINA RESULT:      -7.6      5.795      8.035
REMARK  Name = C:\Users\Docking\Desktop\test protocol\1iep_ligandH.pdb
REMARK  8 active torsions:
REMARK  status: ('A' for Active; 'I' for Inactive)
REMARK    1  A    between atoms: _5  and  _11
REMARK    2  A    between atoms: _19  and  _21
REMARK    3  A    between atoms: _22  and  _66
REMARK    4  A    between atoms: _27  and  _30
REMARK    5  A    between atoms: _32  and  _33
REMARK    6  A    between atoms: _38  and  _43
REMARK    7  A    between atoms: _43  and  _46
REMARK    8  A    between atoms: _53  and  _55
REMARK                            x       y       z     vdW  Elec       q    Type
REMARK                         _______ _______ _______ _____ _____    ______ ____
ROOT
ATOM     10  C   UNL     1      12.091  23.202   8.551  0.00  0.00    +0.038 A 
ATOM     11  C   UNL     1      13.262  23.381   7.772  0.00  0.00    +0.047 A 
ATOM     12  C   UNL     1      14.562  22.941   8.254  0.00  0.00    +0.035 A 
ATOM     32  C   UNL     1      14.632  22.319   9.535  0.00  0.00    +0.024 A 
ATOM     33  C   UNL     1      13.451  22.130  10.341  0.00  0.00    +0.007 A 
ATOM     34  C   UNL     1      12.167  22.565   9.872  0.00  0.00    -0.029 A 
ATOM     35  C   UNL     1      10.936  22.343  10.781  0.00  0.00    +0.045 C 
ENDROOT
BRANCH  10   9
ATOM      4  C   UNL     1       8.784  26.606   7.835  0.00  0.00    +0.077 A 
ATOM      5  C   UNL     1       9.542  27.580   8.567  0.00  0.00    +0.048 A 
ATOM      6  C   UNL     1      10.774  27.162   9.118  0.00  0.00    +0.116 A 
ATOM      7  N   UNL     1      11.207  25.866   8.943  0.00  0.00    -0.223 NA
ATOM      8  C   UNL     1      10.450  24.951   8.234  0.00  0.00    +0.220 A 
ATOM      9  N   UNL     1      10.869  23.644   8.039  0.00  0.00    -0.283 N 
ATOM     36  H   UNL     1      10.279  22.998   7.516  0.00  0.00    +0.155 HD
ATOM     37  N   UNL     1       9.269  25.325   7.699  0.00  0.00    -0.214 NA
BRANCH   4   3
ATOM      1  C   UNL     1       4.953  27.134   7.247  0.00  0.00    +0.020 A 
ATOM      2  C   UNL     1       6.200  26.845   7.916  0.00  0.00    +0.013 A 
ATOM      3  C   UNL     1       7.464  26.896   7.191  0.00  0.00    +0.019 A 
ATOM     38  C   UNL     1       7.430  27.246   5.779  0.00  0.00    +0.120 A 
ATOM     39  N   UNL     1       6.213  27.518   5.161  0.00  0.00    -0.263 NA
ATOM     40  C   UNL     1       4.991  27.470   5.848  0.00  0.00    +0.111 A 
ENDBRANCH   4   3
ENDBRANCH  10   9
BRANCH  12  13
ATOM     13  N   UNL     1      15.786  23.103   7.511  0.00  0.00    -0.281 N 
ATOM     14  C   UNL     1      16.447  22.159   6.741  0.00  0.00    +0.248 C 
ATOM     30  O   UNL     1      16.195  20.963   6.747  0.00  0.00    -0.270 OA
ATOM     31  H   UNL     1      16.219  24.025   7.558  0.00  0.00    +0.155 HD
BRANCH  14  15
ATOM     15  C   UNL     1      17.556  22.607   5.845  0.00  0.00    +0.037 A 
ATOM     16  C   UNL     1      18.941  22.196   6.087  0.00  0.00    +0.013 A 
ATOM     17  C   UNL     1      19.995  22.655   5.217  0.00  0.00    +0.005 A 
ATOM     18  C   UNL     1      19.666  23.531   4.094  0.00  0.00    -0.033 A 
ATOM     28  C   UNL     1      18.282  23.919   3.874  0.00  0.00    +0.005 A 
ATOM     29  C   UNL     1      17.247  23.471   4.726  0.00  0.00    +0.013 A 
BRANCH  18  19
ATOM     19  C   UNL     1      20.728  24.086   3.128  0.00  0.00    +0.119 C 
BRANCH  19  20
ATOM     20  N   UNL     1      20.424  25.381   2.448  0.00  0.00    -0.302 NA
ATOM     21  C   UNL     1      21.359  25.641   1.264  0.00  0.00    +0.066 C 
ATOM     22  C   UNL     1      21.012  26.989   0.550  0.00  0.00    -0.064 C 
ATOM     23  N   UNL     1      21.089  28.133   1.563  0.00  0.00    +0.379 N 
ATOM     24  C   UNL     1      20.820  29.408   0.883  0.00  0.00    -0.096 C 
ATOM     25  H   UNL     1      22.133  28.170   1.952  0.00  0.00    -0.082 HD
ATOM     26  C   UNL     1      20.164  27.881   2.745  0.00  0.00    -0.064 C 
ATOM     27  C   UNL     1      20.498  26.525   3.429  0.00  0.00    +0.066 C 
ENDBRANCH  19  20
ENDBRANCH  18  19
ENDBRANCH  14  15
ENDBRANCH  12  13
TORSDOF 6
ENDMDL
