MODEL 1
REMARK VINA RESULT:      -8.1      0.000      0.000
REMARK  Name = C:\Users\Docking\Desktop\test protocol\1iep_ligandH.pdb
REMARK  8 active torsions:
REMARK  status: ('A' for Active; 'I' for Inactive)
REMARK    1  A    between atoms: _5  and  _11
REMARK    2  A    between atoms: _19  and  _21
REMARK    3  A    between atoms: _22  and  _66
REMARK    4  A    between atoms: _27  and  _30
REMARK    5  A    between atoms: _32  and  _33
REMARK    6  A    between atoms: _38  and  _43
REMARK    7  A    between atoms: _43  and  _46
REMARK    8  A    between atoms: _53  and  _55
REMARK                            x       y       z     vdW  Elec       q    Type
REMARK                         _______ _______ _______ _____ _____    ______ ____
ROOT
ATOM     10  C   UNL     1      -6.139  56.821   6.749  0.00  0.00    +0.038 A 
ATOM     11  C   UNL     1      -7.257  56.425   5.971  0.00  0.00    +0.047 A 
ATOM     12  C   UNL     1      -8.551  56.173   6.586  0.00  0.00    +0.035 A 
ATOM     32  C   UNL     1      -8.672  56.338   7.996  0.00  0.00    +0.024 A 
ATOM     33  C   UNL     1      -7.547  56.739   8.803  0.00  0.00    +0.007 A 
ATOM     34  C   UNL     1      -6.267  56.985   8.203  0.00  0.00    -0.029 A 
ATOM     35  C   UNL     1      -5.093  57.407   9.117  0.00  0.00    +0.045 C 
ENDROOT
BRANCH  10   9
ATOM      4  C   UNL     1      -1.698  55.494   5.505  0.00  0.00    +0.077 A 
ATOM      5  C   UNL     1      -1.805  54.253   6.217  0.00  0.00    +0.048 A 
ATOM      6  C   UNL     1      -3.018  53.997   6.896  0.00  0.00    +0.116 A 
ATOM      7  N   UNL     1      -4.040  54.921   6.859  0.00  0.00    -0.223 NA
ATOM      8  C   UNL     1      -3.903  56.109   6.165  0.00  0.00    +0.220 A 
ATOM      9  N   UNL     1      -4.920  57.049   6.107  0.00  0.00    -0.283 N 
ATOM     36  H   UNL     1      -4.777  57.916   5.590  0.00  0.00    +0.155 HD
ATOM     37  N   UNL     1      -2.754  56.377   5.509  0.00  0.00    -0.214 NA
BRANCH   4   3
ATOM      1  C   UNL     1       2.016  56.052   4.412  0.00  0.00    +0.020 A 
ATOM      2  C   UNL     1       0.875  55.633   5.193  0.00  0.00    +0.013 A 
ATOM      3  C   UNL     1      -0.481  55.906   4.736  0.00  0.00    +0.019 A 
ATOM     38  C   UNL     1      -0.651  56.611   3.474  0.00  0.00    +0.120 A 
ATOM     39  N   UNL     1       0.467  57.004   2.744  0.00  0.00    -0.263 NA
ATOM     40  C   UNL     1       1.777  56.748   3.175  0.00  0.00    +0.111 A 
ENDBRANCH   4   3
ENDBRANCH  10   9
BRANCH  12  13
ATOM     13  N   UNL     1      -9.719  55.761   5.847  0.00  0.00    -0.281 N 
ATOM     14  C   UNL     1     -10.783  56.545   5.430  0.00  0.00    +0.248 C 
ATOM     30  O   UNL     1     -10.995  57.685   5.816  0.00  0.00    -0.270 OA
ATOM     31  H   UNL     1      -9.768  54.772   5.603  0.00  0.00    +0.155 HD
BRANCH  14  15
ATOM     15  C   UNL     1     -11.761  55.974   4.454  0.00  0.00    +0.037 A 
ATOM     16  C   UNL     1     -11.576  54.635   3.889  0.00  0.00    +0.013 A 
ATOM     17  C   UNL     1     -12.525  54.115   2.936  0.00  0.00    +0.005 A 
ATOM     18  C   UNL     1     -13.669  54.935   2.544  0.00  0.00    -0.033 A 
ATOM     28  C   UNL     1     -13.830  56.258   3.125  0.00  0.00    +0.005 A 
ATOM     29  C   UNL     1     -12.902  56.771   4.058  0.00  0.00    +0.013 A 
BRANCH  18  19
ATOM     19  C   UNL     1     -14.720  54.470   1.519  0.00  0.00    +0.119 C 
BRANCH  19  20
ATOM     20  N   UNL     1     -14.217  53.970   0.204  0.00  0.00    -0.302 NA
ATOM     21  C   UNL     1     -13.222  54.940  -0.437  0.00  0.00    +0.066 C 
ATOM     22  C   UNL     1     -12.690  54.391  -1.801  0.00  0.00    -0.064 C 
ATOM     23  N   UNL     1     -13.870  54.128  -2.737  0.00  0.00    +0.379 N 
ATOM     24  C   UNL     1     -13.369  53.667  -4.040  0.00  0.00    -0.096 C 
ATOM     25  H   UNL     1     -14.395  55.099  -2.901  0.00  0.00    -0.082 HD
ATOM     26  C   UNL     1     -14.866  53.166  -2.106  0.00  0.00    -0.064 C 
ATOM     27  C   UNL     1     -15.367  53.707  -0.738  0.00  0.00    +0.066 C 
ENDBRANCH  19  20
ENDBRANCH  18  19
ENDBRANCH  14  15
ENDBRANCH  12  13
TORSDOF 6
ENDMDL
MODEL 2
REMARK VINA RESULT:      -8.0      9.635     14.225
REMARK  Name = C:\Users\Docking\Desktop\test protocol\1iep_ligandH.pdb
REMARK  8 active torsions:
REMARK  status: ('A' for Active; 'I' for Inactive)
REMARK    1  A    between atoms: _5  and  _11
REMARK    2  A    between atoms: _19  and  _21
REMARK    3  A    between atoms: _22  and  _66
REMARK    4  A    between atoms: _27  and  _30
REMARK    5  A    between atoms: _32  and  _33
REMARK    6  A    between atoms: _38  and  _43
REMARK    7  A    between atoms: _43  and  _46
REMARK    8  A    between atoms: _53  and  _55
REMARK                            x       y       z     vdW  Elec       q    Type
REMARK                         _______ _______ _______ _____ _____    ______ ____
ROOT
ATOM     10  C   UNL     1     -14.447  53.856  -1.315  0.00  0.00    +0.038 A 
ATOM     11  C   UNL     1     -15.166  52.947  -2.133  0.00  0.00    +0.047 A 
ATOM     12  C   UNL     1     -14.598  52.436  -3.370  0.00  0.00    +0.035 A 
ATOM     32  C   UNL     1     -13.292  52.870  -3.744  0.00  0.00    +0.024 A 
ATOM     33  C   UNL     1     -12.548  53.795  -2.925  0.00  0.00    +0.007 A 
ATOM     34  C   UNL     1     -13.105  54.304  -1.705  0.00  0.00    -0.029 A 
ATOM     35  C   UNL     1     -12.264  55.298  -0.870  0.00  0.00    +0.045 C 
ENDROOT
BRANCH  10   9
ATOM      4  C   UNL     1     -17.130  57.000   1.126  0.00  0.00    +0.077 A 
ATOM      5  C   UNL     1     -17.343  57.811  -0.037  0.00  0.00    +0.048 A 
ATOM      6  C   UNL     1     -16.740  57.389  -1.243  0.00  0.00    +0.116 A 
ATOM      7  N   UNL     1     -15.981  56.238  -1.271  0.00  0.00    -0.223 NA
ATOM      8  C   UNL     1     -15.794  55.480  -0.130  0.00  0.00    +0.220 A 
ATOM      9  N   UNL     1     -15.042  54.315  -0.137  0.00  0.00    -0.283 N 
ATOM     36  H   UNL     1     -14.921  53.787   0.727  0.00  0.00    +0.155 HD
ATOM     37  N   UNL     1     -16.359  55.863   1.034  0.00  0.00    -0.214 NA
BRANCH   4   3
ATOM      1  C   UNL     1     -19.623  57.887   4.007  0.00  0.00    +0.020 A 
ATOM      2  C   UNL     1     -19.119  57.591   2.686  0.00  0.00    +0.013 A 
ATOM      3  C   UNL     1     -17.704  57.313   2.473  0.00  0.00    +0.019 A 
ATOM     38  C   UNL     1     -16.819  57.341   3.628  0.00  0.00    +0.120 A 
ATOM     39  N   UNL     1     -17.333  57.631   4.888  0.00  0.00    -0.263 NA
ATOM     40  C   UNL     1     -18.692  57.902   5.104  0.00  0.00    +0.111 A 
ENDBRANCH   4   3
ENDBRANCH  10   9
BRANCH  12  13
ATOM     13  N   UNL     1     -15.284  51.518  -4.245  0.00  0.00    -0.281 N 
ATOM     14  C   UNL     1     -15.429  50.148  -4.097  0.00  0.00    +0.248 C 
ATOM     30  O   UNL     1     -14.805  49.470  -3.295  0.00  0.00    -0.270 OA
ATOM     31  H   UNL     1     -15.715  51.927  -5.074  0.00  0.00    +0.155 HD
BRANCH  14  15
ATOM     15  C   UNL     1     -16.397  49.426  -4.977  0.00  0.00    +0.037 A 
ATOM     16  C   UNL     1     -16.340  49.553  -6.435  0.00  0.00    +0.013 A 
ATOM     17  C   UNL     1     -17.297  48.858  -7.260  0.00  0.00    +0.005 A 
ATOM     18  C   UNL     1     -18.319  48.028  -6.627  0.00  0.00    -0.033 A 
ATOM     28  C   UNL     1     -18.350  47.916  -5.178  0.00  0.00    +0.005 A 
ATOM     29  C   UNL     1     -17.414  48.596  -4.366  0.00  0.00    +0.013 A 
BRANCH  18  19
ATOM     19  C   UNL     1     -19.393  47.268  -7.427  0.00  0.00    +0.119 C 
BRANCH  19  20
ATOM     20  N   UNL     1     -20.671  47.987  -7.711  0.00  0.00    -0.302 NA
ATOM     21  C   UNL     1     -21.771  47.621  -6.710  0.00  0.00    +0.066 C 
ATOM     22  C   UNL     1     -23.094  48.399  -7.008  0.00  0.00    -0.064 C 
ATOM     23  N   UNL     1     -23.544  48.104  -8.440  0.00  0.00    +0.379 N 
ATOM     24  C   UNL     1     -24.818  48.788  -8.704  0.00  0.00    -0.096 C 
ATOM     25  H   UNL     1     -23.726  47.007  -8.518  0.00  0.00    -0.082 HD
ATOM     26  C   UNL     1     -22.455  48.463  -9.441  0.00  0.00    -0.064 C 
ATOM     27  C   UNL     1     -21.136  47.707  -9.119  0.00  0.00    +0.066 C 
ENDBRANCH  19  20
ENDBRANCH  18  19
ENDBRANCH  14  15
ENDBRANCH  12  13
TORSDOF 6
ENDMDL
MODEL 3
REMARK VINA RESULT:      -7.9      9.691     14.285
REMARK  Name = C:\Users\Docking\Desktop\test protocol\1iep_ligandH.pdb
REMARK  8 active torsions:
REMARK  status: ('A' for Active; 'I' for Inactive)
REMARK    1  A    between atoms: _5  and  _11
REMARK    2  A    between atoms: _19  and  _21
REMARK    3  A    between atoms: _22  and  _66
REMARK    4  A    between atoms: _27  and  _30
REMARK    5  A    between atoms: _32  and  _33
REMARK    6  A    between atoms: _38  and  _43
REMARK    7  A    between atoms: _43  and  _46
REMARK    8  A    between atoms: _53  and  _55
REMARK                            x       y       z     vdW  Elec       q    Type
REMARK                         _______ _______ _______ _____ _____    ______ ____
ROOT
ATOM     10  C   UNL     1     -14.467  53.800  -1.395  0.00  0.00    +0.038 A 
ATOM     11  C   UNL     1     -15.179  52.898  -2.227  0.00  0.00    +0.047 A 
ATOM     12  C   UNL     1     -14.595  52.389  -3.458  0.00  0.00    +0.035 A 
ATOM     32  C   UNL     1     -13.282  52.817  -3.810  0.00  0.00    +0.024 A 
ATOM     33  C   UNL     1     -12.544  53.734  -2.977  0.00  0.00    +0.007 A 
ATOM     34  C   UNL     1     -13.116  54.242  -1.763  0.00  0.00    -0.029 A 
ATOM     35  C   UNL     1     -12.283  55.228  -0.912  0.00  0.00    +0.045 C 
ENDROOT
BRANCH  10   9
ATOM      4  C   UNL     1     -17.133  56.971   1.029  0.00  0.00    +0.077 A 
ATOM      5  C   UNL     1     -17.305  57.800  -0.129  0.00  0.00    +0.048 A 
ATOM      6  C   UNL     1     -16.685  57.379  -1.327  0.00  0.00    +0.116 A 
ATOM      7  N   UNL     1     -15.951  56.213  -1.353  0.00  0.00    -0.223 NA
ATOM      8  C   UNL     1     -15.803  55.437  -0.218  0.00  0.00    +0.220 A 
ATOM      9  N   UNL     1     -15.076  54.257  -0.224  0.00  0.00    -0.283 N 
ATOM     36  H   UNL     1     -14.985  53.717   0.636  0.00  0.00    +0.155 HD
ATOM     37  N   UNL     1     -16.384  55.819   0.938  0.00  0.00    -0.214 NA
BRANCH   4   3
ATOM      1  C   UNL     1     -17.592  57.515   4.875  0.00  0.00    +0.020 A 
ATOM      2  C   UNL     1     -16.969  57.205   3.609  0.00  0.00    +0.013 A 
ATOM      3  C   UNL     1     -17.729  57.280   2.367  0.00  0.00    +0.019 A 
ATOM     38  C   UNL     1     -19.127  57.675   2.442  0.00  0.00    +0.120 A 
ATOM     39  N   UNL     1     -19.701  57.965   3.676  0.00  0.00    -0.263 NA
ATOM     40  C   UNL     1     -18.980  57.895   4.878  0.00  0.00    +0.111 A 
ENDBRANCH   4   3
ENDBRANCH  10   9
BRANCH  12  13
ATOM     13  N   UNL     1     -15.273  51.477  -4.346  0.00  0.00    -0.281 N 
ATOM     14  C   UNL     1     -15.556  50.138  -4.137  0.00  0.00    +0.248 C 
ATOM     30  O   UNL     1     -15.079  49.462  -3.238  0.00  0.00    -0.270 OA
ATOM     31  H   UNL     1     -15.581  51.867  -5.237  0.00  0.00    +0.155 HD
BRANCH  14  15
ATOM     15  C   UNL     1     -16.496  49.445  -5.071  0.00  0.00    +0.037 A 
ATOM     16  C   UNL     1     -16.252  49.420  -6.515  0.00  0.00    +0.013 A 
ATOM     17  C   UNL     1     -17.182  48.759  -7.395  0.00  0.00    +0.005 A 
ATOM     18  C   UNL     1     -18.367  48.116  -6.832  0.00  0.00    -0.033 A 
ATOM     28  C   UNL     1     -18.582  48.150  -5.395  0.00  0.00    +0.005 A 
ATOM     29  C   UNL     1     -17.672  48.798  -4.529  0.00  0.00    +0.013 A 
BRANCH  18  19
ATOM     19  C   UNL     1     -19.424  47.405  -7.697  0.00  0.00    +0.119 C 
BRANCH  19  20
ATOM     20  N   UNL     1     -19.783  48.043  -8.999  0.00  0.00    -0.302 NA
ATOM     21  C   UNL     1     -20.787  49.186  -8.822  0.00  0.00    +0.066 C 
ATOM     22  C   UNL     1     -21.134  49.856 -10.191  0.00  0.00    -0.064 C 
ATOM     23  N   UNL     1     -21.681  48.798 -11.150  0.00  0.00    +0.379 N 
ATOM     24  C   UNL     1     -22.062  49.436 -12.419  0.00  0.00    -0.096 C 
ATOM     25  H   UNL     1     -22.605  48.374 -10.693  0.00  0.00    -0.082 HD
ATOM     26  C   UNL     1     -20.690  47.657 -11.330  0.00  0.00    -0.064 C 
ATOM     27  C   UNL     1     -20.330  47.017  -9.960  0.00  0.00    +0.066 C 
ENDBRANCH  19  20
ENDBRANCH  18  19
ENDBRANCH  14  15
ENDBRANCH  12  13
TORSDOF 6
ENDMDL
MODEL 4
REMARK VINA RESULT:      -7.5     13.275     17.211
REMARK  Name = C:\Users\Docking\Desktop\test protocol\1iep_ligandH.pdb
REMARK  8 active torsions:
REMARK  status: ('A' for Active; 'I' for Inactive)
REMARK    1  A    between atoms: _5  and  _11
REMARK    2  A    between atoms: _19  and  _21
REMARK    3  A    between atoms: _22  and  _66
REMARK    4  A    between atoms: _27  and  _30
REMARK    5  A    between atoms: _32  and  _33
REMARK    6  A    between atoms: _38  and  _43
REMARK    7  A    between atoms: _43  and  _46
REMARK    8  A    between atoms: _53  and  _55
REMARK                            x       y       z     vdW  Elec       q    Type
REMARK                         _______ _______ _______ _____ _____    ______ ____
ROOT
ATOM     10  C   UNL     1       5.494  58.977  -1.014  0.00  0.00    +0.038 A 
ATOM     11  C   UNL     1       5.382  58.024   0.031  0.00  0.00    +0.047 A 
ATOM     12  C   UNL     1       4.778  58.374   1.307  0.00  0.00    +0.035 A 
ATOM     32  C   UNL     1       4.295  59.704   1.483  0.00  0.00    +0.024 A 
ATOM     33  C   UNL     1       4.402  60.685   0.432  0.00  0.00    +0.007 A 
ATOM     34  C   UNL     1       4.999  60.346  -0.828  0.00  0.00    -0.029 A 
ATOM     35  C   UNL     1       5.093  61.440  -1.917  0.00  0.00    +0.045 C 
ENDROOT
BRANCH  10   9
ATOM      4  C   UNL     1       9.331  58.137  -3.773  0.00  0.00    +0.077 A 
ATOM      5  C   UNL     1      10.238  58.537  -2.736  0.00  0.00    +0.048 A 
ATOM      6  C   UNL     1       9.676  58.958  -1.510  0.00  0.00    +0.116 A 
ATOM      7  N   UNL     1       8.308  58.974  -1.344  0.00  0.00    -0.223 NA
ATOM      8  C   UNL     1       7.461  58.585  -2.366  0.00  0.00    +0.220 A 
ATOM      9  N   UNL     1       6.083  58.586  -2.219  0.00  0.00    -0.283 N 
ATOM     36  H   UNL     1       5.492  58.298  -2.999  0.00  0.00    +0.155 HD
ATOM     37  N   UNL     1       7.973  58.180  -3.547  0.00  0.00    -0.214 NA
BRANCH   4   3
ATOM      1  C   UNL     1      10.598  55.885  -6.710  0.00  0.00    +0.020 A 
ATOM      2  C   UNL     1      10.182  56.291  -5.387  0.00  0.00    +0.013 A 
ATOM      3  C   UNL     1       9.771  57.664  -5.124  0.00  0.00    +0.019 A 
ATOM     38  C   UNL     1       9.792  58.610  -6.230  0.00  0.00    +0.120 A 
ATOM     39  N   UNL     1      10.199  58.191  -7.493  0.00  0.00    -0.263 NA
ATOM     40  C   UNL     1      10.598  56.872  -7.757  0.00  0.00    +0.111 A 
ENDBRANCH   4   3
ENDBRANCH  10   9
BRANCH  12  13
ATOM     13  N   UNL     1       4.644  57.452   2.407  0.00  0.00    -0.281 N 
ATOM     14  C   UNL     1       5.598  57.106   3.349  0.00  0.00    +0.248 C 
ATOM     30  O   UNL     1       6.786  57.379   3.262  0.00  0.00    -0.270 OA
ATOM     31  H   UNL     1       3.735  56.999   2.502  0.00  0.00    +0.155 HD
BRANCH  14  15
ATOM     15  C   UNL     1       5.175  56.334   4.556  0.00  0.00    +0.037 A 
ATOM     16  C   UNL     1       6.158  55.813   5.509  0.00  0.00    +0.013 A 
ATOM     17  C   UNL     1       5.724  55.056   6.656  0.00  0.00    +0.005 A 
ATOM     18  C   UNL     1       4.297  54.817   6.858  0.00  0.00    -0.033 A 
ATOM     28  C   UNL     1       3.342  55.350   5.900  0.00  0.00    +0.005 A 
ATOM     29  C   UNL     1       3.764  56.091   4.774  0.00  0.00    +0.013 A 
BRANCH  18  19
ATOM     19  C   UNL     1       3.744  54.002   8.042  0.00  0.00    +0.119 C 
BRANCH  19  20
ATOM     20  N   UNL     1       4.385  54.212   9.375  0.00  0.00    -0.302 NA
ATOM     21  C   UNL     1       4.003  53.117  10.375  0.00  0.00    +0.066 C 
ATOM     22  C   UNL     1       4.700  53.340  11.756  0.00  0.00    -0.064 C 
ATOM     23  N   UNL     1       4.327  54.721  12.296  0.00  0.00    +0.379 N 
ATOM     24  C   UNL     1       4.934  54.910  13.622  0.00  0.00    -0.096 C 
ATOM     25  H   UNL     1       3.220  54.746  12.425  0.00  0.00    -0.082 HD
ATOM     26  C   UNL     1       4.701  55.815  11.307  0.00  0.00    -0.064 C 
ATOM     27  C   UNL     1       4.027  55.569   9.929  0.00  0.00    +0.066 C 
ENDBRANCH  19  20
ENDBRANCH  18  19
ENDBRANCH  14  15
ENDBRANCH  12  13
TORSDOF 6
ENDMDL
MODEL 5
REMARK VINA RESULT:      -7.5      2.550     12.227
REMARK  Name = C:\Users\Docking\Desktop\test protocol\1iep_ligandH.pdb
REMARK  8 active torsions:
REMARK  status: ('A' for Active; 'I' for Inactive)
REMARK    1  A    between atoms: _5  and  _11
REMARK    2  A    between atoms: _19  and  _21
REMARK    3  A    between atoms: _22  and  _66
REMARK    4  A    between atoms: _27  and  _30
REMARK    5  A    between atoms: _32  and  _33
REMARK    6  A    between atoms: _38  and  _43
REMARK    7  A    between atoms: _43  and  _46
REMARK    8  A    between atoms: _53  and  _55
REMARK                            x       y       z     vdW  Elec       q    Type
REMARK                         _______ _______ _______ _____ _____    ______ ____
ROOT
ATOM     10  C   UNL     1     -11.607  57.086   5.777  0.00  0.00    +0.038 A 
ATOM     11  C   UNL     1     -10.245  56.842   5.466  0.00  0.00    +0.047 A 
ATOM     12  C   UNL     1      -9.297  56.446   6.497  0.00  0.00    +0.035 A 
ATOM     32  C   UNL     1      -9.773  56.306   7.833  0.00  0.00    +0.024 A 
ATOM     33  C   UNL     1     -11.154  56.550   8.167  0.00  0.00    +0.007 A 
ATOM     34  C   UNL     1     -12.092  56.943   7.155  0.00  0.00    -0.029 A 
ATOM     35  C   UNL     1     -13.560  57.199   7.570  0.00  0.00    +0.045 C 
ENDROOT
BRANCH  10   9
ATOM      4  C   UNL     1     -14.920  56.083   2.451  0.00  0.00    +0.077 A 
ATOM      5  C   UNL     1     -14.905  54.685   2.773  0.00  0.00    +0.048 A 
ATOM      6  C   UNL     1     -14.025  54.264   3.795  0.00  0.00    +0.116 A 
ATOM      7  N   UNL     1     -13.225  55.181   4.441  0.00  0.00    -0.223 NA
ATOM      8  C   UNL     1     -13.263  56.522   4.106  0.00  0.00    +0.220 A 
ATOM      9  N   UNL     1     -12.473  57.463   4.748  0.00  0.00    -0.283 N 
ATOM     36  H   UNL     1     -12.525  58.442   4.466  0.00  0.00    +0.155 HD
ATOM     37  N   UNL     1     -14.093  56.949   3.132  0.00  0.00    -0.214 NA
BRANCH   4   3
ATOM      1  C   UNL     1     -16.310  57.320  -0.990  0.00  0.00    +0.020 A 
ATOM      2  C   UNL     1     -15.425  56.730  -0.011  0.00  0.00    +0.013 A 
ATOM      3  C   UNL     1     -15.798  56.682   1.397  0.00  0.00    +0.019 A 
ATOM     38  C   UNL     1     -17.083  57.244   1.785  0.00  0.00    +0.120 A 
ATOM     39  N   UNL     1     -17.913  57.807   0.821  0.00  0.00    -0.263 NA
ATOM     40  C   UNL     1     -17.565  57.860  -0.537  0.00  0.00    +0.111 A 
ENDBRANCH   4   3
ENDBRANCH  10   9
BRANCH  12  13
ATOM     13  N   UNL     1      -7.901  56.193   6.243  0.00  0.00    -0.281 N 
ATOM     14  C   UNL     1      -6.814  56.973   6.605  0.00  0.00    +0.248 C 
ATOM     30  O   UNL     1      -6.894  58.120   7.019  0.00  0.00    -0.270 OA
ATOM     31  H   UNL     1      -7.687  55.335   5.735  0.00  0.00    +0.155 HD
BRANCH  14  15
ATOM     15  C   UNL     1      -5.440  56.401   6.476  0.00  0.00    +0.037 A 
ATOM     16  C   UNL     1      -4.449  56.554   7.545  0.00  0.00    +0.013 A 
ATOM     17  C   UNL     1      -3.125  56.007   7.387  0.00  0.00    +0.005 A 
ATOM     18  C   UNL     1      -2.784  55.299   6.155  0.00  0.00    -0.033 A 
ATOM     28  C   UNL     1      -3.788  55.157   5.114  0.00  0.00    +0.005 A 
ATOM     29  C   UNL     1      -5.087  55.693   5.264  0.00  0.00    +0.013 A 
BRANCH  18  19
ATOM     19  C   UNL     1      -1.389  54.702   5.893  0.00  0.00    +0.119 C 
BRANCH  19  20
ATOM     20  N   UNL     1      -0.511  55.417   4.920  0.00  0.00    -0.302 NA
ATOM     21  C   UNL     1       0.944  55.473   5.393  0.00  0.00    +0.066 C 
ATOM     22  C   UNL     1       1.853  56.206   4.353  0.00  0.00    -0.064 C 
ATOM     23  N   UNL     1       1.309  57.614   4.107  0.00  0.00    +0.379 N 
ATOM     24  C   UNL     1       2.195  58.325   3.173  0.00  0.00    -0.096 C 
ATOM     25  H   UNL     1       1.333  58.160   5.078  0.00  0.00    -0.082 HD
ATOM     26  C   UNL     1      -0.138  57.568   3.638  0.00  0.00    -0.064 C 
ATOM     27  C   UNL     1      -1.027  56.812   4.665  0.00  0.00    +0.066 C 
ENDBRANCH  19  20
ENDBRANCH  18  19
ENDBRANCH  14  15
ENDBRANCH  12  13
TORSDOF 6
ENDMDL
