MODEL 1
REMARK VINA RESULT:      -7.6      0.000      0.000
REMARK  Name = C:\Users\Docking\Desktop\test protocol\1iep_ligandH.pdb
REMARK  8 active torsions:
REMARK  status: ('A' for Active; 'I' for Inactive)
REMARK    1  A    between atoms: _5  and  _11
REMARK    2  A    between atoms: _19  and  _21
REMARK    3  A    between atoms: _22  and  _66
REMARK    4  A    between atoms: _27  and  _30
REMARK    5  A    between atoms: _32  and  _33
REMARK    6  A    between atoms: _38  and  _43
REMARK    7  A    between atoms: _43  and  _46
REMARK    8  A    between atoms: _53  and  _55
REMARK                            x       y       z     vdW  Elec       q    Type
REMARK                         _______ _______ _______ _____ _____    ______ ____
ROOT
ATOM     10  C   UNL     1      -7.463  -1.936 -12.674  0.00  0.00    +0.038 A 
ATOM     11  C   UNL     1      -6.560  -2.156 -11.602  0.00  0.00    +0.047 A 
ATOM     12  C   UNL     1      -5.122  -2.172 -11.820  0.00  0.00    +0.035 A 
ATOM     32  C   UNL     1      -4.637  -1.957 -13.143  0.00  0.00    +0.024 A 
ATOM     33  C   UNL     1      -5.540  -1.733 -14.244  0.00  0.00    +0.007 A 
ATOM     34  C   UNL     1      -6.960  -1.718 -14.035  0.00  0.00    -0.029 A 
ATOM     35  C   UNL     1      -7.881  -1.480 -15.254  0.00  0.00    +0.045 C 
ENDROOT
BRANCH  10   9
ATOM      4  C   UNL     1     -11.738  -4.105 -12.444  0.00  0.00    +0.077 A 
ATOM      5  C   UNL     1     -11.200  -5.346 -12.921  0.00  0.00    +0.048 A 
ATOM      6  C   UNL     1      -9.819  -5.383 -13.221  0.00  0.00    +0.116 A 
ATOM      7  N   UNL     1      -9.045  -4.256 -13.052  0.00  0.00    -0.223 NA
ATOM      8  C   UNL     1      -9.596  -3.074 -12.592  0.00  0.00    +0.220 A 
ATOM      9  N   UNL     1      -8.834  -1.931 -12.407  0.00  0.00    -0.283 N 
ATOM     36  H   UNL     1      -9.279  -1.076 -12.073  0.00  0.00    +0.155 HD
ATOM     37  N   UNL     1     -10.912  -3.013 -12.300  0.00  0.00    -0.214 NA
BRANCH   4   3
ATOM      1  C   UNL     1     -15.203  -4.360 -10.647  0.00  0.00    +0.020 A 
ATOM      2  C   UNL     1     -13.809  -4.584 -10.954  0.00  0.00    +0.013 A 
ATOM      3  C   UNL     1     -13.177  -3.910 -12.081  0.00  0.00    +0.019 A 
ATOM     38  C   UNL     1     -13.990  -3.007 -12.883  0.00  0.00    +0.120 A 
ATOM     39  N   UNL     1     -15.330  -2.812 -12.564  0.00  0.00    -0.263 NA
ATOM     40  C   UNL     1     -15.949  -3.457 -11.483  0.00  0.00    +0.111 A 
ENDBRANCH   4   3
ENDBRANCH  10   9
BRANCH  12  13
ATOM     13  N   UNL     1      -4.158  -2.398 -10.772  0.00  0.00    -0.281 N 
ATOM     14  C   UNL     1      -3.148  -1.551 -10.347  0.00  0.00    +0.248 C 
ATOM     30  O   UNL     1      -2.783  -0.553 -10.950  0.00  0.00    -0.270 OA
ATOM     31  H   UNL     1      -4.229  -3.292 -10.285  0.00  0.00    +0.155 HD
BRANCH  14  15
ATOM     15  C   UNL     1      -2.428  -1.867  -9.075  0.00  0.00    +0.037 A 
ATOM     16  C   UNL     1      -2.459  -0.946  -7.936  0.00  0.00    +0.013 A 
ATOM     17  C   UNL     1      -1.743  -1.267  -6.727  0.00  0.00    +0.005 A 
ATOM     18  C   UNL     1      -0.990  -2.517  -6.651  0.00  0.00    -0.033 A 
ATOM     28  C   UNL     1      -0.980  -3.414  -7.795  0.00  0.00    +0.005 A 
ATOM     29  C   UNL     1      -1.680  -3.103  -8.981  0.00  0.00    +0.013 A 
BRANCH  18  19
ATOM     19  C   UNL     1      -0.178  -2.930  -5.409  0.00  0.00    +0.119 C 
BRANCH  19  20
ATOM     20  N   UNL     1       0.449  -4.286  -5.422  0.00  0.00    -0.302 NA
ATOM     21  C   UNL     1       0.312  -4.995  -4.072  0.00  0.00    +0.066 C 
ATOM     22  C   UNL     1       0.953  -6.420  -4.110  0.00  0.00    -0.064 C 
ATOM     23  N   UNL     1       2.424  -6.304  -4.514  0.00  0.00    +0.379 N 
ATOM     24  C   UNL     1       3.045  -7.636  -4.494  0.00  0.00    -0.096 C 
ATOM     25  H   UNL     1       2.937  -5.680  -3.745  0.00  0.00    -0.082 HD
ATOM     26  C   UNL     1       2.569  -5.597  -5.854  0.00  0.00    -0.064 C 
ATOM     27  C   UNL     1       1.903  -4.194  -5.814  0.00  0.00    +0.066 C 
ENDBRANCH  19  20
ENDBRANCH  18  19
ENDBRANCH  14  15
ENDBRANCH  12  13
TORSDOF 6
ENDMDL
MODEL 2
REMARK VINA RESULT:      -7.5     22.815     26.736
REMARK  Name = C:\Users\Docking\Desktop\test protocol\1iep_ligandH.pdb
REMARK  8 active torsions:
REMARK  status: ('A' for Active; 'I' for Inactive)
REMARK    1  A    between atoms: _5  and  _11
REMARK    2  A    between atoms: _19  and  _21
REMARK    3  A    between atoms: _22  and  _66
REMARK    4  A    between atoms: _27  and  _30
REMARK    5  A    between atoms: _32  and  _33
REMARK    6  A    between atoms: _38  and  _43
REMARK    7  A    between atoms: _43  and  _46
REMARK    8  A    between atoms: _53  and  _55
REMARK                            x       y       z     vdW  Elec       q    Type
REMARK                         _______ _______ _______ _____ _____    ______ ____
ROOT
ATOM     10  C   UNL     1     -20.296   3.987  10.825  0.00  0.00    +0.038 A 
ATOM     11  C   UNL     1     -19.972   4.283   9.476  0.00  0.00    +0.047 A 
ATOM     12  C   UNL     1     -20.935   4.068   8.407  0.00  0.00    +0.035 A 
ATOM     32  C   UNL     1     -22.219   3.552   8.747  0.00  0.00    +0.024 A 
ATOM     33  C   UNL     1     -22.565   3.245  10.113  0.00  0.00    +0.007 A 
ATOM     34  C   UNL     1     -21.619   3.453  11.172  0.00  0.00    -0.029 A 
ATOM     35  C   UNL     1     -22.042   3.100  12.617  0.00  0.00    +0.045 C 
ENDROOT
BRANCH  10   9
ATOM      4  C   UNL     1     -17.792   6.896  13.707  0.00  0.00    +0.077 A 
ATOM      5  C   UNL     1     -18.435   8.066  13.183  0.00  0.00    +0.048 A 
ATOM      6  C   UNL     1     -19.399   7.877  12.168  0.00  0.00    +0.116 A 
ATOM      7  N   UNL     1     -19.691   6.607  11.718  0.00  0.00    -0.223 NA
ATOM      8  C   UNL     1     -19.051   5.500  12.244  0.00  0.00    +0.220 A 
ATOM      9  N   UNL     1     -19.334   4.213  11.812  0.00  0.00    -0.283 N 
ATOM     36  H   UNL     1     -18.835   3.423  12.220  0.00  0.00    +0.155 HD
ATOM     37  N   UNL     1     -18.125   5.654  13.213  0.00  0.00    -0.214 NA
BRANCH   4   3
ATOM      1  C   UNL     1     -15.103   5.824  16.338  0.00  0.00    +0.020 A 
ATOM      2  C   UNL     1     -16.100   5.734  15.296  0.00  0.00    +0.013 A 
ATOM      3  C   UNL     1     -16.753   6.932  14.785  0.00  0.00    +0.019 A 
ATOM     38  C   UNL     1     -16.372   8.216  15.353  0.00  0.00    +0.120 A 
ATOM     39  N   UNL     1     -15.409   8.272  16.356  0.00  0.00    -0.263 NA
ATOM     40  C   UNL     1     -14.775   7.126  16.857  0.00  0.00    +0.111 A 
ENDBRANCH   4   3
ENDBRANCH  10   9
BRANCH  12  13
ATOM     13  N   UNL     1     -20.660   4.342   7.018  0.00  0.00    -0.281 N 
ATOM     14  C   UNL     1     -20.887   5.517   6.321  0.00  0.00    +0.248 C 
ATOM     30  O   UNL     1     -21.563   6.447   6.736  0.00  0.00    -0.270 OA
ATOM     31  H   UNL     1     -20.247   3.577   6.484  0.00  0.00    +0.155 HD
BRANCH  14  15
ATOM     15  C   UNL     1     -20.290   5.676   4.960  0.00  0.00    +0.037 A 
ATOM     16  C   UNL     1     -19.733   4.531   4.236  0.00  0.00    +0.013 A 
ATOM     17  C   UNL     1     -19.147   4.716   2.932  0.00  0.00    +0.005 A 
ATOM     18  C   UNL     1     -19.117   6.052   2.343  0.00  0.00    -0.033 A 
ATOM     28  C   UNL     1     -19.681   7.170   3.081  0.00  0.00    +0.005 A 
ATOM     29  C   UNL     1     -20.255   6.993   4.360  0.00  0.00    +0.013 A 
BRANCH  18  19
ATOM     19  C   UNL     1     -18.492   6.345   0.966  0.00  0.00    +0.119 C 
BRANCH  19  20
ATOM     20  N   UNL     1     -17.572   7.518   0.867  0.00  0.00    -0.302 NA
ATOM     21  C   UNL     1     -18.261   8.738   0.249  0.00  0.00    +0.066 C 
ATOM     22  C   UNL     1     -17.291   9.962   0.175  0.00  0.00    -0.064 C 
ATOM     23  N   UNL     1     -16.048   9.576  -0.629  0.00  0.00    +0.379 N 
ATOM     24  C   UNL     1     -15.160  10.741  -0.750  0.00  0.00    -0.096 C 
ATOM     25  H   UNL     1     -16.383   9.297  -1.655  0.00  0.00    -0.082 HD
ATOM     26  C   UNL     1     -15.359   8.361  -0.023  0.00  0.00    -0.064 C 
ATOM     27  C   UNL     1     -16.340   7.160   0.074  0.00  0.00    +0.066 C 
ENDBRANCH  19  20
ENDBRANCH  18  19
ENDBRANCH  14  15
ENDBRANCH  12  13
TORSDOF 6
ENDMDL
MODEL 3
REMARK VINA RESULT:      -7.5     23.443     25.762
REMARK  Name = C:\Users\Docking\Desktop\test protocol\1iep_ligandH.pdb
REMARK  8 active torsions:
REMARK  status: ('A' for Active; 'I' for Inactive)
REMARK    1  A    between atoms: _5  and  _11
REMARK    2  A    between atoms: _19  and  _21
REMARK    3  A    between atoms: _22  and  _66
REMARK    4  A    between atoms: _27  and  _30
REMARK    5  A    between atoms: _32  and  _33
REMARK    6  A    between atoms: _38  and  _43
REMARK    7  A    between atoms: _43  and  _46
REMARK    8  A    between atoms: _53  and  _55
REMARK                            x       y       z     vdW  Elec       q    Type
REMARK                         _______ _______ _______ _____ _____    ______ ____
ROOT
ATOM     10  C   UNL     1     -20.893   3.820   8.904  0.00  0.00    +0.038 A 
ATOM     11  C   UNL     1     -19.840   4.300   9.722  0.00  0.00    +0.047 A 
ATOM     12  C   UNL     1     -20.082   4.714  11.096  0.00  0.00    +0.035 A 
ATOM     32  C   UNL     1     -21.411   4.622  11.604  0.00  0.00    +0.024 A 
ATOM     33  C   UNL     1     -22.494   4.137  10.785  0.00  0.00    +0.007 A 
ATOM     34  C   UNL     1     -22.261   3.730   9.429  0.00  0.00    -0.029 A 
ATOM     35  C   UNL     1     -23.461   3.224   8.595  0.00  0.00    +0.045 C 
ENDROOT
BRANCH  10   9
ATOM      4  C   UNL     1     -19.964   4.831   4.305  0.00  0.00    +0.077 A 
ATOM      5  C   UNL     1     -20.093   6.243   4.528  0.00  0.00    +0.048 A 
ATOM      6  C   UNL     1     -20.406   6.666   5.839  0.00  0.00    +0.116 A 
ATOM      7  N   UNL     1     -20.575   5.739   6.844  0.00  0.00    -0.223 NA
ATOM      8  C   UNL     1     -20.446   4.385   6.595  0.00  0.00    +0.220 A 
ATOM      9  N   UNL     1     -20.604   3.436   7.592  0.00  0.00    -0.283 N 
ATOM     36  H   UNL     1     -20.507   2.446   7.366  0.00  0.00    +0.155 HD
ATOM     37  N   UNL     1     -20.148   3.955   5.351  0.00  0.00    -0.214 NA
BRANCH   4   3
ATOM      1  C   UNL     1     -18.153   3.953   0.951  0.00  0.00    +0.020 A 
ATOM      2  C   UNL     1     -18.426   4.565   2.231  0.00  0.00    +0.013 A 
ATOM      3  C   UNL     1     -19.633   4.228   2.975  0.00  0.00    +0.019 A 
ATOM     38  C   UNL     1     -20.550   3.261   2.392  0.00  0.00    +0.120 A 
ATOM     39  N   UNL     1     -20.262   2.689   1.156  0.00  0.00    -0.263 NA
ATOM     40  C   UNL     1     -19.104   3.007   0.430  0.00  0.00    +0.111 A 
ENDBRANCH   4   3
ENDBRANCH  10   9
BRANCH  12  13
ATOM     13  N   UNL     1     -19.054   5.217  11.972  0.00  0.00    -0.281 N 
ATOM     14  C   UNL     1     -18.864   6.520  12.402  0.00  0.00    +0.248 C 
ATOM     30  O   UNL     1     -19.428   7.494  11.925  0.00  0.00    -0.270 OA
ATOM     31  H   UNL     1     -18.384   4.529  12.316  0.00  0.00    +0.155 HD
BRANCH  14  15
ATOM     15  C   UNL     1     -17.898   6.781  13.512  0.00  0.00    +0.037 A 
ATOM     16  C   UNL     1     -17.589   8.145  13.947  0.00  0.00    +0.013 A 
ATOM     17  C   UNL     1     -16.641   8.369  15.009  0.00  0.00    +0.005 A 
ATOM     18  C   UNL     1     -15.995   7.224  15.645  0.00  0.00    -0.033 A 
ATOM     28  C   UNL     1     -16.323   5.880  15.198  0.00  0.00    +0.005 A 
ATOM     29  C   UNL     1     -17.252   5.657  14.157  0.00  0.00    +0.013 A 
BRANCH  18  19
ATOM     19  C   UNL     1     -14.955   7.370  16.772  0.00  0.00    +0.119 C 
BRANCH  19  20
ATOM     20  N   UNL     1     -13.514   7.283  16.388  0.00  0.00    -0.302 NA
ATOM     21  C   UNL     1     -13.099   8.422  15.453  0.00  0.00    +0.066 C 
ATOM     22  C   UNL     1     -11.584   8.328  15.079  0.00  0.00    -0.064 C 
ATOM     23  N   UNL     1     -11.303   6.969  14.435  0.00  0.00    +0.379 N 
ATOM     24  C   UNL     1      -9.892   6.900  14.030  0.00  0.00    -0.096 C 
ATOM     25  H   UNL     1     -11.924   6.898  13.512  0.00  0.00    -0.082 HD
ATOM     26  C   UNL     1     -11.716   5.830  15.357  0.00  0.00    -0.064 C 
ATOM     27  C   UNL     1     -13.216   5.950  15.746  0.00  0.00    +0.066 C 
ENDBRANCH  19  20
ENDBRANCH  18  19
ENDBRANCH  14  15
ENDBRANCH  12  13
TORSDOF 6
ENDMDL
MODEL 4
REMARK VINA RESULT:      -7.4      9.844     13.699
REMARK  Name = C:\Users\Docking\Desktop\test protocol\1iep_ligandH.pdb
REMARK  8 active torsions:
REMARK  status: ('A' for Active; 'I' for Inactive)
REMARK    1  A    between atoms: _5  and  _11
REMARK    2  A    between atoms: _19  and  _21
REMARK    3  A    between atoms: _22  and  _66
REMARK    4  A    between atoms: _27  and  _30
REMARK    5  A    between atoms: _32  and  _33
REMARK    6  A    between atoms: _38  and  _43
REMARK    7  A    between atoms: _43  and  _46
REMARK    8  A    between atoms: _53  and  _55
REMARK                            x       y       z     vdW  Elec       q    Type
REMARK                         _______ _______ _______ _____ _____    ______ ____
ROOT
ATOM     10  C   UNL     1       1.887  -1.906  -4.832  0.00  0.00    +0.038 A 
ATOM     11  C   UNL     1       3.208  -1.444  -4.601  0.00  0.00    +0.047 A 
ATOM     12  C   UNL     1       3.514  -0.022  -4.573  0.00  0.00    +0.035 A 
ATOM     32  C   UNL     1       2.449   0.902  -4.781  0.00  0.00    +0.024 A 
ATOM     33  C   UNL     1       1.101   0.450  -5.017  0.00  0.00    +0.007 A 
ATOM     34  C   UNL     1       0.793  -0.951  -5.049  0.00  0.00    -0.029 A 
ATOM     35  C   UNL     1      -0.669  -1.379  -5.313  0.00  0.00    +0.045 C 
ENDROOT
BRANCH  10   9
ATOM      4  C   UNL     1       1.451  -6.098  -7.127  0.00  0.00    +0.077 A 
ATOM      5  C   UNL     1       1.689  -5.491  -8.405  0.00  0.00    +0.048 A 
ATOM      6  C   UNL     1       1.913  -4.096  -8.429  0.00  0.00    +0.116 A 
ATOM      7  N   UNL     1       1.897  -3.372  -7.256  0.00  0.00    -0.223 NA
ATOM      8  C   UNL     1       1.663  -3.989  -6.041  0.00  0.00    +0.220 A 
ATOM      9  N   UNL     1       1.650  -3.282  -4.848  0.00  0.00    -0.283 N 
ATOM     36  H   UNL     1       1.466  -3.772  -3.973  0.00  0.00    +0.155 HD
ATOM     37  N   UNL     1       1.445  -5.319  -5.991  0.00  0.00    -0.214 NA
BRANCH   4   3
ATOM      1  C   UNL     1       1.315  -9.966  -7.696  0.00  0.00    +0.020 A 
ATOM      2  C   UNL     1       1.578  -8.564  -7.928  0.00  0.00    +0.013 A 
ATOM      3  C   UNL     1       1.202  -7.562  -6.938  0.00  0.00    +0.019 A 
ATOM     38  C   UNL     1       0.558  -8.015  -5.715  0.00  0.00    +0.120 A 
ATOM     39  N   UNL     1       0.316  -9.372  -5.519  0.00  0.00    -0.263 NA
ATOM     40  C   UNL     1       0.672 -10.345  -6.465  0.00  0.00    +0.111 A 
ENDBRANCH   4   3
ENDBRANCH  10   9
BRANCH  12  13
ATOM     13  N   UNL     1       4.838   0.506  -4.352  0.00  0.00    -0.281 N 
ATOM     14  C   UNL     1       5.683   1.100  -5.274  0.00  0.00    +0.248 C 
ATOM     30  O   UNL     1       5.513   1.074  -6.484  0.00  0.00    -0.270 OA
ATOM     31  H   UNL     1       5.195   0.433  -3.399  0.00  0.00    +0.155 HD
BRANCH  14  15
ATOM     15  C   UNL     1       6.902   1.812  -4.783  0.00  0.00    +0.037 A 
ATOM     16  C   UNL     1       6.885   3.254  -4.521  0.00  0.00    +0.013 A 
ATOM     17  C   UNL     1       8.079   3.920  -4.064  0.00  0.00    +0.005 A 
ATOM     18  C   UNL     1       9.300   3.143  -3.865  0.00  0.00    -0.033 A 
ATOM     28  C   UNL     1       9.287   1.714  -4.128  0.00  0.00    +0.005 A 
ATOM     29  C   UNL     1       8.119   1.058  -4.577  0.00  0.00    +0.013 A 
BRANCH  18  19
ATOM     19  C   UNL     1      10.626   3.774  -3.401  0.00  0.00    +0.119 C 
BRANCH  19  20
ATOM     20  N   UNL     1      10.665   4.346  -2.021  0.00  0.00    -0.302 NA
ATOM     21  C   UNL     1      11.550   5.593  -1.941  0.00  0.00    +0.066 C 
ATOM     22  C   UNL     1      11.562   6.191  -0.496  0.00  0.00    -0.064 C 
ATOM     23  N   UNL     1      12.038   5.123   0.491  0.00  0.00    +0.379 N 
ATOM     24  C   UNL     1      12.105   5.699   1.842  0.00  0.00    -0.096 C 
ATOM     25  H   UNL     1      13.072   4.829   0.197  0.00  0.00    -0.082 HD
ATOM     26  C   UNL     1      11.164   3.879   0.415  0.00  0.00    -0.064 C 
ATOM     27  C   UNL     1      11.136   3.310  -1.031  0.00  0.00    +0.066 C 
ENDBRANCH  19  20
ENDBRANCH  18  19
ENDBRANCH  14  15
ENDBRANCH  12  13
TORSDOF 6
ENDMDL
MODEL 5
REMARK VINA RESULT:      -7.4      8.912     14.534
REMARK  Name = C:\Users\Docking\Desktop\test protocol\1iep_ligandH.pdb
REMARK  8 active torsions:
REMARK  status: ('A' for Active; 'I' for Inactive)
REMARK    1  A    between atoms: _5  and  _11
REMARK    2  A    between atoms: _19  and  _21
REMARK    3  A    between atoms: _22  and  _66
REMARK    4  A    between atoms: _27  and  _30
REMARK    5  A    between atoms: _32  and  _33
REMARK    6  A    between atoms: _38  and  _43
REMARK    7  A    between atoms: _43  and  _46
REMARK    8  A    between atoms: _53  and  _55
REMARK                            x       y       z     vdW  Elec       q    Type
REMARK                         _______ _______ _______ _____ _____    ______ ____
ROOT
ATOM     10  C   UNL     1       3.377   5.275  -5.248  0.00  0.00    +0.038 A 
ATOM     11  C   UNL     1       2.533   4.197  -5.615  0.00  0.00    +0.047 A 
ATOM     12  C   UNL     1       3.084   2.904  -5.991  0.00  0.00    +0.035 A 
ATOM     32  C   UNL     1       4.500   2.744  -5.979  0.00  0.00    +0.024 A 
ATOM     33  C   UNL     1       5.373   3.830  -5.610  0.00  0.00    +0.007 A 
ATOM     34  C   UNL     1       4.836   5.108  -5.241  0.00  0.00    -0.029 A 
ATOM     35  C   UNL     1       5.820   6.239  -4.860  0.00  0.00    +0.045 C 
ENDROOT
BRANCH  10   9
ATOM      4  C   UNL     1       2.230   9.843  -6.176  0.00  0.00    +0.077 A 
ATOM      5  C   UNL     1       2.869   9.804  -7.460  0.00  0.00    +0.048 A 
ATOM      6  C   UNL     1       3.488   8.592  -7.841  0.00  0.00    +0.116 A 
ATOM      7  N   UNL     1       3.463   7.506  -6.993  0.00  0.00    -0.223 NA
ATOM      8  C   UNL     1       2.839   7.577  -5.761  0.00  0.00    +0.220 A 
ATOM      9  N   UNL     1       2.795   6.495  -4.896  0.00  0.00    -0.283 N 
ATOM     36  H   UNL     1       2.331   6.590  -3.993  0.00  0.00    +0.155 HD
ATOM     37  N   UNL     1       2.243   8.724  -5.374  0.00  0.00    -0.214 NA
BRANCH   4   3
ATOM      1  C   UNL     1      -0.290  12.163  -4.288  0.00  0.00    +0.020 A 
ATOM      2  C   UNL     1       0.348  10.966  -4.787  0.00  0.00    +0.013 A 
ATOM      3  C   UNL     1       1.531  11.050  -5.633  0.00  0.00    +0.019 A 
ATOM     38  C   UNL     1       2.048  12.370  -5.959  0.00  0.00    +0.120 A 
ATOM     39  N   UNL     1       1.413  13.505  -5.466  0.00  0.00    -0.263 NA
ATOM     40  C   UNL     1       0.272  13.437  -4.652  0.00  0.00    +0.111 A 
ENDBRANCH   4   3
ENDBRANCH  10   9
BRANCH  12  13
ATOM     13  N   UNL     1       2.276   1.775  -6.381  0.00  0.00    -0.281 N 
ATOM     14  C   UNL     1       1.820   0.738  -5.583  0.00  0.00    +0.248 C 
ATOM     30  O   UNL     1       2.217   0.512  -4.450  0.00  0.00    -0.270 OA
ATOM     31  H   UNL     1       2.009   1.734  -7.364  0.00  0.00    +0.155 HD
BRANCH  14  15
ATOM     15  C   UNL     1       0.782  -0.189  -6.128  0.00  0.00    +0.037 A 
ATOM     16  C   UNL     1       0.071  -1.130  -5.258  0.00  0.00    +0.013 A 
ATOM     17  C   UNL     1      -0.913  -2.025  -5.812  0.00  0.00    +0.005 A 
ATOM     18  C   UNL     1      -1.194  -1.982  -7.245  0.00  0.00    -0.033 A 
ATOM     28  C   UNL     1      -0.478  -1.036  -8.084  0.00  0.00    +0.005 A 
ATOM     29  C   UNL     1       0.488  -0.157  -7.545  0.00  0.00    +0.013 A 
BRANCH  18  19
ATOM     19  C   UNL     1      -2.213  -2.915  -7.925  0.00  0.00    +0.119 C 
BRANCH  19  20
ATOM     20  N   UNL     1      -1.678  -3.938  -8.873  0.00  0.00    -0.302 NA
ATOM     21  C   UNL     1      -2.777  -4.534  -9.756  0.00  0.00    +0.066 C 
ATOM     22  C   UNL     1      -2.196  -5.586 -10.757  0.00  0.00    -0.064 C 
ATOM     23  N   UNL     1      -1.474  -6.684  -9.975  0.00  0.00    +0.379 N 
ATOM     24  C   UNL     1      -0.976  -7.705 -10.909  0.00  0.00    -0.096 C 
ATOM     25  H   UNL     1      -2.222  -7.172  -9.308  0.00  0.00    -0.082 HD
ATOM     26  C   UNL     1      -0.380  -6.100  -9.092  0.00  0.00    -0.064 C 
ATOM     27  C   UNL     1      -0.964  -5.035  -8.122  0.00  0.00    +0.066 C 
ENDBRANCH  19  20
ENDBRANCH  18  19
ENDBRANCH  14  15
ENDBRANCH  12  13
TORSDOF 6
ENDMDL
