MODEL 1
REMARK VINA RESULT:      -7.8      0.000      0.000
REMARK  Name = C:\Users\Docking\Desktop\test protocol\1iep_ligandH.pdb
REMARK  8 active torsions:
REMARK  status: ('A' for Active; 'I' for Inactive)
REMARK    1  A    between atoms: _5  and  _11
REMARK    2  A    between atoms: _19  and  _21
REMARK    3  A    between atoms: _22  and  _66
REMARK    4  A    between atoms: _27  and  _30
REMARK    5  A    between atoms: _32  and  _33
REMARK    6  A    between atoms: _38  and  _43
REMARK    7  A    between atoms: _43  and  _46
REMARK    8  A    between atoms: _53  and  _55
REMARK                            x       y       z     vdW  Elec       q    Type
REMARK                         _______ _______ _______ _____ _____    ______ ____
ROOT
ATOM     10  C   UNL     1     -15.160  10.096   0.016  0.00  0.00    +0.038 A 
ATOM     11  C   UNL     1     -15.628   8.757   0.018  0.00  0.00    +0.047 A 
ATOM     12  C   UNL     1     -16.528   8.272  -1.017  0.00  0.00    +0.035 A 
ATOM     32  C   UNL     1     -16.929   9.178  -2.041  0.00  0.00    +0.024 A 
ATOM     33  C   UNL     1     -16.465  10.543  -2.058  0.00  0.00    +0.007 A 
ATOM     34  C   UNL     1     -15.579  11.027  -1.038  0.00  0.00    -0.029 A 
ATOM     35  C   UNL     1     -15.117  12.502  -1.103  0.00  0.00    +0.045 C 
ENDROOT
BRANCH  10   9
ATOM      4  C   UNL     1     -14.325  11.777   4.433  0.00  0.00    +0.077 A 
ATOM      5  C   UNL     1     -15.726  11.867   4.728  0.00  0.00    +0.048 A 
ATOM      6  C   UNL     1     -16.629  11.479   3.713  0.00  0.00    +0.116 A 
ATOM      7  N   UNL     1     -16.154  11.033   2.498  0.00  0.00    -0.223 NA
ATOM      8  C   UNL     1     -14.797  10.960   2.246  0.00  0.00    +0.220 A 
ATOM      9  N   UNL     1     -14.298  10.507   1.034  0.00  0.00    -0.283 N 
ATOM     36  H   UNL     1     -13.290  10.475   0.885  0.00  0.00    +0.155 HD
ATOM     37  N   UNL     1     -13.914  11.327   3.198  0.00  0.00    -0.214 NA
BRANCH   4   3
ATOM      1  C   UNL     1     -11.032  11.752   6.545  0.00  0.00    +0.020 A 
ATOM      2  C   UNL     1     -12.042  11.349   5.594  0.00  0.00    +0.013 A 
ATOM      3  C   UNL     1     -13.247  12.148   5.404  0.00  0.00    +0.019 A 
ATOM     38  C   UNL     1     -13.399  13.358   6.197  0.00  0.00    +0.120 A 
ATOM     39  N   UNL     1     -12.409  13.721   7.106  0.00  0.00    -0.263 NA
ATOM     40  C   UNL     1     -11.247  12.960   7.298  0.00  0.00    +0.111 A 
ENDBRANCH   4   3
ENDBRANCH  10   9
BRANCH  12  13
ATOM     13  N   UNL     1     -17.042   6.926  -1.062  0.00  0.00    -0.281 N 
ATOM     14  C   UNL     1     -18.119   6.402  -0.367  0.00  0.00    +0.248 C 
ATOM     30  O   UNL     1     -18.677   6.960   0.566  0.00  0.00    -0.270 OA
ATOM     31  H   UNL     1     -16.551   6.281  -1.682  0.00  0.00    +0.155 HD
BRANCH  14  15
ATOM     15  C   UNL     1     -18.644   5.057  -0.756  0.00  0.00    +0.037 A 
ATOM     16  C   UNL     1     -18.157   3.836  -0.110  0.00  0.00    +0.013 A 
ATOM     17  C   UNL     1     -18.668   2.550  -0.516  0.00  0.00    +0.005 A 
ATOM     18  C   UNL     1     -19.674   2.480  -1.573  0.00  0.00    -0.033 A 
ATOM     28  C   UNL     1     -20.144   3.708  -2.193  0.00  0.00    +0.005 A 
ATOM     29  C   UNL     1     -19.645   4.970  -1.798  0.00  0.00    +0.013 A 
BRANCH  18  19
ATOM     19  C   UNL     1     -20.259   1.151  -2.084  0.00  0.00    +0.119 C 
BRANCH  19  20
ATOM     20  N   UNL     1     -20.116   0.855  -3.541  0.00  0.00    -0.302 NA
ATOM     21  C   UNL     1     -21.247  -0.037  -4.060  0.00  0.00    +0.066 C 
ATOM     22  C   UNL     1     -21.093  -0.317  -5.590  0.00  0.00    -0.064 C 
ATOM     23  N   UNL     1     -19.731  -0.961  -5.854  0.00  0.00    +0.379 N 
ATOM     24  C   UNL     1     -19.607  -1.279  -7.284  0.00  0.00    -0.096 C 
ATOM     25  H   UNL     1     -19.697  -1.922  -5.289  0.00  0.00    -0.082 HD
ATOM     26  C   UNL     1     -18.601  -0.082  -5.338  0.00  0.00    -0.064 C 
ATOM     27  C   UNL     1     -18.779   0.215  -3.823  0.00  0.00    +0.066 C 
ENDBRANCH  19  20
ENDBRANCH  18  19
ENDBRANCH  14  15
ENDBRANCH  12  13
TORSDOF 6
ENDMDL
MODEL 2
REMARK VINA RESULT:      -7.8      8.233     10.299
REMARK  Name = C:\Users\Docking\Desktop\test protocol\1iep_ligandH.pdb
REMARK  8 active torsions:
REMARK  status: ('A' for Active; 'I' for Inactive)
REMARK    1  A    between atoms: _5  and  _11
REMARK    2  A    between atoms: _19  and  _21
REMARK    3  A    between atoms: _22  and  _66
REMARK    4  A    between atoms: _27  and  _30
REMARK    5  A    between atoms: _32  and  _33
REMARK    6  A    between atoms: _38  and  _43
REMARK    7  A    between atoms: _43  and  _46
REMARK    8  A    between atoms: _53  and  _55
REMARK                            x       y       z     vdW  Elec       q    Type
REMARK                         _______ _______ _______ _____ _____    ______ ____
ROOT
ATOM     10  C   UNL     1     -20.253   3.720  10.135  0.00  0.00    +0.038 A 
ATOM     11  C   UNL     1     -19.964   4.030   8.781  0.00  0.00    +0.047 A 
ATOM     12  C   UNL     1     -20.975   3.892   7.745  0.00  0.00    +0.035 A 
ATOM     32  C   UNL     1     -22.272   3.438   8.124  0.00  0.00    +0.024 A 
ATOM     33  C   UNL     1     -22.583   3.116   9.494  0.00  0.00    +0.007 A 
ATOM     34  C   UNL     1     -21.588   3.248  10.520  0.00  0.00    -0.029 A 
ATOM     35  C   UNL     1     -21.975   2.883  11.972  0.00  0.00    +0.045 C 
ENDROOT
BRANCH  10   9
ATOM      4  C   UNL     1     -17.645   6.391  13.152  0.00  0.00    +0.077 A 
ATOM      5  C   UNL     1     -18.333   7.592  12.776  0.00  0.00    +0.048 A 
ATOM      6  C   UNL     1     -19.347   7.481  11.798  0.00  0.00    +0.116 A 
ATOM      7  N   UNL     1     -19.642   6.254  11.244  0.00  0.00    -0.223 NA
ATOM      8  C   UNL     1     -18.958   5.115  11.627  0.00  0.00    +0.220 A 
ATOM      9  N   UNL     1     -19.244   3.870  11.088  0.00  0.00    -0.283 N 
ATOM     36  H   UNL     1     -18.711   3.055  11.392  0.00  0.00    +0.155 HD
ATOM     37  N   UNL     1     -17.985   5.196  12.558  0.00  0.00    -0.214 NA
BRANCH   4   3
ATOM      1  C   UNL     1     -14.782   5.135  15.503  0.00  0.00    +0.020 A 
ATOM      2  C   UNL     1     -15.830   5.124  14.508  0.00  0.00    +0.013 A 
ATOM      3  C   UNL     1     -16.552   6.346  14.174  0.00  0.00    +0.019 A 
ATOM     38  C   UNL     1     -16.185   7.570  14.869  0.00  0.00    +0.120 A 
ATOM     39  N   UNL     1     -15.173   7.550  15.823  0.00  0.00    -0.263 NA
ATOM     40  C   UNL     1     -14.473   6.380  16.154  0.00  0.00    +0.111 A 
ENDBRANCH   4   3
ENDBRANCH  10   9
BRANCH  12  13
ATOM     13  N   UNL     1     -20.738   4.185   6.353  0.00  0.00    -0.281 N 
ATOM     14  C   UNL     1     -20.244   5.356   5.802  0.00  0.00    +0.248 C 
ATOM     30  O   UNL     1     -20.131   6.411   6.407  0.00  0.00    -0.270 OA
ATOM     31  H   UNL     1     -20.962   3.439   5.695  0.00  0.00    +0.155 HD
BRANCH  14  15
ATOM     15  C   UNL     1     -19.829   5.358   4.366  0.00  0.00    +0.037 A 
ATOM     16  C   UNL     1     -19.409   4.125   3.694  0.00  0.00    +0.013 A 
ATOM     17  C   UNL     1     -18.997   4.158   2.313  0.00  0.00    +0.005 A 
ATOM     18  C   UNL     1     -19.004   5.430   1.594  0.00  0.00    -0.033 A 
ATOM     28  C   UNL     1     -19.430   6.637   2.283  0.00  0.00    +0.005 A 
ATOM     29  C   UNL     1     -19.833   6.609   3.637  0.00  0.00    +0.013 A 
BRANCH  18  19
ATOM     19  C   UNL     1     -18.560   5.563   0.125  0.00  0.00    +0.119 C 
BRANCH  19  20
ATOM     20  N   UNL     1     -17.788   6.785  -0.248  0.00  0.00    -0.302 NA
ATOM     21  C   UNL     1     -18.434   7.539  -1.414  0.00  0.00    +0.066 C 
ATOM     22  C   UNL     1     -17.626   8.827  -1.777  0.00  0.00    -0.064 C 
ATOM     23  N   UNL     1     -16.184   8.444  -2.113  0.00  0.00    +0.379 N 
ATOM     24  C   UNL     1     -15.436   9.645  -2.510  0.00  0.00    -0.096 C 
ATOM     25  H   UNL     1     -16.212   7.757  -2.990  0.00  0.00    -0.082 HD
ATOM     26  C   UNL     1     -15.535   7.691  -0.959  0.00  0.00    -0.064 C 
ATOM     27  C   UNL     1     -16.362   6.429  -0.588  0.00  0.00    +0.066 C 
ENDBRANCH  19  20
ENDBRANCH  18  19
ENDBRANCH  14  15
ENDBRANCH  12  13
TORSDOF 6
ENDMDL
MODEL 3
REMARK VINA RESULT:      -7.6      1.940      2.896
REMARK  Name = C:\Users\Docking\Desktop\test protocol\1iep_ligandH.pdb
REMARK  8 active torsions:
REMARK  status: ('A' for Active; 'I' for Inactive)
REMARK    1  A    between atoms: _5  and  _11
REMARK    2  A    between atoms: _19  and  _21
REMARK    3  A    between atoms: _22  and  _66
REMARK    4  A    between atoms: _27  and  _30
REMARK    5  A    between atoms: _32  and  _33
REMARK    6  A    between atoms: _38  and  _43
REMARK    7  A    between atoms: _43  and  _46
REMARK    8  A    between atoms: _53  and  _55
REMARK                            x       y       z     vdW  Elec       q    Type
REMARK                         _______ _______ _______ _____ _____    ______ ____
ROOT
ATOM     10  C   UNL     1     -15.247  10.140  -0.026  0.00  0.00    +0.038 A 
ATOM     11  C   UNL     1     -15.702   8.798   0.017  0.00  0.00    +0.047 A 
ATOM     12  C   UNL     1     -16.600   8.275  -1.000  0.00  0.00    +0.035 A 
ATOM     32  C   UNL     1     -17.014   9.147  -2.049  0.00  0.00    +0.024 A 
ATOM     33  C   UNL     1     -16.562  10.515  -2.108  0.00  0.00    +0.007 A 
ATOM     34  C   UNL     1     -15.677  11.037  -1.106  0.00  0.00    -0.029 A 
ATOM     35  C   UNL     1     -15.230  12.513  -1.215  0.00  0.00    +0.045 C 
ENDROOT
BRANCH  10   9
ATOM      4  C   UNL     1     -14.392  11.740   4.418  0.00  0.00    +0.077 A 
ATOM      5  C   UNL     1     -15.784  11.702   4.763  0.00  0.00    +0.048 A 
ATOM      6  C   UNL     1     -16.688  11.272   3.766  0.00  0.00    +0.116 A 
ATOM      7  N   UNL     1     -16.224  10.909   2.520  0.00  0.00    -0.223 NA
ATOM      8  C   UNL     1     -14.875  10.958   2.220  0.00  0.00    +0.220 A 
ATOM      9  N   UNL     1     -14.385  10.590   0.977  0.00  0.00    -0.283 N 
ATOM     36  H   UNL     1     -13.383  10.648   0.792  0.00  0.00    +0.155 HD
ATOM     37  N   UNL     1     -13.991  11.367   3.154  0.00  0.00    -0.214 NA
BRANCH   4   3
ATOM      1  C   UNL     1     -11.086  11.856   6.506  0.00  0.00    +0.020 A 
ATOM      2  C   UNL     1     -12.097  11.397   5.581  0.00  0.00    +0.013 A 
ATOM      3  C   UNL     1     -13.314  12.169   5.364  0.00  0.00    +0.019 A 
ATOM     38  C   UNL     1     -13.480  13.410   6.105  0.00  0.00    +0.120 A 
ATOM     39  N   UNL     1     -12.490  13.826   6.990  0.00  0.00    -0.263 NA
ATOM     40  C   UNL     1     -11.315  13.091   7.208  0.00  0.00    +0.111 A 
ENDBRANCH   4   3
ENDBRANCH  10   9
BRANCH  12  13
ATOM     13  N   UNL     1     -17.102   6.923  -1.004  0.00  0.00    -0.281 N 
ATOM     14  C   UNL     1     -18.230   6.431  -0.368  0.00  0.00    +0.248 C 
ATOM     30  O   UNL     1     -18.865   7.039   0.481  0.00  0.00    -0.270 OA
ATOM     31  H   UNL     1     -16.559   6.246  -1.541  0.00  0.00    +0.155 HD
BRANCH  14  15
ATOM     15  C   UNL     1     -18.714   5.060  -0.714  0.00  0.00    +0.037 A 
ATOM     16  C   UNL     1     -19.862   4.862  -1.603  0.00  0.00    +0.013 A 
ATOM     17  C   UNL     1     -20.319   3.529  -1.907  0.00  0.00    +0.005 A 
ATOM     18  C   UNL     1     -19.626   2.383  -1.322  0.00  0.00    -0.033 A 
ATOM     28  C   UNL     1     -18.487   2.609  -0.448  0.00  0.00    +0.005 A 
ATOM     29  C   UNL     1     -18.037   3.914  -0.147  0.00  0.00    +0.013 A 
BRANCH  18  19
ATOM     19  C   UNL     1     -20.058   0.927  -1.575  0.00  0.00    +0.119 C 
BRANCH  19  20
ATOM     20  N   UNL     1     -19.687  -0.086  -0.541  0.00  0.00    -0.302 NA
ATOM     21  C   UNL     1     -19.607  -1.499  -1.125  0.00  0.00    +0.066 C 
ATOM     22  C   UNL     1     -19.196  -2.542  -0.035  0.00  0.00    -0.064 C 
ATOM     23  N   UNL     1     -20.197  -2.489   1.121  0.00  0.00    +0.379 N 
ATOM     24  C   UNL     1     -19.846  -3.509   2.121  0.00  0.00    -0.096 C 
ATOM     25  H   UNL     1     -21.200  -2.748   0.711  0.00  0.00    -0.082 HD
ATOM     26  C   UNL     1     -20.285  -1.086   1.705  0.00  0.00    -0.064 C 
ATOM     27  C   UNL     1     -20.665  -0.054   0.607  0.00  0.00    +0.066 C 
ENDBRANCH  19  20
ENDBRANCH  18  19
ENDBRANCH  14  15
ENDBRANCH  12  13
TORSDOF 6
ENDMDL
MODEL 4
REMARK VINA RESULT:      -7.5     21.077     22.985
REMARK  Name = C:\Users\Docking\Desktop\test protocol\1iep_ligandH.pdb
REMARK  8 active torsions:
REMARK  status: ('A' for Active; 'I' for Inactive)
REMARK    1  A    between atoms: _5  and  _11
REMARK    2  A    between atoms: _19  and  _21
REMARK    3  A    between atoms: _22  and  _66
REMARK    4  A    between atoms: _27  and  _30
REMARK    5  A    between atoms: _32  and  _33
REMARK    6  A    between atoms: _38  and  _43
REMARK    7  A    between atoms: _43  and  _46
REMARK    8  A    between atoms: _53  and  _55
REMARK                            x       y       z     vdW  Elec       q    Type
REMARK                         _______ _______ _______ _____ _____    ______ ____
ROOT
ATOM     10  C   UNL     1      -0.127  -1.004  -8.893  0.00  0.00    +0.038 A 
ATOM     11  C   UNL     1       0.473  -2.285  -8.786  0.00  0.00    +0.047 A 
ATOM     12  C   UNL     1      -0.312  -3.499  -8.940  0.00  0.00    +0.035 A 
ATOM     32  C   UNL     1      -1.707  -3.373  -9.206  0.00  0.00    +0.024 A 
ATOM     33  C   UNL     1      -2.333  -2.079  -9.317  0.00  0.00    +0.007 A 
ATOM     34  C   UNL     1      -1.564  -0.877  -9.163  0.00  0.00    -0.029 A 
ATOM     35  C   UNL     1      -2.290   0.483  -9.286  0.00  0.00    +0.045 C 
ENDROOT
BRANCH  10   9
ATOM      4  C   UNL     1       2.215   2.180  -6.170  0.00  0.00    +0.077 A 
ATOM      5  C   UNL     1       1.783   1.548  -4.956  0.00  0.00    +0.048 A 
ATOM      6  C   UNL     1       0.953   0.411  -5.076  0.00  0.00    +0.116 A 
ATOM      7  N   UNL     1       0.589  -0.052  -6.322  0.00  0.00    -0.223 NA
ATOM      8  C   UNL     1       1.022   0.582  -7.473  0.00  0.00    +0.220 A 
ATOM      9  N   UNL     1       0.675   0.129  -8.736  0.00  0.00    -0.283 N 
ATOM     36  H   UNL     1       1.008   0.628  -9.560  0.00  0.00    +0.155 HD
ATOM     37  N   UNL     1       1.814   1.670  -7.385  0.00  0.00    -0.214 NA
BRANCH   4   3
ATOM      1  C   UNL     1       3.510   5.864  -5.953  0.00  0.00    +0.020 A 
ATOM      2  C   UNL     1       2.617   4.730  -5.902  0.00  0.00    +0.013 A 
ATOM      3  C   UNL     1       3.097   3.389  -6.207  0.00  0.00    +0.019 A 
ATOM     38  C   UNL     1       4.499   3.227  -6.562  0.00  0.00    +0.120 A 
ATOM     39  N   UNL     1       5.336   4.338  -6.604  0.00  0.00    -0.263 NA
ATOM     40  C   UNL     1       4.884   5.634  -6.314  0.00  0.00    +0.111 A 
ENDBRANCH   4   3
ENDBRANCH  10   9
BRANCH  12  13
ATOM     13  N   UNL     1       0.241  -4.827  -8.834  0.00  0.00    -0.281 N 
ATOM     14  C   UNL     1       0.594  -5.512  -7.683  0.00  0.00    +0.248 C 
ATOM     30  O   UNL     1       0.688  -5.003  -6.576  0.00  0.00    -0.270 OA
ATOM     31  H   UNL     1       0.390  -5.321  -9.713  0.00  0.00    +0.155 HD
BRANCH  14  15
ATOM     15  C   UNL     1       0.902  -6.972  -7.778  0.00  0.00    +0.037 A 
ATOM     16  C   UNL     1       1.412  -7.562  -9.018  0.00  0.00    +0.013 A 
ATOM     17  C   UNL     1       1.685  -8.975  -9.088  0.00  0.00    +0.005 A 
ATOM     18  C   UNL     1       1.450  -9.809  -7.912  0.00  0.00    -0.033 A 
ATOM     28  C   UNL     1       0.949  -9.197  -6.692  0.00  0.00    +0.005 A 
ATOM     29  C   UNL     1       0.679  -7.812  -6.620  0.00  0.00    +0.013 A 
BRANCH  18  19
ATOM     19  C   UNL     1       1.693 -11.330  -7.902  0.00  0.00    +0.119 C 
BRANCH  19  20
ATOM     20  N   UNL     1       1.188 -12.110  -9.070  0.00  0.00    -0.302 NA
ATOM     21  C   UNL     1      -0.205 -12.694  -8.813  0.00  0.00    +0.066 C 
ATOM     22  C   UNL     1      -0.727 -13.488 -10.054  0.00  0.00    -0.064 C 
ATOM     23  N   UNL     1       0.268 -14.596 -10.403  0.00  0.00    +0.379 N 
ATOM     24  C   UNL     1      -0.249 -15.382 -11.533  0.00  0.00    -0.096 C 
ATOM     25  H   UNL     1       0.339 -15.276  -9.522  0.00  0.00    -0.082 HD
ATOM     26  C   UNL     1       1.656 -14.025 -10.658  0.00  0.00    -0.064 C 
ATOM     27  C   UNL     1       2.153 -13.213  -9.430  0.00  0.00    +0.066 C 
ENDBRANCH  19  20
ENDBRANCH  18  19
ENDBRANCH  14  15
ENDBRANCH  12  13
TORSDOF 6
ENDMDL
MODEL 5
REMARK VINA RESULT:      -7.5      3.458     14.345
REMARK  Name = C:\Users\Docking\Desktop\test protocol\1iep_ligandH.pdb
REMARK  8 active torsions:
REMARK  status: ('A' for Active; 'I' for Inactive)
REMARK    1  A    between atoms: _5  and  _11
REMARK    2  A    between atoms: _19  and  _21
REMARK    3  A    between atoms: _22  and  _66
REMARK    4  A    between atoms: _27  and  _30
REMARK    5  A    between atoms: _32  and  _33
REMARK    6  A    between atoms: _38  and  _43
REMARK    7  A    between atoms: _43  and  _46
REMARK    8  A    between atoms: _53  and  _55
REMARK                            x       y       z     vdW  Elec       q    Type
REMARK                         _______ _______ _______ _____ _____    ______ ____
ROOT
ATOM     10  C   UNL     1     -15.963  12.205   0.969  0.00  0.00    +0.038 A 
ATOM     11  C   UNL     1     -15.380  12.140   2.260  0.00  0.00    +0.047 A 
ATOM     12  C   UNL     1     -14.520  13.205   2.753  0.00  0.00    +0.035 A 
ATOM     32  C   UNL     1     -14.277  14.324   1.904  0.00  0.00    +0.024 A 
ATOM     33  C   UNL     1     -14.861  14.407   0.588  0.00  0.00    +0.007 A 
ATOM     34  C   UNL     1     -15.708  13.358   0.096  0.00  0.00    -0.029 A 
ATOM     35  C   UNL     1     -16.301  13.496  -1.325  0.00  0.00    +0.045 C 
ENDROOT
BRANCH  10   9
ATOM      4  C   UNL     1     -16.615   7.709  -0.578  0.00  0.00    +0.077 A 
ATOM      5  C   UNL     1     -15.206   7.439  -0.571  0.00  0.00    +0.048 A 
ATOM      6  C   UNL     1     -14.347   8.486  -0.169  0.00  0.00    +0.116 A 
ATOM      7  N   UNL     1     -14.869   9.708   0.196  0.00  0.00    -0.223 NA
ATOM      8  C   UNL     1     -16.233   9.936   0.176  0.00  0.00    +0.220 A 
ATOM      9  N   UNL     1     -16.780  11.155   0.547  0.00  0.00    -0.283 N 
ATOM     36  H   UNL     1     -17.791  11.285   0.511  0.00  0.00    +0.155 HD
ATOM     37  N   UNL     1     -17.074   8.953  -0.205  0.00  0.00    -0.214 NA
BRANCH   4   3
ATOM      1  C   UNL     1     -19.538   5.896  -2.442  0.00  0.00    +0.020 A 
ATOM      2  C   UNL     1     -18.556   6.900  -2.101  0.00  0.00    +0.013 A 
ATOM      3  C   UNL     1     -17.651   6.703  -0.975  0.00  0.00    +0.019 A 
ATOM     38  C   UNL     1     -17.766   5.470  -0.210  0.00  0.00    +0.120 A 
ATOM     39  N   UNL     1     -18.722   4.523  -0.562  0.00  0.00    -0.263 NA
ATOM     40  C   UNL     1     -19.600   4.702  -1.642  0.00  0.00    +0.111 A 
ENDBRANCH   4   3
ENDBRANCH  10   9
BRANCH  12  13
ATOM     13  N   UNL     1     -13.894  13.189   4.052  0.00  0.00    -0.281 N 
ATOM     14  C   UNL     1     -13.192  12.154   4.646  0.00  0.00    +0.248 C 
ATOM     30  O   UNL     1     -13.178  11.003   4.236  0.00  0.00    -0.270 OA
ATOM     31  H   UNL     1     -13.979  14.046   4.599  0.00  0.00    +0.155 HD
BRANCH  14  15
ATOM     15  C   UNL     1     -12.402  12.434   5.884  0.00  0.00    +0.037 A 
ATOM     16  C   UNL     1     -12.697  13.595   6.727  0.00  0.00    +0.013 A 
ATOM     17  C   UNL     1     -11.909  13.852   7.906  0.00  0.00    +0.005 A 
ATOM     18  C   UNL     1     -10.818  12.943   8.250  0.00  0.00    -0.033 A 
ATOM     28  C   UNL     1     -10.550  11.796   7.399  0.00  0.00    +0.005 A 
ATOM     29  C   UNL     1     -11.320  11.542   6.242  0.00  0.00    +0.013 A 
BRANCH  18  19
ATOM     19  C   UNL     1      -9.912  13.151   9.478  0.00  0.00    +0.119 C 
BRANCH  19  20
ATOM     20  N   UNL     1      -9.159  14.439   9.562  0.00  0.00    -0.302 NA
ATOM     21  C   UNL     1      -7.703  14.226   9.985  0.00  0.00    +0.066 C 
ATOM     22  C   UNL     1      -6.925  15.581  10.046  0.00  0.00    -0.064 C 
ATOM     23  N   UNL     1      -7.635  16.531  11.011  0.00  0.00    +0.379 N 
ATOM     24  C   UNL     1      -6.874  17.784  11.115  0.00  0.00    -0.096 C 
ATOM     25  H   UNL     1      -7.637  16.051  12.018  0.00  0.00    -0.082 HD
ATOM     26  C   UNL     1      -9.085  16.746  10.600  0.00  0.00    -0.064 C 
ATOM     27  C   UNL     1      -9.842  15.391  10.514  0.00  0.00    +0.066 C 
ENDBRANCH  19  20
ENDBRANCH  18  19
ENDBRANCH  14  15
ENDBRANCH  12  13
TORSDOF 6
ENDMDL
