MODEL 1
REMARK VINA RESULT:      -7.5      0.000      0.000
REMARK  Name = C:\Users\Docking\Desktop\test protocol\1iep_ligandH.pdb
REMARK  8 active torsions:
REMARK  status: ('A' for Active; 'I' for Inactive)
REMARK    1  A    between atoms: _5  and  _11
REMARK    2  A    between atoms: _19  and  _21
REMARK    3  A    between atoms: _22  and  _66
REMARK    4  A    between atoms: _27  and  _30
REMARK    5  A    between atoms: _32  and  _33
REMARK    6  A    between atoms: _38  and  _43
REMARK    7  A    between atoms: _43  and  _46
REMARK    8  A    between atoms: _53  and  _55
REMARK                            x       y       z     vdW  Elec       q    Type
REMARK                         _______ _______ _______ _____ _____    ______ ____
ROOT
ATOM     10  C   UNL     1      21.898  10.564  12.608  0.00  0.00    +0.038 A 
ATOM     11  C   UNL     1      21.978  10.921  13.978  0.00  0.00    +0.047 A 
ATOM     12  C   UNL     1      21.665  12.270  14.424  0.00  0.00    +0.035 A 
ATOM     32  C   UNL     1      21.271  13.229  13.446  0.00  0.00    +0.024 A 
ATOM     33  C   UNL     1      21.186  12.884  12.049  0.00  0.00    +0.007 A 
ATOM     34  C   UNL     1      21.496  11.556  11.604  0.00  0.00    -0.029 A 
ATOM     35  C   UNL     1      21.394  11.243  10.093  0.00  0.00    +0.045 C 
ENDROOT
BRANCH  10   9
ATOM      4  C   UNL     1      25.049   7.096  11.565  0.00  0.00    +0.077 A 
ATOM      5  C   UNL     1      26.168   7.975  11.751  0.00  0.00    +0.048 A 
ATOM      6  C   UNL     1      25.889   9.314  12.108  0.00  0.00    +0.116 A 
ATOM      7  N   UNL     1      24.585   9.731  12.264  0.00  0.00    -0.223 NA
ATOM      8  C   UNL     1      23.529   8.858  12.076  0.00  0.00    +0.220 A 
ATOM      9  N   UNL     1      22.210   9.254  12.236  0.00  0.00    -0.283 N 
ATOM     36  H   UNL     1      21.460   8.582  12.081  0.00  0.00    +0.155 HD
ATOM     37  N   UNL     1      23.769   7.575  11.734  0.00  0.00    -0.214 NA
BRANCH   4   3
ATOM      1  C   UNL     1      24.361   3.268  11.154  0.00  0.00    +0.020 A 
ATOM      2  C   UNL     1      24.185   4.649  11.541  0.00  0.00    +0.013 A 
ATOM      3  C   UNL     1      25.182   5.653  11.190  0.00  0.00    +0.019 A 
ATOM     38  C   UNL     1      26.353   5.224  10.441  0.00  0.00    +0.120 A 
ATOM     39  N   UNL     1      26.496   3.886  10.084  0.00  0.00    -0.263 NA
ATOM     40  C   UNL     1      25.545   2.911  10.417  0.00  0.00    +0.111 A 
ENDBRANCH   4   3
ENDBRANCH  10   9
BRANCH  12  13
ATOM     13  N   UNL     1      21.735  12.692  15.801  0.00  0.00    -0.281 N 
ATOM     14  C   UNL     1      22.868  12.885  16.575  0.00  0.00    +0.248 C 
ATOM     30  O   UNL     1      23.990  12.515  16.263  0.00  0.00    -0.270 OA
ATOM     31  H   UNL     1      20.842  12.871  16.260  0.00  0.00    +0.155 HD
BRANCH  14  15
ATOM     15  C   UNL     1      22.732  13.576  17.893  0.00  0.00    +0.037 A 
ATOM     16  C   UNL     1      23.566  14.730  18.236  0.00  0.00    +0.013 A 
ATOM     17  C   UNL     1      23.426  15.368  19.522  0.00  0.00    +0.005 A 
ATOM     18  C   UNL     1      22.446  14.852  20.474  0.00  0.00    -0.033 A 
ATOM     28  C   UNL     1      21.627  13.708  20.106  0.00  0.00    +0.005 A 
ATOM     29  C   UNL     1      21.762  13.081  18.847  0.00  0.00    +0.013 A 
BRANCH  18  19
ATOM     19  C   UNL     1      22.243  15.456  21.876  0.00  0.00    +0.119 C 
BRANCH  19  20
ATOM     20  N   UNL     1      22.098  14.503  23.017  0.00  0.00    -0.302 NA
ATOM     21  C   UNL     1      21.054  14.977  24.032  0.00  0.00    +0.066 C 
ATOM     22  C   UNL     1      20.900  13.958  25.207  0.00  0.00    -0.064 C 
ATOM     23  N   UNL     1      22.257  13.752  25.882  0.00  0.00    +0.379 N 
ATOM     24  C   UNL     1      22.104  12.838  27.024  0.00  0.00    -0.096 C 
ATOM     25  H   UNL     1      22.589  14.738  26.280  0.00  0.00    -0.082 HD
ATOM     26  C   UNL     1      23.302  13.283  24.879  0.00  0.00    -0.064 C 
ATOM     27  C   UNL     1      23.426  14.289  23.700  0.00  0.00    +0.066 C 
ENDBRANCH  19  20
ENDBRANCH  18  19
ENDBRANCH  14  15
ENDBRANCH  12  13
TORSDOF 6
ENDMDL
MODEL 2
REMARK VINA RESULT:      -7.3      2.492     12.271
REMARK  Name = C:\Users\Docking\Desktop\test protocol\1iep_ligandH.pdb
REMARK  8 active torsions:
REMARK  status: ('A' for Active; 'I' for Inactive)
REMARK    1  A    between atoms: _5  and  _11
REMARK    2  A    between atoms: _19  and  _21
REMARK    3  A    between atoms: _22  and  _66
REMARK    4  A    between atoms: _27  and  _30
REMARK    5  A    between atoms: _32  and  _33
REMARK    6  A    between atoms: _38  and  _43
REMARK    7  A    between atoms: _43  and  _46
REMARK    8  A    between atoms: _53  and  _55
REMARK                            x       y       z     vdW  Elec       q    Type
REMARK                         _______ _______ _______ _____ _____    ______ ____
ROOT
ATOM     10  C   UNL     1      22.520  12.441  14.593  0.00  0.00    +0.038 A 
ATOM     11  C   UNL     1      23.037  11.144  14.345  0.00  0.00    +0.047 A 
ATOM     12  C   UNL     1      23.595  10.791  13.049  0.00  0.00    +0.035 A 
ATOM     32  C   UNL     1      23.613  11.786  12.028  0.00  0.00    +0.024 A 
ATOM     33  C   UNL     1      23.090  13.109  12.262  0.00  0.00    +0.007 A 
ATOM     34  C   UNL     1      22.536  13.462  13.538  0.00  0.00    -0.029 A 
ATOM     35  C   UNL     1      21.984  14.893  13.731  0.00  0.00    +0.045 C 
ENDROOT
BRANCH  10   9
ATOM      4  C   UNL     1      23.012  13.783  19.175  0.00  0.00    +0.077 A 
ATOM      5  C   UNL     1      24.436  13.902  19.049  0.00  0.00    +0.048 A 
ATOM      6  C   UNL     1      25.003  13.602  17.790  0.00  0.00    +0.116 A 
ATOM      7  N   UNL     1      24.197  13.213  16.742  0.00  0.00    -0.223 NA
ATOM      8  C   UNL     1      22.827  13.107  16.898  0.00  0.00    +0.220 A 
ATOM      9  N   UNL     1      21.996  12.725  15.856  0.00  0.00    -0.283 N 
ATOM     36  H   UNL     1      20.992  12.651  16.014  0.00  0.00    +0.155 HD
ATOM     37  N   UNL     1      22.261  13.386  18.091  0.00  0.00    -0.214 NA
BRANCH   4   3
ATOM      1  C   UNL     1      20.140  14.465  21.741  0.00  0.00    +0.020 A 
ATOM      2  C   UNL     1      20.813  14.189  20.493  0.00  0.00    +0.013 A 
ATOM      3  C   UNL     1      22.264  14.068  20.440  0.00  0.00    +0.019 A 
ATOM     38  C   UNL     1      23.011  14.233  21.678  0.00  0.00    +0.120 A 
ATOM     39  N   UNL     1      22.336  14.500  22.865  0.00  0.00    -0.263 NA
ATOM     40  C   UNL     1      20.939  14.620  22.928  0.00  0.00    +0.111 A 
ENDBRANCH   4   3
ENDBRANCH  10   9
BRANCH  12  13
ATOM     13  N   UNL     1      24.127   9.488  12.736  0.00  0.00    -0.281 N 
ATOM     14  C   UNL     1      23.591   8.529  11.893  0.00  0.00    +0.248 C 
ATOM     30  O   UNL     1      22.455   8.562  11.442  0.00  0.00    -0.270 OA
ATOM     31  H   UNL     1      25.007   9.243  13.191  0.00  0.00    +0.155 HD
BRANCH  14  15
ATOM     15  C   UNL     1      24.432   7.356  11.506  0.00  0.00    +0.037 A 
ATOM     16  C   UNL     1      25.780   7.534  10.960  0.00  0.00    +0.013 A 
ATOM     17  C   UNL     1      26.564   6.386  10.579  0.00  0.00    +0.005 A 
ATOM     18  C   UNL     1      26.001   5.048  10.743  0.00  0.00    -0.033 A 
ATOM     28  C   UNL     1      24.663   4.900  11.292  0.00  0.00    +0.005 A 
ATOM     29  C   UNL     1      23.892   6.023  11.666  0.00  0.00    +0.013 A 
BRANCH  18  19
ATOM     19  C   UNL     1      26.758   3.768  10.343  0.00  0.00    +0.119 C 
BRANCH  19  20
ATOM     20  N   UNL     1      28.097   3.542  10.965  0.00  0.00    -0.302 NA
ATOM     21  C   UNL     1      28.674   2.171  10.604  0.00  0.00    +0.066 C 
ATOM     22  C   UNL     1      30.085   1.961  11.244  0.00  0.00    -0.064 C 
ATOM     23  N   UNL     1      29.982   2.122  12.762  0.00  0.00    +0.379 N 
ATOM     24  C   UNL     1      31.295   1.867  13.373  0.00  0.00    -0.096 C 
ATOM     25  H   UNL     1      29.277   1.343  13.137  0.00  0.00    -0.082 HD
ATOM     26  C   UNL     1      29.406   3.482  13.130  0.00  0.00    -0.064 C 
ATOM     27  C   UNL     1      28.017   3.692  12.465  0.00  0.00    +0.066 C 
ENDBRANCH  19  20
ENDBRANCH  18  19
ENDBRANCH  14  15
ENDBRANCH  12  13
TORSDOF 6
ENDMDL
MODEL 3
REMARK VINA RESULT:      -7.1      2.018     12.845
REMARK  Name = C:\Users\Docking\Desktop\test protocol\1iep_ligandH.pdb
REMARK  8 active torsions:
REMARK  status: ('A' for Active; 'I' for Inactive)
REMARK    1  A    between atoms: _5  and  _11
REMARK    2  A    between atoms: _19  and  _21
REMARK    3  A    between atoms: _22  and  _66
REMARK    4  A    between atoms: _27  and  _30
REMARK    5  A    between atoms: _32  and  _33
REMARK    6  A    between atoms: _38  and  _43
REMARK    7  A    between atoms: _43  and  _46
REMARK    8  A    between atoms: _53  and  _55
REMARK                            x       y       z     vdW  Elec       q    Type
REMARK                         _______ _______ _______ _____ _____    ______ ____
ROOT
ATOM     10  C   UNL     1      22.067  12.424  14.186  0.00  0.00    +0.038 A 
ATOM     11  C   UNL     1      22.535  11.149  13.775  0.00  0.00    +0.047 A 
ATOM     12  C   UNL     1      22.808  10.863  12.375  0.00  0.00    +0.035 A 
ATOM     32  C   UNL     1      22.595  11.900  11.420  0.00  0.00    +0.024 A 
ATOM     33  C   UNL     1      22.118  13.200  11.820  0.00  0.00    +0.007 A 
ATOM     34  C   UNL     1      21.845  13.487  13.199  0.00  0.00    -0.029 A 
ATOM     35  C   UNL     1      21.329  14.898  13.570  0.00  0.00    +0.045 C 
ENDROOT
BRANCH  10   9
ATOM      4  C   UNL     1      23.495  13.650  18.601  0.00  0.00    +0.077 A 
ATOM      5  C   UNL     1      24.850  13.843  18.173  0.00  0.00    +0.048 A 
ATOM      6  C   UNL     1      25.140  13.609  16.810  0.00  0.00    +0.116 A 
ATOM      7  N   UNL     1      24.140  13.213  15.948  0.00  0.00    -0.223 NA
ATOM      8  C   UNL     1      22.844  13.034  16.394  0.00  0.00    +0.220 A 
ATOM      9  N   UNL     1      21.821  12.643  15.543  0.00  0.00    -0.283 N 
ATOM     36  H   UNL     1      20.879  12.515  15.912  0.00  0.00    +0.155 HD
ATOM     37  N   UNL     1      22.542  13.249  17.692  0.00  0.00    -0.214 NA
BRANCH   4   3
ATOM      1  C   UNL     1      21.282  14.479  21.719  0.00  0.00    +0.020 A 
ATOM      2  C   UNL     1      21.679  14.291  20.343  0.00  0.00    +0.013 A 
ATOM      3  C   UNL     1      23.031  13.860  20.009  0.00  0.00    +0.019 A 
ATOM     38  C   UNL     1      23.964  13.624  21.101  0.00  0.00    +0.120 A 
ATOM     39  N   UNL     1      23.554  13.815  22.417  0.00  0.00    -0.263 NA
ATOM     40  C   UNL     1      22.256  14.231  22.750  0.00  0.00    +0.111 A 
ENDBRANCH   4   3
ENDBRANCH  10   9
BRANCH  12  13
ATOM     13  N   UNL     1      23.277   9.586  11.898  0.00  0.00    -0.281 N 
ATOM     14  C   UNL     1      24.502   8.986  12.136  0.00  0.00    +0.248 C 
ATOM     30  O   UNL     1      25.468   9.555  12.624  0.00  0.00    -0.270 OA
ATOM     31  H   UNL     1      22.626   9.061  11.313  0.00  0.00    +0.155 HD
BRANCH  14  15
ATOM     15  C   UNL     1      24.687   7.550  11.766  0.00  0.00    +0.037 A 
ATOM     16  C   UNL     1      23.545   6.704  11.408  0.00  0.00    +0.013 A 
ATOM     17  C   UNL     1      23.749   5.318  11.072  0.00  0.00    +0.005 A 
ATOM     18  C   UNL     1      25.102   4.768  11.091  0.00  0.00    -0.033 A 
ATOM     28  C   UNL     1      26.218   5.630  11.445  0.00  0.00    +0.005 A 
ATOM     29  C   UNL     1      26.021   6.989  11.777  0.00  0.00    +0.013 A 
BRANCH  18  19
ATOM     19  C   UNL     1      25.411   3.294  10.767  0.00  0.00    +0.119 C 
BRANCH  19  20
ATOM     20  N   UNL     1      26.118   3.010   9.483  0.00  0.00    -0.302 NA
ATOM     21  C   UNL     1      25.147   2.909   8.303  0.00  0.00    +0.066 C 
ATOM     22  C   UNL     1      25.906   2.634   6.963  0.00  0.00    -0.064 C 
ATOM     23  N   UNL     1      26.727   1.351   7.100  0.00  0.00    +0.379 N 
ATOM     24  C   UNL     1      27.395   1.058   5.824  0.00  0.00    -0.096 C 
ATOM     25  H   UNL     1      26.017   0.517   7.310  0.00  0.00    -0.082 HD
ATOM     26  C   UNL     1      27.693   1.441   8.273  0.00  0.00    -0.064 C 
ATOM     27  C   UNL     1      26.932   1.744   9.594  0.00  0.00    +0.066 C 
ENDBRANCH  19  20
ENDBRANCH  18  19
ENDBRANCH  14  15
ENDBRANCH  12  13
TORSDOF 6
ENDMDL
MODEL 4
REMARK VINA RESULT:      -7.1     18.684     23.713
REMARK  Name = C:\Users\Docking\Desktop\test protocol\1iep_ligandH.pdb
REMARK  8 active torsions:
REMARK  status: ('A' for Active; 'I' for Inactive)
REMARK    1  A    between atoms: _5  and  _11
REMARK    2  A    between atoms: _19  and  _21
REMARK    3  A    between atoms: _22  and  _66
REMARK    4  A    between atoms: _27  and  _30
REMARK    5  A    between atoms: _32  and  _33
REMARK    6  A    between atoms: _38  and  _43
REMARK    7  A    between atoms: _43  and  _46
REMARK    8  A    between atoms: _53  and  _55
REMARK                            x       y       z     vdW  Elec       q    Type
REMARK                         _______ _______ _______ _____ _____    ______ ____
ROOT
ATOM     10  C   UNL     1      23.628  -4.389  33.258  0.00  0.00    +0.038 A 
ATOM     11  C   UNL     1      23.819  -4.277  31.857  0.00  0.00    +0.047 A 
ATOM     12  C   UNL     1      25.092  -3.845  31.303  0.00  0.00    +0.035 A 
ATOM     32  C   UNL     1      26.152  -3.538  32.206  0.00  0.00    +0.024 A 
ATOM     33  C   UNL     1      25.976  -3.645  33.633  0.00  0.00    +0.007 A 
ATOM     34  C   UNL     1      24.721  -4.068  34.185  0.00  0.00    -0.029 A 
ATOM     35  C   UNL     1      24.586  -4.159  35.723  0.00  0.00    +0.045 C 
ENDROOT
BRANCH  10   9
ATOM      4  C   UNL     1      20.528  -7.818  34.552  0.00  0.00    +0.077 A 
ATOM      5  C   UNL     1      21.455  -8.863  34.223  0.00  0.00    +0.048 A 
ATOM      6  C   UNL     1      22.717  -8.475  33.718  0.00  0.00    +0.116 A 
ATOM      7  N   UNL     1      23.018  -7.140  33.557  0.00  0.00    -0.223 NA
ATOM      8  C   UNL     1      22.100  -6.158  33.882  0.00  0.00    +0.220 A 
ATOM      9  N   UNL     1      22.385  -4.809  33.736  0.00  0.00    -0.283 N 
ATOM     36  H   UNL     1      21.678  -4.116  33.980  0.00  0.00    +0.155 HD
ATOM     37  N   UNL     1      20.888  -6.502  34.365  0.00  0.00    -0.214 NA
BRANCH   4   3
ATOM      1  C   UNL     1      16.880  -7.296  35.862  0.00  0.00    +0.020 A 
ATOM      2  C   UNL     1      18.191  -7.001  35.332  0.00  0.00    +0.013 A 
ATOM      3  C   UNL     1      19.158  -8.067  35.099  0.00  0.00    +0.019 A 
ATOM     38  C   UNL     1      18.762  -9.432  35.415  0.00  0.00    +0.120 A 
ATOM     39  N   UNL     1      17.493  -9.685  35.926  0.00  0.00    -0.263 NA
ATOM     40  C   UNL     1      16.555  -8.667  36.156  0.00  0.00    +0.111 A 
ENDBRANCH   4   3
ENDBRANCH  10   9
BRANCH  12  13
ATOM     13  N   UNL     1      25.342  -3.705  29.890  0.00  0.00    -0.281 N 
ATOM     14  C   UNL     1      25.312  -4.692  28.918  0.00  0.00    +0.248 C 
ATOM     30  O   UNL     1      25.276  -5.891  29.151  0.00  0.00    -0.270 OA
ATOM     31  H   UNL     1      25.568  -2.764  29.567  0.00  0.00    +0.155 HD
BRANCH  14  15
ATOM     15  C   UNL     1      25.342  -4.289  27.479  0.00  0.00    +0.037 A 
ATOM     16  C   UNL     1      24.802  -5.162  26.434  0.00  0.00    +0.013 A 
ATOM     17  C   UNL     1      24.859  -4.757  25.052  0.00  0.00    +0.005 A 
ATOM     18  C   UNL     1      25.458  -3.470  24.707  0.00  0.00    -0.033 A 
ATOM     28  C   UNL     1      25.982  -2.621  25.765  0.00  0.00    +0.005 A 
ATOM     29  C   UNL     1      25.929  -3.015  27.120  0.00  0.00    +0.013 A 
BRANCH  18  19
ATOM     19  C   UNL     1      25.580  -2.966  23.257  0.00  0.00    +0.119 C 
BRANCH  19  20
ATOM     20  N   UNL     1      25.970  -1.537  23.060  0.00  0.00    -0.302 NA
ATOM     21  C   UNL     1      24.912  -0.756  22.276  0.00  0.00    +0.066 C 
ATOM     22  C   UNL     1      25.325   0.741  22.099  0.00  0.00    -0.064 C 
ATOM     23  N   UNL     1      26.682   0.813  21.396  0.00  0.00    +0.379 N 
ATOM     24  C   UNL     1      27.046   2.220  21.176  0.00  0.00    -0.096 C 
ATOM     25  H   UNL     1      26.571   0.332  20.397  0.00  0.00    -0.082 HD
ATOM     26  C   UNL     1      27.739   0.037  22.168  0.00  0.00    -0.064 C 
ATOM     27  C   UNL     1      27.305  -1.443  22.364  0.00  0.00    +0.066 C 
ENDBRANCH  19  20
ENDBRANCH  18  19
ENDBRANCH  14  15
ENDBRANCH  12  13
TORSDOF 6
ENDMDL
MODEL 5
REMARK VINA RESULT:      -7.0     27.464     31.288
REMARK  Name = C:\Users\Docking\Desktop\test protocol\1iep_ligandH.pdb
REMARK  8 active torsions:
REMARK  status: ('A' for Active; 'I' for Inactive)
REMARK    1  A    between atoms: _5  and  _11
REMARK    2  A    between atoms: _19  and  _21
REMARK    3  A    between atoms: _22  and  _66
REMARK    4  A    between atoms: _27  and  _30
REMARK    5  A    between atoms: _32  and  _33
REMARK    6  A    between atoms: _38  and  _43
REMARK    7  A    between atoms: _43  and  _46
REMARK    8  A    between atoms: _53  and  _55
REMARK                            x       y       z     vdW  Elec       q    Type
REMARK                         _______ _______ _______ _____ _____    ______ ____
ROOT
ATOM     10  C   UNL     1      -6.823   4.067  24.964  0.00  0.00    +0.038 A 
ATOM     11  C   UNL     1      -6.058   3.969  23.774  0.00  0.00    +0.047 A 
ATOM     12  C   UNL     1      -6.671   3.572  22.516  0.00  0.00    +0.035 A 
ATOM     32  C   UNL     1      -8.067   3.285  22.506  0.00  0.00    +0.024 A 
ATOM     33  C   UNL     1      -8.860   3.378  23.707  0.00  0.00    +0.007 A 
ATOM     34  C   UNL     1      -8.260   3.767  24.951  0.00  0.00    -0.029 A 
ATOM     35  C   UNL     1      -9.157   3.844  26.209  0.00  0.00    +0.045 C 
ENDROOT
BRANCH  10   9
ATOM      4  C   UNL     1      -3.171   3.833  28.070  0.00  0.00    +0.077 A 
ATOM      5  C   UNL     1      -2.494   2.838  27.289  0.00  0.00    +0.048 A 
ATOM      6  C   UNL     1      -3.122   2.409  26.099  0.00  0.00    +0.116 A 
ATOM      7  N   UNL     1      -4.337   2.941  25.727  0.00  0.00    -0.223 NA
ATOM      8  C   UNL     1      -4.965   3.898  26.503  0.00  0.00    +0.220 A 
ATOM      9  N   UNL     1      -6.183   4.453  26.144  0.00  0.00    -0.283 N 
ATOM     36  H   UNL     1      -6.617   5.151  26.748  0.00  0.00    +0.155 HD
ATOM     37  N   UNL     1      -4.386   4.324  27.645  0.00  0.00    -0.214 NA
BRANCH   4   3
ATOM      1  C   UNL     1      -0.865   5.574  30.706  0.00  0.00    +0.020 A 
ATOM      2  C   UNL     1      -1.338   5.052  29.445  0.00  0.00    +0.013 A 
ATOM      3  C   UNL     1      -2.633   4.391  29.351  0.00  0.00    +0.019 A 
ATOM     38  C   UNL     1      -3.432   4.273  30.562  0.00  0.00    +0.120 A 
ATOM     39  N   UNL     1      -2.950   4.784  31.763  0.00  0.00    -0.263 NA
ATOM     40  C   UNL     1      -1.705   5.421  31.866  0.00  0.00    +0.111 A 
ENDBRANCH   4   3
ENDBRANCH  10   9
BRANCH  12  13
ATOM     13  N   UNL     1      -5.944   3.448  21.277  0.00  0.00    -0.281 N 
ATOM     14  C   UNL     1      -5.677   4.435  20.343  0.00  0.00    +0.248 C 
ATOM     30  O   UNL     1      -6.210   5.535  20.329  0.00  0.00    -0.270 OA
ATOM     31  H   UNL     1      -5.582   2.519  21.063  0.00  0.00    +0.155 HD
BRANCH  14  15
ATOM     15  C   UNL     1      -4.685   4.156  19.261  0.00  0.00    +0.037 A 
ATOM     16  C   UNL     1      -4.369   2.785  18.855  0.00  0.00    +0.013 A 
ATOM     17  C   UNL     1      -3.395   2.543  17.820  0.00  0.00    +0.005 A 
ATOM     18  C   UNL     1      -2.733   3.677  17.181  0.00  0.00    -0.033 A 
ATOM     28  C   UNL     1      -3.070   5.028  17.599  0.00  0.00    +0.005 A 
ATOM     29  C   UNL     1      -4.022   5.269  18.614  0.00  0.00    +0.013 A 
BRANCH  18  19
ATOM     19  C   UNL     1      -1.666   3.512  16.082  0.00  0.00    +0.119 C 
BRANCH  19  20
ATOM     20  N   UNL     1      -1.969   2.559  14.973  0.00  0.00    -0.302 NA
ATOM     21  C   UNL     1      -0.748   1.719  14.588  0.00  0.00    +0.066 C 
ATOM     22  C   UNL     1      -1.088   0.712  13.442  0.00  0.00    -0.064 C 
ATOM     23  N   UNL     1      -1.620   1.481  12.231  0.00  0.00    +0.379 N 
ATOM     24  C   UNL     1      -1.886   0.543  11.131  0.00  0.00    -0.096 C 
ATOM     25  H   UNL     1      -0.817   2.178  11.895  0.00  0.00    -0.082 HD
ATOM     26  C   UNL     1      -2.832   2.321  12.606  0.00  0.00    -0.064 C 
ATOM     27  C   UNL     1      -2.491   3.298  13.766  0.00  0.00    +0.066 C 
ENDBRANCH  19  20
ENDBRANCH  18  19
ENDBRANCH  14  15
ENDBRANCH  12  13
TORSDOF 6
ENDMDL
