MODEL 1
REMARK VINA RESULT:      -8.0      0.000      0.000
REMARK  Name = C:\Users\Docking\Desktop\test protocol\1iep_ligandH.pdb
REMARK  8 active torsions:
REMARK  status: ('A' for Active; 'I' for Inactive)
REMARK    1  A    between atoms: _5  and  _11
REMARK    2  A    between atoms: _19  and  _21
REMARK    3  A    between atoms: _22  and  _66
REMARK    4  A    between atoms: _27  and  _30
REMARK    5  A    between atoms: _32  and  _33
REMARK    6  A    between atoms: _38  and  _43
REMARK    7  A    between atoms: _43  and  _46
REMARK    8  A    between atoms: _53  and  _55
REMARK                            x       y       z     vdW  Elec       q    Type
REMARK                         _______ _______ _______ _____ _____    ______ ____
ROOT
ATOM     10  C   UNL     1     -13.707   9.060 -12.851  0.00  0.00    +0.038 A 
ATOM     11  C   UNL     1     -13.057   8.532 -13.996  0.00  0.00    +0.047 A 
ATOM     12  C   UNL     1     -13.293   9.090 -15.319  0.00  0.00    +0.035 A 
ATOM     32  C   UNL     1     -14.195  10.187 -15.438  0.00  0.00    +0.024 A 
ATOM     33  C   UNL     1     -14.864  10.735 -14.285  0.00  0.00    +0.007 A 
ATOM     34  C   UNL     1     -14.638  10.188 -12.978  0.00  0.00    -0.029 A 
ATOM     35  C   UNL     1     -15.388  10.812 -11.778  0.00  0.00    +0.045 C 
ENDROOT
BRANCH  10   9
ATOM      4  C   UNL     1     -11.442   8.983  -8.620  0.00  0.00    +0.077 A 
ATOM      5  C   UNL     1     -10.700  10.171  -8.929  0.00  0.00    +0.048 A 
ATOM      6  C   UNL     1     -10.925  10.767 -10.189  0.00  0.00    +0.116 A 
ATOM      7  N   UNL     1     -11.828  10.209 -11.068  0.00  0.00    -0.223 NA
ATOM      8  C   UNL     1     -12.525   9.061 -10.740  0.00  0.00    +0.220 A 
ATOM      9  N   UNL     1     -13.444   8.486 -11.605  0.00  0.00    -0.283 N 
ATOM     36  H   UNL     1     -13.933   7.635 -11.329  0.00  0.00    +0.155 HD
ATOM     37  N   UNL     1     -12.327   8.471  -9.542  0.00  0.00    -0.214 NA
BRANCH   4   3
ATOM      1  C   UNL     1     -11.589   8.038  -4.827  0.00  0.00    +0.020 A 
ATOM      2  C   UNL     1     -11.731   8.799  -6.047  0.00  0.00    +0.013 A 
ATOM      3  C   UNL     1     -11.316   8.239  -7.327  0.00  0.00    +0.019 A 
ATOM     38  C   UNL     1     -10.758   6.895  -7.338  0.00  0.00    +0.120 A 
ATOM     39  N   UNL     1     -10.632   6.186  -6.147  0.00  0.00    -0.263 NA
ATOM     40  C   UNL     1     -11.026   6.716  -4.909  0.00  0.00    +0.111 A 
ENDBRANCH   4   3
ENDBRANCH  10   9
BRANCH  12  13
ATOM     13  N   UNL     1     -12.668   8.590 -16.518  0.00  0.00    -0.281 N 
ATOM     14  C   UNL     1     -13.029   7.483 -17.269  0.00  0.00    +0.248 C 
ATOM     30  O   UNL     1     -13.818   6.625 -16.900  0.00  0.00    -0.270 OA
ATOM     31  H   UNL     1     -11.863   9.117 -16.856  0.00  0.00    +0.155 HD
BRANCH  14  15
ATOM     15  C   UNL     1     -12.414   7.292 -18.617  0.00  0.00    +0.037 A 
ATOM     16  C   UNL     1     -13.039   7.843 -19.822  0.00  0.00    +0.013 A 
ATOM     17  C   UNL     1     -12.433   7.630 -21.113  0.00  0.00    +0.005 A 
ATOM     18  C   UNL     1     -11.193   6.864 -21.204  0.00  0.00    -0.033 A 
ATOM     28  C   UNL     1     -10.591   6.333 -19.992  0.00  0.00    +0.005 A 
ATOM     29  C   UNL     1     -11.183   6.539 -18.726  0.00  0.00    +0.013 A 
BRANCH  18  19
ATOM     19  C   UNL     1     -10.488   6.570 -22.542  0.00  0.00    +0.119 C 
BRANCH  19  20
ATOM     20  N   UNL     1      -9.356   5.596 -22.519  0.00  0.00    -0.302 NA
ATOM     21  C   UNL     1      -8.022   6.258 -22.874  0.00  0.00    +0.066 C 
ATOM     22  C   UNL     1      -6.845   5.230 -22.823  0.00  0.00    -0.064 C 
ATOM     23  N   UNL     1      -7.144   4.070 -23.773  0.00  0.00    +0.379 N 
ATOM     24  C   UNL     1      -6.013   3.130 -23.771  0.00  0.00    -0.096 C 
ATOM     25  H   UNL     1      -7.233   4.490 -24.802  0.00  0.00    -0.082 HD
ATOM     26  C   UNL     1      -8.470   3.407 -23.429  0.00  0.00    -0.064 C 
ATOM     27  C   UNL     1      -9.628   4.444 -23.454  0.00  0.00    +0.066 C 
ENDBRANCH  19  20
ENDBRANCH  18  19
ENDBRANCH  14  15
ENDBRANCH  12  13
TORSDOF 6
ENDMDL
MODEL 2
REMARK VINA RESULT:      -7.8     12.871     19.897
REMARK  Name = C:\Users\Docking\Desktop\test protocol\1iep_ligandH.pdb
REMARK  8 active torsions:
REMARK  status: ('A' for Active; 'I' for Inactive)
REMARK    1  A    between atoms: _5  and  _11
REMARK    2  A    between atoms: _19  and  _21
REMARK    3  A    between atoms: _22  and  _66
REMARK    4  A    between atoms: _27  and  _30
REMARK    5  A    between atoms: _32  and  _33
REMARK    6  A    between atoms: _38  and  _43
REMARK    7  A    between atoms: _43  and  _46
REMARK    8  A    between atoms: _53  and  _55
REMARK                            x       y       z     vdW  Elec       q    Type
REMARK                         _______ _______ _______ _____ _____    ______ ____
ROOT
ATOM     10  C   UNL     1     -18.625  -7.011 -25.081  0.00  0.00    +0.038 A 
ATOM     11  C   UNL     1     -18.704  -5.699 -24.549  0.00  0.00    +0.047 A 
ATOM     12  C   UNL     1     -19.960  -5.167 -24.042  0.00  0.00    +0.035 A 
ATOM     32  C   UNL     1     -21.115  -6.001 -24.089  0.00  0.00    +0.024 A 
ATOM     33  C   UNL     1     -21.052  -7.338 -24.627  0.00  0.00    +0.007 A 
ATOM     34  C   UNL     1     -19.817  -7.866 -25.131  0.00  0.00    -0.029 A 
ATOM     35  C   UNL     1     -19.809  -9.304 -25.702  0.00  0.00    +0.045 C 
ENDROOT
BRANCH  10   9
ATOM      4  C   UNL     1     -15.062  -7.019 -28.297  0.00  0.00    +0.077 A 
ATOM      5  C   UNL     1     -15.722  -6.045 -29.118  0.00  0.00    +0.048 A 
ATOM      6  C   UNL     1     -16.979  -5.573 -28.681  0.00  0.00    +0.116 A 
ATOM      7  N   UNL     1     -17.527  -6.046 -27.508  0.00  0.00    -0.223 NA
ATOM      8  C   UNL     1     -16.865  -6.987 -26.741  0.00  0.00    +0.220 A 
ATOM      9  N   UNL     1     -17.393  -7.471 -25.554  0.00  0.00    -0.283 N 
ATOM     36  H   UNL     1     -16.877  -8.170 -25.020  0.00  0.00    +0.155 HD
ATOM     37  N   UNL     1     -15.663  -7.455 -27.137  0.00  0.00    -0.214 NA
BRANCH   4   3
ATOM      1  C   UNL     1     -11.877  -9.290 -28.265  0.00  0.00    +0.020 A 
ATOM      2  C   UNL     1     -13.171  -8.756 -27.910  0.00  0.00    +0.013 A 
ATOM      3  C   UNL     1     -13.726  -7.612 -28.623  0.00  0.00    +0.019 A 
ATOM     38  C   UNL     1     -12.940  -7.028 -29.700  0.00  0.00    +0.120 A 
ATOM     39  N   UNL     1     -11.696  -7.563 -30.018  0.00  0.00    -0.263 NA
ATOM     40  C   UNL     1     -11.151  -8.662 -29.338  0.00  0.00    +0.111 A 
ENDBRANCH   4   3
ENDBRANCH  10   9
BRANCH  12  13
ATOM     13  N   UNL     1     -20.103  -3.840 -23.499  0.00  0.00    -0.281 N 
ATOM     14  C   UNL     1     -20.245  -2.647 -24.189  0.00  0.00    +0.248 C 
ATOM     30  O   UNL     1     -20.055  -2.517 -25.390  0.00  0.00    -0.270 OA
ATOM     31  H   UNL     1     -20.099  -3.770 -22.481  0.00  0.00    +0.155 HD
BRANCH  14  15
ATOM     15  C   UNL     1     -20.641  -1.419 -23.436  0.00  0.00    +0.037 A 
ATOM     16  C   UNL     1     -21.673  -0.513 -23.947  0.00  0.00    +0.013 A 
ATOM     17  C   UNL     1     -22.024   0.674 -23.209  0.00  0.00    +0.005 A 
ATOM     18  C   UNL     1     -21.343   0.961 -21.949  0.00  0.00    -0.033 A 
ATOM     28  C   UNL     1     -20.327   0.043 -21.462  0.00  0.00    +0.005 A 
ATOM     29  C   UNL     1     -19.979  -1.121 -22.184  0.00  0.00    +0.013 A 
BRANCH  18  19
ATOM     19  C   UNL     1     -21.639   2.215 -21.105  0.00  0.00    +0.119 C 
BRANCH  19  20
ATOM     20  N   UNL     1     -20.479   2.879 -20.438  0.00  0.00    -0.302 NA
ATOM     21  C   UNL     1     -20.696   3.034 -18.930  0.00  0.00    +0.066 C 
ATOM     22  C   UNL     1     -19.464   3.711 -18.244  0.00  0.00    -0.064 C 
ATOM     23  N   UNL     1     -19.203   5.069 -18.896  0.00  0.00    +0.379 N 
ATOM     24  C   UNL     1     -18.082   5.733 -18.216  0.00  0.00    -0.096 C 
ATOM     25  H   UNL     1     -20.112   5.697 -18.744  0.00  0.00    -0.082 HD
ATOM     26  C   UNL     1     -18.989   4.925 -20.396  0.00  0.00    -0.064 C 
ATOM     27  C   UNL     1     -20.207   4.225 -21.063  0.00  0.00    +0.066 C 
ENDBRANCH  19  20
ENDBRANCH  18  19
ENDBRANCH  14  15
ENDBRANCH  12  13
TORSDOF 6
ENDMDL
MODEL 3
REMARK VINA RESULT:      -7.5     14.150     18.910
REMARK  Name = C:\Users\Docking\Desktop\test protocol\1iep_ligandH.pdb
REMARK  8 active torsions:
REMARK  status: ('A' for Active; 'I' for Inactive)
REMARK    1  A    between atoms: _5  and  _11
REMARK    2  A    between atoms: _19  and  _21
REMARK    3  A    between atoms: _22  and  _66
REMARK    4  A    between atoms: _27  and  _30
REMARK    5  A    between atoms: _32  and  _33
REMARK    6  A    between atoms: _38  and  _43
REMARK    7  A    between atoms: _43  and  _46
REMARK    8  A    between atoms: _53  and  _55
REMARK                            x       y       z     vdW  Elec       q    Type
REMARK                         _______ _______ _______ _____ _____    ______ ____
ROOT
ATOM     10  C   UNL     1       4.880  -2.551 -22.334  0.00  0.00    +0.038 A 
ATOM     11  C   UNL     1       3.705  -1.784 -22.546  0.00  0.00    +0.047 A 
ATOM     12  C   UNL     1       2.643  -2.260 -23.419  0.00  0.00    +0.035 A 
ATOM     32  C   UNL     1       2.810  -3.523 -24.059  0.00  0.00    +0.024 A 
ATOM     33  C   UNL     1       3.997  -4.314 -23.856  0.00  0.00    +0.007 A 
ATOM     34  C   UNL     1       5.049  -3.849 -22.998  0.00  0.00    -0.029 A 
ATOM     35  C   UNL     1       6.304  -4.737 -22.823  0.00  0.00    +0.045 C 
ENDROOT
BRANCH  10   9
ATOM      4  C   UNL     1       6.311  -0.637 -18.172  0.00  0.00    +0.077 A 
ATOM      5  C   UNL     1       4.973  -0.617 -17.653  0.00  0.00    +0.048 A 
ATOM      6  C   UNL     1       3.945  -1.101 -18.493  0.00  0.00    +0.116 A 
ATOM      7  N   UNL     1       4.243  -1.569 -19.754  0.00  0.00    -0.223 NA
ATOM      8  C   UNL     1       5.544  -1.573 -20.224  0.00  0.00    +0.220 A 
ATOM      9  N   UNL     1       5.868  -2.046 -21.486  0.00  0.00    -0.283 N 
ATOM     36  H   UNL     1       6.838  -2.025 -21.798  0.00  0.00    +0.155 HD
ATOM     37  N   UNL     1       6.543  -1.115 -19.442  0.00  0.00    -0.214 NA
BRANCH   4   3
ATOM      1  C   UNL     1       9.692   1.081 -17.215  0.00  0.00    +0.020 A 
ATOM      2  C   UNL     1       8.559   0.648 -18.001  0.00  0.00    +0.013 A 
ATOM      3  C   UNL     1       7.505  -0.162 -17.404  0.00  0.00    +0.019 A 
ATOM     38  C   UNL     1       7.628  -0.519 -15.999  0.00  0.00    +0.120 A 
ATOM     39  N   UNL     1       8.730  -0.089 -15.267  0.00  0.00    -0.263 NA
ATOM     40  C   UNL     1       9.752   0.690 -15.832  0.00  0.00    +0.111 A 
ENDBRANCH   4   3
ENDBRANCH  10   9
BRANCH  12  13
ATOM     13  N   UNL     1       1.432  -1.522 -23.678  0.00  0.00    -0.281 N 
ATOM     14  C   UNL     1       0.285  -1.468 -22.902  0.00  0.00    +0.248 C 
ATOM     30  O   UNL     1       0.046  -2.220 -21.969  0.00  0.00    -0.270 OA
ATOM     31  H   UNL     1       1.418  -0.973 -24.537  0.00  0.00    +0.155 HD
BRANCH  14  15
ATOM     15  C   UNL     1      -0.752  -0.439 -23.218  0.00  0.00    +0.037 A 
ATOM     16  C   UNL     1      -0.681   0.360 -24.444  0.00  0.00    +0.013 A 
ATOM     17  C   UNL     1      -1.686   1.357 -24.716  0.00  0.00    +0.005 A 
ATOM     18  C   UNL     1      -2.771   1.560 -23.759  0.00  0.00    -0.033 A 
ATOM     28  C   UNL     1      -2.820   0.750 -22.553  0.00  0.00    +0.005 A 
ATOM     29  C   UNL     1      -1.837  -0.228 -22.283  0.00  0.00    +0.013 A 
BRANCH  18  19
ATOM     19  C   UNL     1      -3.874   2.616 -23.957  0.00  0.00    +0.119 C 
BRANCH  19  20
ATOM     20  N   UNL     1      -5.128   2.176 -24.639  0.00  0.00    -0.302 NA
ATOM     21  C   UNL     1      -5.934   1.196 -23.782  0.00  0.00    +0.066 C 
ATOM     22  C   UNL     1      -7.254   0.764 -24.501  0.00  0.00    -0.064 C 
ATOM     23  N   UNL     1      -6.912   0.143 -25.857  0.00  0.00    +0.379 N 
ATOM     24  C   UNL     1      -8.146  -0.317 -26.510  0.00  0.00    -0.096 C 
ATOM     25  H   UNL     1      -6.275  -0.752 -25.668  0.00  0.00    -0.082 HD
ATOM     26  C   UNL     1      -6.108   1.110 -26.714  0.00  0.00    -0.064 C 
ATOM     27  C   UNL     1      -4.814   1.557 -25.979  0.00  0.00    +0.066 C 
ENDBRANCH  19  20
ENDBRANCH  18  19
ENDBRANCH  14  15
ENDBRANCH  12  13
TORSDOF 6
ENDMDL
MODEL 4
REMARK VINA RESULT:      -7.3     14.044     19.004
REMARK  Name = C:\Users\Docking\Desktop\test protocol\1iep_ligandH.pdb
REMARK  8 active torsions:
REMARK  status: ('A' for Active; 'I' for Inactive)
REMARK    1  A    between atoms: _5  and  _11
REMARK    2  A    between atoms: _19  and  _21
REMARK    3  A    between atoms: _22  and  _66
REMARK    4  A    between atoms: _27  and  _30
REMARK    5  A    between atoms: _32  and  _33
REMARK    6  A    between atoms: _38  and  _43
REMARK    7  A    between atoms: _43  and  _46
REMARK    8  A    between atoms: _53  and  _55
REMARK                            x       y       z     vdW  Elec       q    Type
REMARK                         _______ _______ _______ _____ _____    ______ ____
ROOT
ATOM     10  C   UNL     1      -5.318   2.190 -26.429  0.00  0.00    +0.038 A 
ATOM     11  C   UNL     1      -4.057   1.601 -26.153  0.00  0.00    +0.047 A 
ATOM     12  C   UNL     1      -3.327   1.922 -24.937  0.00  0.00    +0.035 A 
ATOM     32  C   UNL     1      -3.912   2.844 -24.021  0.00  0.00    +0.024 A 
ATOM     33  C   UNL     1      -5.192   3.453 -24.286  0.00  0.00    +0.007 A 
ATOM     34  C   UNL     1      -5.916   3.142 -25.486  0.00  0.00    -0.029 A 
ATOM     35  C   UNL     1      -7.281   3.829 -25.721  0.00  0.00    +0.045 C 
ENDROOT
BRANCH  10   9
ATOM      4  C   UNL     1      -8.370  -0.536 -28.938  0.00  0.00    +0.077 A 
ATOM      5  C   UNL     1      -8.659  -1.362 -27.801  0.00  0.00    +0.048 A 
ATOM      6  C   UNL     1      -7.997  -1.056 -26.591  0.00  0.00    +0.116 A 
ATOM      7  N   UNL     1      -7.112  -0.001 -26.534  0.00  0.00    -0.223 NA
ATOM      8  C   UNL     1      -6.855   0.775 -27.649  0.00  0.00    +0.220 A 
ATOM      9  N   UNL     1      -5.975   1.846 -27.613  0.00  0.00    -0.283 N 
ATOM     36  H   UNL     1      -5.806   2.389 -28.459  0.00  0.00    +0.155 HD
ATOM     37  N   UNL     1      -7.474   0.503 -28.817  0.00  0.00    -0.214 NA
BRANCH   4   3
ATOM      1  C   UNL     1      -8.928  -1.488 -32.691  0.00  0.00    +0.020 A 
ATOM      2  C   UNL     1      -8.280  -1.321 -31.410  0.00  0.00    +0.013 A 
ATOM      3  C   UNL     1      -8.993  -0.731 -30.285  0.00  0.00    +0.019 A 
ATOM     38  C   UNL     1     -10.373  -0.316 -30.490  0.00  0.00    +0.120 A 
ATOM     39  N   UNL     1     -10.971  -0.487 -31.735  0.00  0.00    -0.263 NA
ATOM     40  C   UNL     1     -10.293  -1.053 -32.825  0.00  0.00    +0.111 A 
ENDBRANCH   4   3
ENDBRANCH  10   9
BRANCH  12  13
ATOM     13  N   UNL     1      -2.040   1.362 -24.607  0.00  0.00    -0.281 N 
ATOM     14  C   UNL     1      -1.706   0.581 -23.512  0.00  0.00    +0.248 C 
ATOM     30  O   UNL     1      -2.420   0.423 -22.533  0.00  0.00    -0.270 OA
ATOM     31  H   UNL     1      -1.283   1.565 -25.260  0.00  0.00    +0.155 HD
BRANCH  14  15
ATOM     15  C   UNL     1      -0.382  -0.112 -23.497  0.00  0.00    +0.037 A 
ATOM     16  C   UNL     1       0.814   0.522 -24.057  0.00  0.00    +0.013 A 
ATOM     17  C   UNL     1       2.075  -0.176 -24.044  0.00  0.00    +0.005 A 
ATOM     18  C   UNL     1       2.147  -1.516 -23.468  0.00  0.00    -0.033 A 
ATOM     28  C   UNL     1       0.945  -2.119 -22.914  0.00  0.00    +0.005 A 
ATOM     29  C   UNL     1      -0.293  -1.439 -22.925  0.00  0.00    +0.013 A 
BRANCH  18  19
ATOM     19  C   UNL     1       3.445  -2.343 -23.431  0.00  0.00    +0.119 C 
BRANCH  19  20
ATOM     20  N   UNL     1       3.610  -3.405 -24.468  0.00  0.00    -0.302 NA
ATOM     21  C   UNL     1       3.835  -4.786 -23.846  0.00  0.00    +0.066 C 
ATOM     22  C   UNL     1       3.982  -5.888 -24.944  0.00  0.00    -0.064 C 
ATOM     23  N   UNL     1       5.136  -5.521 -25.880  0.00  0.00    +0.379 N 
ATOM     24  C   UNL     1       5.314  -6.584 -26.879  0.00  0.00    -0.096 C 
ATOM     25  H   UNL     1       6.066  -5.473 -25.267  0.00  0.00    -0.082 HD
ATOM     26  C   UNL     1       4.921  -4.148 -26.501  0.00  0.00    -0.064 C 
ATOM     27  C   UNL     1       4.746  -3.065 -25.400  0.00  0.00    +0.066 C 
ENDBRANCH  19  20
ENDBRANCH  18  19
ENDBRANCH  14  15
ENDBRANCH  12  13
TORSDOF 6
ENDMDL
MODEL 5
REMARK VINA RESULT:      -7.3     19.939     21.300
REMARK  Name = C:\Users\Docking\Desktop\test protocol\1iep_ligandH.pdb
REMARK  8 active torsions:
REMARK  status: ('A' for Active; 'I' for Inactive)
REMARK    1  A    between atoms: _5  and  _11
REMARK    2  A    between atoms: _19  and  _21
REMARK    3  A    between atoms: _22  and  _66
REMARK    4  A    between atoms: _27  and  _30
REMARK    5  A    between atoms: _32  and  _33
REMARK    6  A    between atoms: _38  and  _43
REMARK    7  A    between atoms: _43  and  _46
REMARK    8  A    between atoms: _53  and  _55
REMARK                            x       y       z     vdW  Elec       q    Type
REMARK                         _______ _______ _______ _____ _____    ______ ____
ROOT
ATOM     10  C   UNL     1       6.410  -0.043 -17.788  0.00  0.00    +0.038 A 
ATOM     11  C   UNL     1       5.986  -1.136 -18.586  0.00  0.00    +0.047 A 
ATOM     12  C   UNL     1       5.815  -0.998 -20.024  0.00  0.00    +0.035 A 
ATOM     32  C   UNL     1       6.087   0.269 -20.617  0.00  0.00    +0.024 A 
ATOM     33  C   UNL     1       6.518   1.392 -19.821  0.00  0.00    +0.007 A 
ATOM     34  C   UNL     1       6.686   1.262 -18.402  0.00  0.00    -0.029 A 
ATOM     35  C   UNL     1       7.143   2.501 -17.598  0.00  0.00    +0.045 C 
ENDROOT
BRANCH  10   9
ATOM      4  C   UNL     1       8.996  -1.284 -13.940  0.00  0.00    +0.077 A 
ATOM      5  C   UNL     1      10.141  -1.608 -14.741  0.00  0.00    +0.048 A 
ATOM      6  C   UNL     1      10.021  -1.449 -16.140  0.00  0.00    +0.116 A 
ATOM      7  N   UNL     1       8.839  -0.997 -16.686  0.00  0.00    -0.223 NA
ATOM      8  C   UNL     1       7.753  -0.695 -15.885  0.00  0.00    +0.220 A 
ATOM      9  N   UNL     1       6.557  -0.232 -16.412  0.00  0.00    -0.283 N 
ATOM     36  H   UNL     1       5.777  -0.027 -15.789  0.00  0.00    +0.155 HD
ATOM     37  N   UNL     1       7.842  -0.841 -14.547  0.00  0.00    -0.214 NA
BRANCH   4   3
ATOM      1  C   UNL     1       9.766  -2.378 -10.265  0.00  0.00    +0.020 A 
ATOM      2  C   UNL     1       9.833  -2.307 -11.706  0.00  0.00    +0.013 A 
ATOM      3  C   UNL     1       8.968  -1.398 -12.448  0.00  0.00    +0.019 A 
ATOM     38  C   UNL     1       8.041  -0.566 -11.695  0.00  0.00    +0.120 A 
ATOM     39  N   UNL     1       7.999  -0.657 -10.307  0.00  0.00    -0.263 NA
ATOM     40  C   UNL     1       8.825  -1.530  -9.583  0.00  0.00    +0.111 A 
ENDBRANCH   4   3
ENDBRANCH  10   9
BRANCH  12  13
ATOM     13  N   UNL     1       5.379  -2.070 -20.883  0.00  0.00    -0.281 N 
ATOM     14  C   UNL     1       4.257  -2.110 -21.694  0.00  0.00    +0.248 C 
ATOM     30  O   UNL     1       3.337  -1.307 -21.640  0.00  0.00    -0.270 OA
ATOM     31  H   UNL     1       5.971  -2.901 -20.896  0.00  0.00    +0.155 HD
BRANCH  14  15
ATOM     15  C   UNL     1       4.131  -3.208 -22.700  0.00  0.00    +0.037 A 
ATOM     16  C   UNL     1       2.843  -3.524 -23.323  0.00  0.00    +0.013 A 
ATOM     17  C   UNL     1       2.746  -4.599 -24.278  0.00  0.00    +0.005 A 
ATOM     18  C   UNL     1       3.942  -5.366 -24.617  0.00  0.00    -0.033 A 
ATOM     28  C   UNL     1       5.208  -5.028 -23.988  0.00  0.00    +0.005 A 
ATOM     29  C   UNL     1       5.307  -3.975 -23.051  0.00  0.00    +0.013 A 
BRANCH  18  19
ATOM     19  C   UNL     1       3.927  -6.544 -25.609  0.00  0.00    +0.119 C 
BRANCH  19  20
ATOM     20  N   UNL     1       4.109  -6.221 -27.056  0.00  0.00    -0.302 NA
ATOM     21  C   UNL     1       2.918  -5.445 -27.625  0.00  0.00    +0.066 C 
ATOM     22  C   UNL     1       3.135  -5.097 -29.134  0.00  0.00    -0.064 C 
ATOM     23  N   UNL     1       3.369  -6.385 -29.924  0.00  0.00    +0.379 N 
ATOM     24  C   UNL     1       3.515  -6.066 -31.351  0.00  0.00    -0.096 C 
ATOM     25  H   UNL     1       2.460  -7.021 -29.811  0.00  0.00    -0.082 HD
ATOM     26  C   UNL     1       4.550  -7.165 -29.362  0.00  0.00    -0.064 C 
ATOM     27  C   UNL     1       4.338  -7.480 -27.855  0.00  0.00    +0.066 C 
ENDBRANCH  19  20
ENDBRANCH  18  19
ENDBRANCH  14  15
ENDBRANCH  12  13
TORSDOF 6
ENDMDL
