MODEL 1
REMARK VINA RESULT:      -6.7      0.000      0.000
REMARK  Name = C:\Users\Docking\Desktop\test protocol\1iep_ligandH.pdb
REMARK  8 active torsions:
REMARK  status: ('A' for Active; 'I' for Inactive)
REMARK    1  A    between atoms: _5  and  _11
REMARK    2  A    between atoms: _19  and  _21
REMARK    3  A    between atoms: _22  and  _66
REMARK    4  A    between atoms: _27  and  _30
REMARK    5  A    between atoms: _32  and  _33
REMARK    6  A    between atoms: _38  and  _43
REMARK    7  A    between atoms: _43  and  _46
REMARK    8  A    between atoms: _53  and  _55
REMARK                            x       y       z     vdW  Elec       q    Type
REMARK                         _______ _______ _______ _____ _____    ______ ____
ROOT
ATOM     10  C   UNL     1      48.895  72.415  50.348  0.00  0.00    +0.038 A 
ATOM     11  C   UNL     1      48.704  71.158  49.720  0.00  0.00    +0.047 A 
ATOM     12  C   UNL     1      49.661  70.648  48.751  0.00  0.00    +0.035 A 
ATOM     32  C   UNL     1      50.804  71.444  48.447  0.00  0.00    +0.024 A 
ATOM     33  C   UNL     1      51.013  72.725  49.075  0.00  0.00    +0.007 A 
ATOM     34  C   UNL     1      50.071  73.234  50.030  0.00  0.00    -0.029 A 
ATOM     35  C   UNL     1      50.343  74.616  50.668  0.00  0.00    +0.045 C 
ENDROOT
BRANCH  10   9
ATOM      4  C   UNL     1      44.954  74.898  51.506  0.00  0.00    +0.077 A 
ATOM      5  C   UNL     1      44.791  75.379  50.165  0.00  0.00    +0.048 A 
ATOM      6  C   UNL     1      45.747  74.970  49.208  0.00  0.00    +0.116 A 
ATOM      7  N   UNL     1      46.784  74.141  49.577  0.00  0.00    -0.223 NA
ATOM      8  C   UNL     1      46.913  73.697  50.880  0.00  0.00    +0.220 A 
ATOM      9  N   UNL     1      47.944  72.856  51.271  0.00  0.00    -0.283 N 
ATOM     36  H   UNL     1      48.008  72.557  52.244  0.00  0.00    +0.155 HD
ATOM     37  N   UNL     1      46.014  74.074  51.812  0.00  0.00    -0.214 NA
BRANCH   4   3
ATOM      1  C   UNL     1      41.758  75.869  53.543  0.00  0.00    +0.020 A 
ATOM      2  C   UNL     1      42.614  75.546  52.424  0.00  0.00    +0.013 A 
ATOM      3  C   UNL     1      44.024  75.240  52.629  0.00  0.00    +0.019 A 
ATOM     38  C   UNL     1      44.541  75.268  53.989  0.00  0.00    +0.120 A 
ATOM     39  N   UNL     1      43.694  75.584  55.046  0.00  0.00    -0.263 NA
ATOM     40  C   UNL     1      42.335  75.883  54.861  0.00  0.00    +0.111 A 
ENDBRANCH   4   3
ENDBRANCH  10   9
BRANCH  12  13
ATOM     13  N   UNL     1      49.516  69.383  48.075  0.00  0.00    -0.281 N 
ATOM     14  C   UNL     1      48.755  69.099  46.953  0.00  0.00    +0.248 C 
ATOM     30  O   UNL     1      47.911  69.847  46.483  0.00  0.00    -0.270 OA
ATOM     31  H   UNL     1      50.038  68.601  48.472  0.00  0.00    +0.155 HD
BRANCH  14  15
ATOM     15  C   UNL     1      48.951  67.788  46.261  0.00  0.00    +0.037 A 
ATOM     16  C   UNL     1      48.928  66.526  47.004  0.00  0.00    +0.013 A 
ATOM     17  C   UNL     1      49.135  65.277  46.314  0.00  0.00    +0.005 A 
ATOM     18  C   UNL     1      49.367  65.285  44.872  0.00  0.00    -0.033 A 
ATOM     28  C   UNL     1      49.379  66.552  44.159  0.00  0.00    +0.005 A 
ATOM     29  C   UNL     1      49.177  67.778  44.831  0.00  0.00    +0.013 A 
BRANCH  18  19
ATOM     19  C   UNL     1      49.619  64.003  44.058  0.00  0.00    +0.119 C 
BRANCH  19  20
ATOM     20  N   UNL     1      49.698  64.139  42.573  0.00  0.00    -0.302 NA
ATOM     21  C   UNL     1      48.384  63.753  41.889  0.00  0.00    +0.066 C 
ATOM     22  C   UNL     1      48.477  63.924  40.338  0.00  0.00    -0.064 C 
ATOM     23  N   UNL     1      49.634  63.078  39.803  0.00  0.00    +0.379 N 
ATOM     24  C   UNL     1      49.688  63.191  38.338  0.00  0.00    -0.096 C 
ATOM     25  H   UNL     1      49.418  62.013  40.053  0.00  0.00    -0.082 HD
ATOM     26  C   UNL     1      50.945  63.454  40.480  0.00  0.00    -0.064 C 
ATOM     27  C   UNL     1      50.832  63.309  42.023  0.00  0.00    +0.066 C 
ENDBRANCH  19  20
ENDBRANCH  18  19
ENDBRANCH  14  15
ENDBRANCH  12  13
TORSDOF 6
ENDMDL
MODEL 2
REMARK VINA RESULT:      -6.6     15.284     22.056
REMARK  Name = C:\Users\Docking\Desktop\test protocol\1iep_ligandH.pdb
REMARK  8 active torsions:
REMARK  status: ('A' for Active; 'I' for Inactive)
REMARK    1  A    between atoms: _5  and  _11
REMARK    2  A    between atoms: _19  and  _21
REMARK    3  A    between atoms: _22  and  _66
REMARK    4  A    between atoms: _27  and  _30
REMARK    5  A    between atoms: _32  and  _33
REMARK    6  A    between atoms: _38  and  _43
REMARK    7  A    between atoms: _43  and  _46
REMARK    8  A    between atoms: _53  and  _55
REMARK                            x       y       z     vdW  Elec       q    Type
REMARK                         _______ _______ _______ _____ _____    ______ ____
ROOT
ATOM     10  C   UNL     1      29.881  70.948  45.050  0.00  0.00    +0.038 A 
ATOM     11  C   UNL     1      29.489  71.700  46.187  0.00  0.00    +0.047 A 
ATOM     12  C   UNL     1      28.141  71.607  46.723  0.00  0.00    +0.035 A 
ATOM     32  C   UNL     1      27.216  70.735  46.078  0.00  0.00    +0.024 A 
ATOM     33  C   UNL     1      27.596  69.963  44.921  0.00  0.00    +0.007 A 
ATOM     34  C   UNL     1      28.925  70.053  44.386  0.00  0.00    -0.029 A 
ATOM     35  C   UNL     1      29.276  69.208  43.139  0.00  0.00    +0.045 C 
ENDROOT
BRANCH  10   9
ATOM      4  C   UNL     1      34.604  70.173  45.404  0.00  0.00    +0.077 A 
ATOM      5  C   UNL     1      34.456  69.477  46.650  0.00  0.00    +0.048 A 
ATOM      6  C   UNL     1      33.149  69.346  47.169  0.00  0.00    +0.116 A 
ATOM      7  N   UNL     1      32.076  69.876  46.485  0.00  0.00    -0.223 NA
ATOM      8  C   UNL     1      32.254  70.542  45.286  0.00  0.00    +0.220 A 
ATOM      9  N   UNL     1      31.189  71.076  44.577  0.00  0.00    -0.283 N 
ATOM     36  H   UNL     1      31.362  71.567  43.701  0.00  0.00    +0.155 HD
ATOM     37  N   UNL     1      33.493  70.682  44.770  0.00  0.00    -0.214 NA
BRANCH   4   3
ATOM      1  C   UNL     1      38.392  69.960  44.451  0.00  0.00    +0.020 A 
ATOM      2  C   UNL     1      37.146  69.716  45.140  0.00  0.00    +0.013 A 
ATOM      3  C   UNL     1      35.921  70.390  44.726  0.00  0.00    +0.019 A 
ATOM     38  C   UNL     1      35.992  71.311  43.602  0.00  0.00    +0.120 A 
ATOM     39  N   UNL     1      37.207  71.527  42.959  0.00  0.00    -0.263 NA
ATOM     40  C   UNL     1      38.392  70.886  43.349  0.00  0.00    +0.111 A 
ENDBRANCH   4   3
ENDBRANCH  10   9
BRANCH  12  13
ATOM     13  N   UNL     1      27.684  72.352  47.869  0.00  0.00    -0.281 N 
ATOM     14  C   UNL     1      26.911  73.502  47.885  0.00  0.00    +0.248 C 
ATOM     30  O   UNL     1      26.673  74.188  46.902  0.00  0.00    -0.270 OA
ATOM     31  H   UNL     1      27.964  71.989  48.780  0.00  0.00    +0.155 HD
BRANCH  14  15
ATOM     15  C   UNL     1      26.331  73.965  49.182  0.00  0.00    +0.037 A 
ATOM     16  C   UNL     1      25.969  75.369  49.395  0.00  0.00    +0.013 A 
ATOM     17  C   UNL     1      25.427  75.792  50.662  0.00  0.00    +0.005 A 
ATOM     18  C   UNL     1      25.243  74.808  51.726  0.00  0.00    -0.033 A 
ATOM     28  C   UNL     1      25.606  73.421  51.487  0.00  0.00    +0.005 A 
ATOM     29  C   UNL     1      26.138  73.003  50.246  0.00  0.00    +0.013 A 
BRANCH  18  19
ATOM     19  C   UNL     1      24.691  75.174  53.117  0.00  0.00    +0.119 C 
BRANCH  19  20
ATOM     20  N   UNL     1      25.621  75.042  54.278  0.00  0.00    -0.302 NA
ATOM     21  C   UNL     1      27.089  75.060  53.843  0.00  0.00    +0.066 C 
ATOM     22  C   UNL     1      28.049  74.944  55.072  0.00  0.00    -0.064 C 
ATOM     23  N   UNL     1      27.729  73.664  55.846  0.00  0.00    +0.379 N 
ATOM     24  C   UNL     1      28.667  73.522  56.969  0.00  0.00    -0.096 C 
ATOM     25  H   UNL     1      27.892  72.803  55.157  0.00  0.00    -0.082 HD
ATOM     26  C   UNL     1      26.270  73.637  56.280  0.00  0.00    -0.064 C 
ATOM     27  C   UNL     1      25.326  73.783  55.054  0.00  0.00    +0.066 C 
ENDBRANCH  19  20
ENDBRANCH  18  19
ENDBRANCH  14  15
ENDBRANCH  12  13
TORSDOF 6
ENDMDL
MODEL 3
REMARK VINA RESULT:      -6.4     11.297     16.118
REMARK  Name = C:\Users\Docking\Desktop\test protocol\1iep_ligandH.pdb
REMARK  8 active torsions:
REMARK  status: ('A' for Active; 'I' for Inactive)
REMARK    1  A    between atoms: _5  and  _11
REMARK    2  A    between atoms: _19  and  _21
REMARK    3  A    between atoms: _22  and  _66
REMARK    4  A    between atoms: _27  and  _30
REMARK    5  A    between atoms: _32  and  _33
REMARK    6  A    between atoms: _38  and  _43
REMARK    7  A    between atoms: _43  and  _46
REMARK    8  A    between atoms: _53  and  _55
REMARK                            x       y       z     vdW  Elec       q    Type
REMARK                         _______ _______ _______ _____ _____    ______ ____
ROOT
ATOM     10  C   UNL     1      40.597  70.007  39.776  0.00  0.00    +0.038 A 
ATOM     11  C   UNL     1      39.611  69.710  40.751  0.00  0.00    +0.047 A 
ATOM     12  C   UNL     1      38.508  70.621  41.009  0.00  0.00    +0.035 A 
ATOM     32  C   UNL     1      38.437  71.827  40.252  0.00  0.00    +0.024 A 
ATOM     33  C   UNL     1      39.431  72.146  39.257  0.00  0.00    +0.007 A 
ATOM     34  C   UNL     1      40.523  71.252  39.001  0.00  0.00    -0.029 A 
ATOM     35  C   UNL     1      41.563  71.648  37.927  0.00  0.00    +0.045 C 
ENDROOT
BRANCH  10   9
ATOM      4  C   UNL     1      44.968  68.279  40.748  0.00  0.00    +0.077 A 
ATOM      5  C   UNL     1      45.215  69.294  41.732  0.00  0.00    +0.048 A 
ATOM      6  C   UNL     1      44.194  70.246  41.952  0.00  0.00    +0.116 A 
ATOM      7  N   UNL     1      43.018  70.178  41.237  0.00  0.00    -0.223 NA
ATOM      8  C   UNL     1      42.813  69.188  40.294  0.00  0.00    +0.220 A 
ATOM      9  N   UNL     1      41.635  69.096  39.569  0.00  0.00    -0.283 N 
ATOM     36  H   UNL     1      41.525  68.355  38.878  0.00  0.00    +0.155 HD
ATOM     37  N   UNL     1      43.772  68.267  40.064  0.00  0.00    -0.214 NA
BRANCH   4   3
ATOM      1  C   UNL     1      46.580  65.024  39.296  0.00  0.00    +0.020 A 
ATOM      2  C   UNL     1      45.596  66.037  39.599  0.00  0.00    +0.013 A 
ATOM      3  C   UNL     1      45.947  67.200  40.404  0.00  0.00    +0.019 A 
ATOM     38  C   UNL     1      47.315  67.309  40.890  0.00  0.00    +0.120 A 
ATOM     39  N   UNL     1      48.241  66.317  40.583  0.00  0.00    -0.263 NA
ATOM     40  C   UNL     1      47.913  65.193  39.810  0.00  0.00    +0.111 A 
ENDBRANCH   4   3
ENDBRANCH  10   9
BRANCH  12  13
ATOM     13  N   UNL     1      37.482  70.376  41.992  0.00  0.00    -0.281 N 
ATOM     14  C   UNL     1      37.493  70.712  43.336  0.00  0.00    +0.248 C 
ATOM     30  O   UNL     1      38.483  71.088  43.947  0.00  0.00    -0.270 OA
ATOM     31  H   UNL     1      36.647  69.896  41.657  0.00  0.00    +0.155 HD
BRANCH  14  15
ATOM     15  C   UNL     1      36.224  70.602  44.119  0.00  0.00    +0.037 A 
ATOM     16  C   UNL     1      36.193  69.942  45.426  0.00  0.00    +0.013 A 
ATOM     17  C   UNL     1      34.952  69.834  46.152  0.00  0.00    +0.005 A 
ATOM     18  C   UNL     1      33.732  70.390  45.572  0.00  0.00    -0.033 A 
ATOM     28  C   UNL     1      33.793  71.045  44.275  0.00  0.00    +0.005 A 
ATOM     29  C   UNL     1      35.007  71.151  43.560  0.00  0.00    +0.013 A 
BRANCH  18  19
ATOM     19  C   UNL     1      32.360  70.302  46.266  0.00  0.00    +0.119 C 
BRANCH  19  20
ATOM     20  N   UNL     1      31.148  70.366  45.396  0.00  0.00    -0.302 NA
ATOM     21  C   UNL     1      30.114  71.365  45.924  0.00  0.00    +0.066 C 
ATOM     22  C   UNL     1      28.862  71.435  44.990  0.00  0.00    -0.064 C 
ATOM     23  N   UNL     1      28.249  70.040  44.856  0.00  0.00    +0.379 N 
ATOM     24  C   UNL     1      27.039  70.114  44.025  0.00  0.00    -0.096 C 
ATOM     25  H   UNL     1      27.941  69.708  45.874  0.00  0.00    -0.082 HD
ATOM     26  C   UNL     1      29.272  69.041  44.334  0.00  0.00    -0.064 C 
ATOM     27  C   UNL     1      30.524  69.000  45.254  0.00  0.00    +0.066 C 
ENDBRANCH  19  20
ENDBRANCH  18  19
ENDBRANCH  14  15
ENDBRANCH  12  13
TORSDOF 6
ENDMDL
MODEL 4
REMARK VINA RESULT:      -6.3     25.878     27.997
REMARK  Name = C:\Users\Docking\Desktop\test protocol\1iep_ligandH.pdb
REMARK  8 active torsions:
REMARK  status: ('A' for Active; 'I' for Inactive)
REMARK    1  A    between atoms: _5  and  _11
REMARK    2  A    between atoms: _19  and  _21
REMARK    3  A    between atoms: _22  and  _66
REMARK    4  A    between atoms: _27  and  _30
REMARK    5  A    between atoms: _32  and  _33
REMARK    6  A    between atoms: _38  and  _43
REMARK    7  A    between atoms: _43  and  _46
REMARK    8  A    between atoms: _53  and  _55
REMARK                            x       y       z     vdW  Elec       q    Type
REMARK                         _______ _______ _______ _____ _____    ______ ____
ROOT
ATOM     10  C   UNL     1      33.007  46.484  50.195  0.00  0.00    +0.038 A 
ATOM     11  C   UNL     1      34.293  46.042  50.599  0.00  0.00    +0.047 A 
ATOM     12  C   UNL     1      35.214  45.438  49.648  0.00  0.00    +0.035 A 
ATOM     32  C   UNL     1      34.793  45.302  48.293  0.00  0.00    +0.024 A 
ATOM     33  C   UNL     1      33.489  45.746  47.866  0.00  0.00    +0.007 A 
ATOM     34  C   UNL     1      32.576  46.340  48.800  0.00  0.00    -0.029 A 
ATOM     35  C   UNL     1      31.188  46.791  48.287  0.00  0.00    +0.045 C 
ENDROOT
BRANCH  10   9
ATOM      4  C   UNL     1      31.423  50.234  52.738  0.00  0.00    +0.077 A 
ATOM      5  C   UNL     1      32.374  51.122  52.132  0.00  0.00    +0.048 A 
ATOM      6  C   UNL     1      33.257  50.572  51.177  0.00  0.00    +0.116 A 
ATOM      7  N   UNL     1      33.186  49.234  50.858  0.00  0.00    -0.223 NA
ATOM      8  C   UNL     1      32.258  48.405  51.461  0.00  0.00    +0.220 A 
ATOM      9  N   UNL     1      32.164  47.057  51.150  0.00  0.00    -0.283 N 
ATOM     36  H   UNL     1      31.471  46.478  51.623  0.00  0.00    +0.155 HD
ATOM     37  N   UNL     1      31.404  48.905  52.378  0.00  0.00    -0.214 NA
BRANCH   4   3
ATOM      1  C   UNL     1      29.332  50.505  56.032  0.00  0.00    +0.020 A 
ATOM      2  C   UNL     1      30.318  50.050  55.079  0.00  0.00    +0.013 A 
ATOM      3  C   UNL     1      30.420  50.666  53.762  0.00  0.00    +0.019 A 
ATOM     38  C   UNL     1      29.504  51.750  53.440  0.00  0.00    +0.120 A 
ATOM     39  N   UNL     1      28.564  52.166  54.377  0.00  0.00    -0.263 NA
ATOM     40  C   UNL     1      28.455  51.579  55.647  0.00  0.00    +0.111 A 
ENDBRANCH   4   3
ENDBRANCH  10   9
BRANCH  12  13
ATOM     13  N   UNL     1      36.528  44.963  50.001  0.00  0.00    -0.281 N 
ATOM     14  C   UNL     1      36.880  43.716  50.493  0.00  0.00    +0.248 C 
ATOM     30  O   UNL     1      36.083  42.887  50.907  0.00  0.00    -0.270 OA
ATOM     31  H   UNL     1      37.293  45.626  49.874  0.00  0.00    +0.155 HD
BRANCH  14  15
ATOM     15  C   UNL     1      38.326  43.342  50.545  0.00  0.00    +0.037 A 
ATOM     16  C   UNL     1      39.358  44.339  50.842  0.00  0.00    +0.013 A 
ATOM     17  C   UNL     1      40.747  43.955  50.870  0.00  0.00    +0.005 A 
ATOM     18  C   UNL     1      41.112  42.566  50.601  0.00  0.00    -0.033 A 
ATOM     28  C   UNL     1      40.067  41.597  50.314  0.00  0.00    +0.005 A 
ATOM     29  C   UNL     1      38.705  41.970  50.285  0.00  0.00    +0.013 A 
BRANCH  18  19
ATOM     19  C   UNL     1      42.571  42.071  50.588  0.00  0.00    +0.119 C 
BRANCH  19  20
ATOM     20  N   UNL     1      43.216  41.812  51.910  0.00  0.00    -0.302 NA
ATOM     21  C   UNL     1      42.187  41.499  53.000  0.00  0.00    +0.066 C 
ATOM     22  C   UNL     1      42.881  41.208  54.371  0.00  0.00    -0.064 C 
ATOM     23  N   UNL     1      43.742  42.409  54.768  0.00  0.00    +0.379 N 
ATOM     24  C   UNL     1      44.350  42.163  56.084  0.00  0.00    -0.096 C 
ATOM     25  H   UNL     1      43.068  43.291  54.866  0.00  0.00    -0.082 HD
ATOM     26  C   UNL     1      44.766  42.729  53.688  0.00  0.00    -0.064 C 
ATOM     27  C   UNL     1      44.068  42.987  52.323  0.00  0.00    +0.066 C 
ENDBRANCH  19  20
ENDBRANCH  18  19
ENDBRANCH  14  15
ENDBRANCH  12  13
TORSDOF 6
ENDMDL
MODEL 5
REMARK VINA RESULT:      -6.2      9.566     13.720
REMARK  Name = C:\Users\Docking\Desktop\test protocol\1iep_ligandH.pdb
REMARK  8 active torsions:
REMARK  status: ('A' for Active; 'I' for Inactive)
REMARK    1  A    between atoms: _5  and  _11
REMARK    2  A    between atoms: _19  and  _21
REMARK    3  A    between atoms: _22  and  _66
REMARK    4  A    between atoms: _27  and  _30
REMARK    5  A    between atoms: _32  and  _33
REMARK    6  A    between atoms: _38  and  _43
REMARK    7  A    between atoms: _43  and  _46
REMARK    8  A    between atoms: _53  and  _55
REMARK                            x       y       z     vdW  Elec       q    Type
REMARK                         _______ _______ _______ _____ _____    ______ ____
ROOT
ATOM     10  C   UNL     1      52.516  71.096  55.523  0.00  0.00    +0.038 A 
ATOM     11  C   UNL     1      51.844  70.195  56.388  0.00  0.00    +0.047 A 
ATOM     12  C   UNL     1      52.584  69.296  57.260  0.00  0.00    +0.035 A 
ATOM     32  C   UNL     1      54.009  69.343  57.227  0.00  0.00    +0.024 A 
ATOM     33  C   UNL     1      54.708  70.252  56.352  0.00  0.00    +0.007 A 
ATOM     34  C   UNL     1      53.983  71.139  55.488  0.00  0.00    -0.029 A 
ATOM     35  C   UNL     1      54.784  72.088  54.566  0.00  0.00    +0.045 C 
ENDROOT
BRANCH  10   9
ATOM      4  C   UNL     1      50.216  72.070  51.424  0.00  0.00    +0.077 A 
ATOM      5  C   UNL     1      50.584  70.809  50.849  0.00  0.00    +0.048 A 
ATOM      6  C   UNL     1      51.371  69.940  51.638  0.00  0.00    +0.116 A 
ATOM      7  N   UNL     1      51.756  70.316  52.907  0.00  0.00    -0.223 NA
ATOM      8  C   UNL     1      51.386  71.541  53.431  0.00  0.00    +0.220 A 
ATOM      9  N   UNL     1      51.755  71.937  54.707  0.00  0.00    -0.283 N 
ATOM     36  H   UNL     1      51.468  72.851  55.054  0.00  0.00    +0.155 HD
ATOM     37  N   UNL     1      50.636  72.389  52.696  0.00  0.00    -0.214 NA
BRANCH   4   3
ATOM      1  C   UNL     1      47.202  73.938  49.772  0.00  0.00    +0.020 A 
ATOM      2  C   UNL     1      47.960  72.918  50.460  0.00  0.00    +0.013 A 
ATOM      3  C   UNL     1      49.384  73.094  50.716  0.00  0.00    +0.019 A 
ATOM     38  C   UNL     1      50.016  74.323  50.260  0.00  0.00    +0.120 A 
ATOM     39  N   UNL     1      49.261  75.287  49.600  0.00  0.00    -0.263 NA
ATOM     40  C   UNL     1      47.890  75.128  49.346  0.00  0.00    +0.111 A 
ENDBRANCH   4   3
ENDBRANCH  10   9
BRANCH  12  13
ATOM     13  N   UNL     1      51.957  68.355  58.154  0.00  0.00    -0.281 N 
ATOM     14  C   UNL     1      52.016  66.971  58.112  0.00  0.00    +0.248 C 
ATOM     30  O   UNL     1      52.445  66.326  57.166  0.00  0.00    -0.270 OA
ATOM     31  H   UNL     1      51.403  68.757  58.910  0.00  0.00    +0.155 HD
BRANCH  14  15
ATOM     15  C   UNL     1      51.512  66.191  59.283  0.00  0.00    +0.037 A 
ATOM     16  C   UNL     1      51.008  64.824  59.125  0.00  0.00    +0.013 A 
ATOM     17  C   UNL     1      50.511  64.100  60.268  0.00  0.00    +0.005 A 
ATOM     18  C   UNL     1      50.519  64.742  61.581  0.00  0.00    -0.033 A 
ATOM     28  C   UNL     1      51.029  66.097  61.709  0.00  0.00    +0.005 A 
ATOM     29  C   UNL     1      51.516  66.810  60.591  0.00  0.00    +0.013 A 
BRANCH  18  19
ATOM     19  C   UNL     1      49.989  64.052  62.852  0.00  0.00    +0.119 C 
BRANCH  19  20
ATOM     20  N   UNL     1      48.602  64.394  63.288  0.00  0.00    -0.302 NA
ATOM     21  C   UNL     1      47.871  65.257  62.255  0.00  0.00    +0.066 C 
ATOM     22  C   UNL     1      46.415  65.586  62.717  0.00  0.00    -0.064 C 
ATOM     23  N   UNL     1      46.459  66.288  64.075  0.00  0.00    +0.379 N 
ATOM     24  C   UNL     1      45.095  66.651  64.485  0.00  0.00    -0.096 C 
ATOM     25  H   UNL     1      47.037  67.233  63.948  0.00  0.00    -0.082 HD
ATOM     26  C   UNL     1      47.187  65.438  65.107  0.00  0.00    -0.064 C 
ATOM     27  C   UNL     1      48.623  65.092  64.625  0.00  0.00    +0.066 C 
ENDBRANCH  19  20
ENDBRANCH  18  19
ENDBRANCH  14  15
ENDBRANCH  12  13
TORSDOF 6
ENDMDL
