MODEL 1
REMARK VINA RESULT:      -7.6      0.000      0.000
REMARK  Name = C:\Users\Docking\Desktop\test protocol\1iep_ligandH.pdb
REMARK  8 active torsions:
REMARK  status: ('A' for Active; 'I' for Inactive)
REMARK    1  A    between atoms: _5  and  _11
REMARK    2  A    between atoms: _19  and  _21
REMARK    3  A    between atoms: _22  and  _66
REMARK    4  A    between atoms: _27  and  _30
REMARK    5  A    between atoms: _32  and  _33
REMARK    6  A    between atoms: _38  and  _43
REMARK    7  A    between atoms: _43  and  _46
REMARK    8  A    between atoms: _53  and  _55
REMARK                            x       y       z     vdW  Elec       q    Type
REMARK                         _______ _______ _______ _____ _____    ______ ____
ROOT
ATOM     10  C   UNL     1     -20.469   3.787  10.350  0.00  0.00    +0.038 A 
ATOM     11  C   UNL     1     -20.173   4.049   8.988  0.00  0.00    +0.047 A 
ATOM     12  C   UNL     1     -21.192   3.923   7.958  0.00  0.00    +0.035 A 
ATOM     32  C   UNL     1     -22.504   3.530   8.352  0.00  0.00    +0.024 A 
ATOM     33  C   UNL     1     -22.823   3.258   9.731  0.00  0.00    +0.007 A 
ATOM     34  C   UNL     1     -21.821   3.379  10.751  0.00  0.00    -0.029 A 
ATOM     35  C   UNL     1     -22.217   3.069  12.214  0.00  0.00    +0.045 C 
ENDROOT
BRANCH  10   9
ATOM      4  C   UNL     1     -17.828   6.417  13.375  0.00  0.00    +0.077 A 
ATOM      5  C   UNL     1     -18.515   7.625  13.018  0.00  0.00    +0.048 A 
ATOM      6  C   UNL     1     -19.537   7.527  12.047  0.00  0.00    +0.116 A 
ATOM      7  N   UNL     1     -19.841   6.308  11.482  0.00  0.00    -0.223 NA
ATOM      8  C   UNL     1     -19.158   5.162  11.847  0.00  0.00    +0.220 A 
ATOM      9  N   UNL     1     -19.452   3.924  11.298  0.00  0.00    -0.283 N 
ATOM     36  H   UNL     1     -18.920   3.104  11.589  0.00  0.00    +0.155 HD
ATOM     37  N   UNL     1     -18.177   5.229  12.771  0.00  0.00    -0.214 NA
BRANCH   4   3
ATOM      1  C   UNL     1     -14.930   5.133  15.667  0.00  0.00    +0.020 A 
ATOM      2  C   UNL     1     -15.985   5.137  14.679  0.00  0.00    +0.013 A 
ATOM      3  C   UNL     1     -16.727   6.357  14.388  0.00  0.00    +0.019 A 
ATOM     38  C   UNL     1     -16.375   7.565  15.118  0.00  0.00    +0.120 A 
ATOM     39  N   UNL     1     -15.355   7.530  16.065  0.00  0.00    -0.263 NA
ATOM     40  C   UNL     1     -14.635   6.362  16.355  0.00  0.00    +0.111 A 
ENDBRANCH   4   3
ENDBRANCH  10   9
BRANCH  12  13
ATOM     13  N   UNL     1     -20.947   4.168   6.559  0.00  0.00    -0.281 N 
ATOM     14  C   UNL     1     -20.894   5.388   5.905  0.00  0.00    +0.248 C 
ATOM     30  O   UNL     1     -21.262   6.448   6.388  0.00  0.00    -0.270 OA
ATOM     31  H   UNL     1     -20.795   3.342   5.980  0.00  0.00    +0.155 HD
BRANCH  14  15
ATOM     15  C   UNL     1     -20.369   5.435   4.506  0.00  0.00    +0.037 A 
ATOM     16  C   UNL     1     -19.893   4.224   3.832  0.00  0.00    +0.013 A 
ATOM     17  C   UNL     1     -19.376   4.300   2.488  0.00  0.00    +0.005 A 
ATOM     18  C   UNL     1     -19.334   5.593   1.809  0.00  0.00    -0.033 A 
ATOM     28  C   UNL     1     -19.818   6.777   2.500  0.00  0.00    +0.005 A 
ATOM     29  C   UNL     1     -20.324   6.707   3.817  0.00  0.00    +0.013 A 
BRANCH  18  19
ATOM     19  C   UNL     1     -18.779   5.771   0.384  0.00  0.00    +0.119 C 
BRANCH  19  20
ATOM     20  N   UNL     1     -17.989   7.008   0.107  0.00  0.00    -0.302 NA
ATOM     21  C   UNL     1     -18.718   7.954  -0.851  0.00  0.00    +0.066 C 
ATOM     22  C   UNL     1     -17.888   9.252  -1.111  0.00  0.00    -0.064 C 
ATOM     23  N   UNL     1     -16.514   8.873  -1.667  0.00  0.00    +0.379 N 
ATOM     24  C   UNL     1     -15.752  10.093  -1.967  0.00  0.00    -0.096 C 
ATOM     25  H   UNL     1     -16.676   8.330  -2.627  0.00  0.00    -0.082 HD
ATOM     26  C   UNL     1     -15.783   7.930  -0.722  0.00  0.00    -0.064 C 
ATOM     27  C   UNL     1     -16.630   6.656  -0.446  0.00  0.00    +0.066 C 
ENDBRANCH  19  20
ENDBRANCH  18  19
ENDBRANCH  14  15
ENDBRANCH  12  13
TORSDOF 6
ENDMDL
MODEL 2
REMARK VINA RESULT:      -7.6      9.388     14.653
REMARK  Name = C:\Users\Docking\Desktop\test protocol\1iep_ligandH.pdb
REMARK  8 active torsions:
REMARK  status: ('A' for Active; 'I' for Inactive)
REMARK    1  A    between atoms: _5  and  _11
REMARK    2  A    between atoms: _19  and  _21
REMARK    3  A    between atoms: _22  and  _66
REMARK    4  A    between atoms: _27  and  _30
REMARK    5  A    between atoms: _32  and  _33
REMARK    6  A    between atoms: _38  and  _43
REMARK    7  A    between atoms: _43  and  _46
REMARK    8  A    between atoms: _53  and  _55
REMARK                            x       y       z     vdW  Elec       q    Type
REMARK                         _______ _______ _______ _____ _____    ______ ____
ROOT
ATOM     10  C   UNL     1     -19.864   0.208  -1.408  0.00  0.00    +0.038 A 
ATOM     11  C   UNL     1     -19.537  -0.810  -0.476  0.00  0.00    +0.047 A 
ATOM     12  C   UNL     1     -20.320  -2.032  -0.390  0.00  0.00    +0.035 A 
ATOM     32  C   UNL     1     -21.430  -2.187  -1.271  0.00  0.00    +0.024 A 
ATOM     33  C   UNL     1     -21.777  -1.162  -2.224  0.00  0.00    +0.007 A 
ATOM     34  C   UNL     1     -21.010   0.047  -2.312  0.00  0.00    -0.029 A 
ATOM     35  C   UNL     1     -21.432   1.115  -3.348  0.00  0.00    +0.045 C 
ENDROOT
BRANCH  10   9
ATOM      4  C   UNL     1     -18.853   4.691  -0.023  0.00  0.00    +0.077 A 
ATOM      5  C   UNL     1     -20.004   4.750   0.831  0.00  0.00    +0.048 A 
ATOM      6  C   UNL     1     -20.835   3.608   0.880  0.00  0.00    +0.116 A 
ATOM      7  N   UNL     1     -20.527   2.495   0.127  0.00  0.00    -0.223 NA
ATOM      8  C   UNL     1     -19.410   2.472  -0.688  0.00  0.00    +0.220 A 
ATOM      9  N   UNL     1     -19.077   1.361  -1.447  0.00  0.00    -0.283 N 
ATOM     36  H   UNL     1     -18.249   1.387  -2.041  0.00  0.00    +0.155 HD
ATOM     37  N   UNL     1     -18.602   3.551  -0.753  0.00  0.00    -0.214 NA
BRANCH   4   3
ATOM      1  C   UNL     1     -17.299   8.265  -0.357  0.00  0.00    +0.020 A 
ATOM      2  C   UNL     1     -18.281   7.216  -0.204  0.00  0.00    +0.013 A 
ATOM      3  C   UNL     1     -17.878   5.816  -0.179  0.00  0.00    +0.019 A 
ATOM     38  C   UNL     1     -16.462   5.508  -0.312  0.00  0.00    +0.120 A 
ATOM     39  N   UNL     1     -15.539   6.539  -0.459  0.00  0.00    -0.263 NA
ATOM     40  C   UNL     1     -15.915   7.890  -0.486  0.00  0.00    +0.111 A 
ENDBRANCH   4   3
ENDBRANCH  10   9
BRANCH  12  13
ATOM     13  N   UNL     1     -20.040  -3.096   0.542  0.00  0.00    -0.281 N 
ATOM     14  C   UNL     1     -20.364  -3.157   1.887  0.00  0.00    +0.248 C 
ATOM     30  O   UNL     1     -20.758  -2.207   2.547  0.00  0.00    -0.270 OA
ATOM     31  H   UNL     1     -19.543  -3.903   0.164  0.00  0.00    +0.155 HD
BRANCH  14  15
ATOM     15  C   UNL     1     -20.215  -4.458   2.608  0.00  0.00    +0.037 A 
ATOM     16  C   UNL     1     -19.645  -4.519   3.956  0.00  0.00    +0.013 A 
ATOM     17  C   UNL     1     -19.497  -5.789   4.622  0.00  0.00    +0.005 A 
ATOM     18  C   UNL     1     -19.921  -7.009   3.940  0.00  0.00    -0.033 A 
ATOM     28  C   UNL     1     -20.488  -6.919   2.604  0.00  0.00    +0.005 A 
ATOM     29  C   UNL     1     -20.634  -5.676   1.948  0.00  0.00    +0.013 A 
BRANCH  18  19
ATOM     19  C   UNL     1     -19.781  -8.409   4.566  0.00  0.00    +0.119 C 
BRANCH  19  20
ATOM     20  N   UNL     1     -19.678  -9.569   3.631  0.00  0.00    -0.302 NA
ATOM     21  C   UNL     1     -20.856 -10.536   3.784  0.00  0.00    +0.066 C 
ATOM     22  C   UNL     1     -20.745 -11.731   2.783  0.00  0.00    -0.064 C 
ATOM     23  N   UNL     1     -19.416 -12.457   3.004  0.00  0.00    +0.379 N 
ATOM     24  C   UNL     1     -19.334 -13.616   2.104  0.00  0.00    -0.096 C 
ATOM     25  H   UNL     1     -19.411 -12.840   4.051  0.00  0.00    -0.082 HD
ATOM     26  C   UNL     1     -18.240 -11.502   2.856  0.00  0.00    -0.064 C 
ATOM     27  C   UNL     1     -18.376 -10.302   3.835  0.00  0.00    +0.066 C 
ENDBRANCH  19  20
ENDBRANCH  18  19
ENDBRANCH  14  15
ENDBRANCH  12  13
TORSDOF 6
ENDMDL
MODEL 3
REMARK VINA RESULT:      -7.5     24.548     28.268
REMARK  Name = C:\Users\Docking\Desktop\test protocol\1iep_ligandH.pdb
REMARK  8 active torsions:
REMARK  status: ('A' for Active; 'I' for Inactive)
REMARK    1  A    between atoms: _5  and  _11
REMARK    2  A    between atoms: _19  and  _21
REMARK    3  A    between atoms: _22  and  _66
REMARK    4  A    between atoms: _27  and  _30
REMARK    5  A    between atoms: _32  and  _33
REMARK    6  A    between atoms: _38  and  _43
REMARK    7  A    between atoms: _43  and  _46
REMARK    8  A    between atoms: _53  and  _55
REMARK                            x       y       z     vdW  Elec       q    Type
REMARK                         _______ _______ _______ _____ _____    ______ ____
ROOT
ATOM     10  C   UNL     1      -0.518  -1.141  -8.977  0.00  0.00    +0.038 A 
ATOM     11  C   UNL     1       0.041  -2.436  -8.826  0.00  0.00    +0.047 A 
ATOM     12  C   UNL     1      -0.770  -3.630  -9.002  0.00  0.00    +0.035 A 
ATOM     32  C   UNL     1      -2.147  -3.469  -9.335  0.00  0.00    +0.024 A 
ATOM     33  C   UNL     1      -2.731  -2.160  -9.491  0.00  0.00    +0.007 A 
ATOM     34  C   UNL     1      -1.937  -0.978  -9.316  0.00  0.00    -0.029 A 
ATOM     35  C   UNL     1      -2.618   0.399  -9.489  0.00  0.00    +0.045 C 
ENDROOT
BRANCH  10   9
ATOM      4  C   UNL     1       1.779   2.017  -6.185  0.00  0.00    +0.077 A 
ATOM      5  C   UNL     1       1.271   1.415  -4.985  0.00  0.00    +0.048 A 
ATOM      6  C   UNL     1       0.416   0.299  -5.131  0.00  0.00    +0.116 A 
ATOM      7  N   UNL     1       0.100  -0.171  -6.387  0.00  0.00    -0.223 NA
ATOM      8  C   UNL     1       0.605   0.433  -7.523  0.00  0.00    +0.220 A 
ATOM      9  N   UNL     1       0.307  -0.028  -8.796  0.00  0.00    -0.283 N 
ATOM     36  H   UNL     1       0.694   0.450  -9.609  0.00  0.00    +0.155 HD
ATOM     37  N   UNL     1       1.423   1.501  -7.411  0.00  0.00    -0.214 NA
BRANCH   4   3
ATOM      1  C   UNL     1       3.168   5.665  -5.942  0.00  0.00    +0.020 A 
ATOM      2  C   UNL     1       2.241   4.557  -5.920  0.00  0.00    +0.013 A 
ATOM      3  C   UNL     1       2.696   3.200  -6.195  0.00  0.00    +0.019 A 
ATOM     38  C   UNL     1       4.106   2.997  -6.491  0.00  0.00    +0.120 A 
ATOM     39  N   UNL     1       4.975   4.083  -6.507  0.00  0.00    -0.263 NA
ATOM     40  C   UNL     1       4.548   5.394  -6.245  0.00  0.00    +0.111 A 
ENDBRANCH   4   3
ENDBRANCH  10   9
BRANCH  12  13
ATOM     13  N   UNL     1      -0.260  -4.971  -8.854  0.00  0.00    -0.281 N 
ATOM     14  C   UNL     1      -0.001  -5.658  -7.680  0.00  0.00    +0.248 C 
ATOM     30  O   UNL     1       0.033  -5.145  -6.571  0.00  0.00    -0.270 OA
ATOM     31  H   UNL     1      -0.066  -5.474  -9.720  0.00  0.00    +0.155 HD
BRANCH  14  15
ATOM     15  C   UNL     1       0.275  -7.126  -7.748  0.00  0.00    +0.037 A 
ATOM     16  C   UNL     1       0.104  -7.986  -6.574  0.00  0.00    +0.013 A 
ATOM     17  C   UNL     1       0.393  -9.396  -6.663  0.00  0.00    +0.005 A 
ATOM     18  C   UNL     1       0.855  -9.954  -7.932  0.00  0.00    -0.033 A 
ATOM     28  C   UNL     1       1.011  -9.078  -9.081  0.00  0.00    +0.005 A 
ATOM     29  C   UNL     1       0.729  -7.696  -8.998  0.00  0.00    +0.013 A 
BRANCH  18  19
ATOM     19  C   UNL     1       1.207 -11.442  -8.112  0.00  0.00    +0.119 C 
BRANCH  19  20
ATOM     20  N   UNL     1       0.577 -12.160  -9.259  0.00  0.00    -0.302 NA
ATOM     21  C   UNL     1      -0.771 -12.780  -8.879  0.00  0.00    +0.066 C 
ATOM     22  C   UNL     1      -1.427 -13.507 -10.097  0.00  0.00    -0.064 C 
ATOM     23  N   UNL     1      -0.469 -14.577 -10.625  0.00  0.00    +0.379 N 
ATOM     24  C   UNL     1      -1.107 -15.302 -11.734  0.00  0.00    -0.096 C 
ATOM     25  H   UNL     1      -0.290 -15.306  -9.802  0.00  0.00    -0.082 HD
ATOM     26  C   UNL     1       0.874 -13.969 -11.004  0.00  0.00    -0.064 C 
ATOM     27  C   UNL     1       1.504 -13.224  -9.794  0.00  0.00    +0.066 C 
ENDBRANCH  19  20
ENDBRANCH  18  19
ENDBRANCH  14  15
ENDBRANCH  12  13
TORSDOF 6
ENDMDL
MODEL 4
REMARK VINA RESULT:      -7.5     23.615     25.864
REMARK  Name = C:\Users\Docking\Desktop\test protocol\1iep_ligandH.pdb
REMARK  8 active torsions:
REMARK  status: ('A' for Active; 'I' for Inactive)
REMARK    1  A    between atoms: _5  and  _11
REMARK    2  A    between atoms: _19  and  _21
REMARK    3  A    between atoms: _22  and  _66
REMARK    4  A    between atoms: _27  and  _30
REMARK    5  A    between atoms: _32  and  _33
REMARK    6  A    between atoms: _38  and  _43
REMARK    7  A    between atoms: _43  and  _46
REMARK    8  A    between atoms: _53  and  _55
REMARK                            x       y       z     vdW  Elec       q    Type
REMARK                         _______ _______ _______ _____ _____    ______ ____
ROOT
ATOM     10  C   UNL     1       3.699   9.126  -6.353  0.00  0.00    +0.038 A 
ATOM     11  C   UNL     1       3.494   7.759  -6.034  0.00  0.00    +0.047 A 
ATOM     12  C   UNL     1       3.519   6.733  -7.065  0.00  0.00    +0.035 A 
ATOM     32  C   UNL     1       3.757   7.135  -8.411  0.00  0.00    +0.024 A 
ATOM     33  C   UNL     1       3.967   8.520  -8.754  0.00  0.00    +0.007 A 
ATOM     34  C   UNL     1       3.941   9.536  -7.741  0.00  0.00    -0.029 A 
ATOM     35  C   UNL     1       4.165  11.006  -8.167  0.00  0.00    +0.045 C 
ENDROOT
BRANCH  10   9
ATOM      4  C   UNL     1       1.342  11.803  -3.142  0.00  0.00    +0.077 A 
ATOM      5  C   UNL     1       0.068  11.302  -3.570  0.00  0.00    +0.048 A 
ATOM      6  C   UNL     1       0.063  10.361  -4.625  0.00  0.00    +0.116 A 
ATOM      7  N   UNL     1       1.249   9.959  -5.200  0.00  0.00    -0.223 NA
ATOM      8  C   UNL     1       2.460  10.464  -4.764  0.00  0.00    +0.220 A 
ATOM      9  N   UNL     1       3.665  10.068  -5.323  0.00  0.00    -0.283 N 
ATOM     36  H   UNL     1       4.537  10.470  -4.978  0.00  0.00    +0.155 HD
ATOM     37  N   UNL     1       2.492  11.365  -3.760  0.00  0.00    -0.214 NA
BRANCH   4   3
ATOM      1  C   UNL     1       2.548  13.586   0.125  0.00  0.00    +0.020 A 
ATOM      2  C   UNL     1       2.420  12.591  -0.916  0.00  0.00    +0.013 A 
ATOM      3  C   UNL     1       1.513  12.800  -2.037  0.00  0.00    +0.019 A 
ATOM     38  C   UNL     1       0.744  14.035  -2.077  0.00  0.00    +0.120 A 
ATOM     39  N   UNL     1       0.887  14.973  -1.060  0.00  0.00    -0.263 NA
ATOM     40  C   UNL     1       1.755  14.783   0.025  0.00  0.00    +0.111 A 
ENDBRANCH   4   3
ENDBRANCH  10   9
BRANCH  12  13
ATOM     13  N   UNL     1       3.309   5.331  -6.802  0.00  0.00    -0.281 N 
ATOM     14  C   UNL     1       2.580   4.758  -5.773  0.00  0.00    +0.248 C 
ATOM     30  O   UNL     1       2.171   5.364  -4.794  0.00  0.00    -0.270 OA
ATOM     31  H   UNL     1       3.752   4.683  -7.453  0.00  0.00    +0.155 HD
BRANCH  14  15
ATOM     15  C   UNL     1       2.273   3.296  -5.833  0.00  0.00    +0.037 A 
ATOM     16  C   UNL     1       2.656   2.486  -6.993  0.00  0.00    +0.013 A 
ATOM     17  C   UNL     1       2.332   1.082  -7.033  0.00  0.00    +0.005 A 
ATOM     18  C   UNL     1       1.622   0.479  -5.908  0.00  0.00    -0.033 A 
ATOM     28  C   UNL     1       1.258   1.304  -4.769  0.00  0.00    +0.005 A 
ATOM     29  C   UNL     1       1.573   2.681  -4.726  0.00  0.00    +0.013 A 
BRANCH  18  19
ATOM     19  C   UNL     1       1.217  -1.007  -5.875  0.00  0.00    +0.119 C 
BRANCH  19  20
ATOM     20  N   UNL     1       0.493  -1.545  -7.066  0.00  0.00    -0.302 NA
ATOM     21  C   UNL     1      -0.973  -1.106  -7.093  0.00  0.00    +0.066 C 
ATOM     22  C   UNL     1      -1.710  -1.659  -8.357  0.00  0.00    -0.064 C 
ATOM     23  N   UNL     1      -1.601  -3.185  -8.380  0.00  0.00    +0.379 N 
ATOM     24  C   UNL     1      -2.341  -3.712  -9.535  0.00  0.00    -0.096 C 
ATOM     25  H   UNL     1      -2.092  -3.573  -7.457  0.00  0.00    -0.082 HD
ATOM     26  C   UNL     1      -0.146  -3.630  -8.350  0.00  0.00    -0.064 C 
ATOM     27  C   UNL     1       0.584  -3.051  -7.106  0.00  0.00    +0.066 C 
ENDBRANCH  19  20
ENDBRANCH  18  19
ENDBRANCH  14  15
ENDBRANCH  12  13
TORSDOF 6
ENDMDL
MODEL 5
REMARK VINA RESULT:      -7.4      8.188     10.306
REMARK  Name = C:\Users\Docking\Desktop\test protocol\1iep_ligandH.pdb
REMARK  8 active torsions:
REMARK  status: ('A' for Active; 'I' for Inactive)
REMARK    1  A    between atoms: _5  and  _11
REMARK    2  A    between atoms: _19  and  _21
REMARK    3  A    between atoms: _22  and  _66
REMARK    4  A    between atoms: _27  and  _30
REMARK    5  A    between atoms: _32  and  _33
REMARK    6  A    between atoms: _38  and  _43
REMARK    7  A    between atoms: _43  and  _46
REMARK    8  A    between atoms: _53  and  _55
REMARK                            x       y       z     vdW  Elec       q    Type
REMARK                         _______ _______ _______ _____ _____    ______ ____
ROOT
ATOM     10  C   UNL     1     -15.600  10.818   0.521  0.00  0.00    +0.038 A 
ATOM     11  C   UNL     1     -16.033   9.469   0.449  0.00  0.00    +0.047 A 
ATOM     12  C   UNL     1     -17.036   9.051  -0.518  0.00  0.00    +0.035 A 
ATOM     32  C   UNL     1     -17.575  10.034  -1.399  0.00  0.00    +0.024 A 
ATOM     33  C   UNL     1     -17.148  11.409  -1.339  0.00  0.00    +0.007 A 
ATOM     34  C   UNL     1     -16.160  11.828  -0.385  0.00  0.00    -0.029 A 
ATOM     35  C   UNL     1     -15.744  13.317  -0.361  0.00  0.00    +0.045 C 
ENDROOT
BRANCH  10   9
ATOM      4  C   UNL     1     -14.297  12.166   4.939  0.00  0.00    +0.077 A 
ATOM      5  C   UNL     1     -15.658  12.211   5.391  0.00  0.00    +0.048 A 
ATOM      6  C   UNL     1     -16.664  11.888   4.453  0.00  0.00    +0.116 A 
ATOM      7  N   UNL     1     -16.322  11.545   3.162  0.00  0.00    -0.223 NA
ATOM      8  C   UNL     1     -15.000  11.513   2.759  0.00  0.00    +0.220 A 
ATOM      9  N   UNL     1     -14.634  11.163   1.468  0.00  0.00    -0.283 N 
ATOM     36  H   UNL     1     -13.648  11.158   1.208  0.00  0.00    +0.155 HD
ATOM     37  N   UNL     1     -14.021  11.819   3.635  0.00  0.00    -0.214 NA
BRANCH   4   3
ATOM      1  C   UNL     1     -10.910  11.896   6.878  0.00  0.00    +0.020 A 
ATOM      2  C   UNL     1     -12.021  11.546   6.024  0.00  0.00    +0.013 A 
ATOM      3  C   UNL     1     -13.122  12.478   5.813  0.00  0.00    +0.019 A 
ATOM     38  C   UNL     1     -13.066  13.767   6.485  0.00  0.00    +0.120 A 
ATOM     39  N   UNL     1     -11.984  14.077   7.303  0.00  0.00    -0.263 NA
ATOM     40  C   UNL     1     -10.920  13.187   7.515  0.00  0.00    +0.111 A 
ENDBRANCH   4   3
ENDBRANCH  10   9
BRANCH  12  13
ATOM     13  N   UNL     1     -17.520   7.698  -0.633  0.00  0.00    -0.281 N 
ATOM     14  C   UNL     1     -18.623   7.133  -0.013  0.00  0.00    +0.248 C 
ATOM     30  O   UNL     1     -19.240   7.651   0.906  0.00  0.00    -0.270 OA
ATOM     31  H   UNL     1     -16.985   7.082  -1.245  0.00  0.00    +0.155 HD
BRANCH  14  15
ATOM     15  C   UNL     1     -19.100   5.793  -0.470  0.00  0.00    +0.037 A 
ATOM     16  C   UNL     1     -19.988   5.656  -1.628  0.00  0.00    +0.013 A 
ATOM     17  C   UNL     1     -20.447   4.353  -2.037  0.00  0.00    +0.005 A 
ATOM     18  C   UNL     1     -20.017   3.174  -1.289  0.00  0.00    -0.033 A 
ATOM     28  C   UNL     1     -19.132   3.338  -0.148  0.00  0.00    +0.005 A 
ATOM     29  C   UNL     1     -18.681   4.614   0.258  0.00  0.00    +0.013 A 
BRANCH  18  19
ATOM     19  C   UNL     1     -20.475   1.746  -1.642  0.00  0.00    +0.119 C 
BRANCH  19  20
ATOM     20  N   UNL     1     -20.454   1.359  -3.084  0.00  0.00    -0.302 NA
ATOM     21  C   UNL     1     -21.621   0.437  -3.448  0.00  0.00    +0.066 C 
ATOM     22  C   UNL     1     -21.597   0.060  -4.965  0.00  0.00    -0.064 C 
ATOM     23  N   UNL     1     -20.259  -0.602  -5.301  0.00  0.00    +0.379 N 
ATOM     24  C   UNL     1     -20.255  -1.011  -6.713  0.00  0.00    -0.096 C 
ATOM     25  H   UNL     1     -20.174  -1.525  -4.681  0.00  0.00    -0.082 HD
ATOM     26  C   UNL     1     -19.092   0.306  -4.939  0.00  0.00    -0.064 C 
ATOM     27  C   UNL     1     -19.143   0.699  -3.437  0.00  0.00    +0.066 C 
ENDBRANCH  19  20
ENDBRANCH  18  19
ENDBRANCH  14  15
ENDBRANCH  12  13
TORSDOF 6
ENDMDL
