MODEL 1
REMARK VINA RESULT:      -6.8      0.000      0.000
REMARK  Name = C:\Users\Docking\Desktop\test protocol\1iep_ligandH.pdb
REMARK  8 active torsions:
REMARK  status: ('A' for Active; 'I' for Inactive)
REMARK    1  A    between atoms: _5  and  _11
REMARK    2  A    between atoms: _19  and  _21
REMARK    3  A    between atoms: _22  and  _66
REMARK    4  A    between atoms: _27  and  _30
REMARK    5  A    between atoms: _32  and  _33
REMARK    6  A    between atoms: _38  and  _43
REMARK    7  A    between atoms: _43  and  _46
REMARK    8  A    between atoms: _53  and  _55
REMARK                            x       y       z     vdW  Elec       q    Type
REMARK                         _______ _______ _______ _____ _____    ______ ____
ROOT
ATOM     10  C   UNL     1      89.132  16.079  13.544  0.00  0.00    +0.038 A 
ATOM     11  C   UNL     1      87.865  15.695  13.036  0.00  0.00    +0.047 A 
ATOM     12  C   UNL     1      87.560  15.798  11.617  0.00  0.00    +0.035 A 
ATOM     32  C   UNL     1      88.572  16.294  10.743  0.00  0.00    +0.024 A 
ATOM     33  C   UNL     1      89.865  16.690  11.243  0.00  0.00    +0.007 A 
ATOM     34  C   UNL     1      90.170  16.593  12.642  0.00  0.00    -0.029 A 
ATOM     35  C   UNL     1      91.571  17.038  13.123  0.00  0.00    +0.045 C 
ENDROOT
BRANCH  10   9
ATOM      4  C   UNL     1      88.822  17.699  18.051  0.00  0.00    +0.077 A 
ATOM      5  C   UNL     1      88.153  18.898  17.637  0.00  0.00    +0.048 A 
ATOM      6  C   UNL     1      87.914  19.063  16.254  0.00  0.00    +0.116 A 
ATOM      7  N   UNL     1      88.318  18.094  15.361  0.00  0.00    -0.223 NA
ATOM      8  C   UNL     1      88.962  16.950  15.794  0.00  0.00    +0.220 A 
ATOM      9  N   UNL     1      89.370  15.959  14.915  0.00  0.00    -0.283 N 
ATOM     36  H   UNL     1      89.849  15.133  15.273  0.00  0.00    +0.155 HD
ATOM     37  N   UNL     1      89.204  16.770  17.109  0.00  0.00    -0.214 NA
BRANCH   4   3
ATOM      1  C   UNL     1      90.176  17.924  21.714  0.00  0.00    +0.020 A 
ATOM      2  C   UNL     1      89.893  18.281  20.343  0.00  0.00    +0.013 A 
ATOM      3  C   UNL     1      89.143  17.379  19.478  0.00  0.00    +0.019 A 
ATOM     38  C   UNL     1      88.690  16.113  20.036  0.00  0.00    +0.120 A 
ATOM     39  N   UNL     1      88.979  15.796  21.359  0.00  0.00    -0.263 NA
ATOM     40  C   UNL     1      89.701  16.655  22.201  0.00  0.00    +0.111 A 
ENDBRANCH   4   3
ENDBRANCH  10   9
BRANCH  12  13
ATOM     13  N   UNL     1      86.289  15.431  11.044  0.00  0.00    -0.281 N 
ATOM     14  C   UNL     1      85.077  16.090  11.168  0.00  0.00    +0.248 C 
ATOM     30  O   UNL     1      84.856  16.985  11.970  0.00  0.00    -0.270 OA
ATOM     31  H   UNL     1      86.282  14.582  10.479  0.00  0.00    +0.155 HD
BRANCH  14  15
ATOM     15  C   UNL     1      83.942  15.687  10.282  0.00  0.00    +0.037 A 
ATOM     16  C   UNL     1      82.587  16.197  10.504  0.00  0.00    +0.013 A 
ATOM     17  C   UNL     1      81.507  15.780   9.646  0.00  0.00    +0.005 A 
ATOM     18  C   UNL     1      81.780  14.847   8.555  0.00  0.00    -0.033 A 
ATOM     28  C   UNL     1      83.135  14.361   8.354  0.00  0.00    +0.005 A 
ATOM     29  C   UNL     1      84.195  14.767   9.194  0.00  0.00    +0.013 A 
BRANCH  18  19
ATOM     19  C   UNL     1      80.685  14.331   7.602  0.00  0.00    +0.119 C 
BRANCH  19  20
ATOM     20  N   UNL     1      80.145  15.293   6.596  0.00  0.00    -0.302 NA
ATOM     21  C   UNL     1      81.182  16.347   6.195  0.00  0.00    +0.066 C 
ATOM     22  C   UNL     1      80.608  17.331   5.124  0.00  0.00    -0.064 C 
ATOM     23  N   UNL     1      79.344  17.996   5.673  0.00  0.00    +0.379 N 
ATOM     24  C   UNL     1      78.835  18.966   4.692  0.00  0.00    -0.096 C 
ATOM     25  H   UNL     1      79.631  18.562   6.590  0.00  0.00    -0.082 HD
ATOM     26  C   UNL     1      78.309  16.956   6.077  0.00  0.00    -0.064 C 
ATOM     27  C   UNL     1      78.899  15.965   7.119  0.00  0.00    +0.066 C 
ENDBRANCH  19  20
ENDBRANCH  18  19
ENDBRANCH  14  15
ENDBRANCH  12  13
TORSDOF 6
ENDMDL
MODEL 2
REMARK VINA RESULT:      -6.6     17.937     21.390
REMARK  Name = C:\Users\Docking\Desktop\test protocol\1iep_ligandH.pdb
REMARK  8 active torsions:
REMARK  status: ('A' for Active; 'I' for Inactive)
REMARK    1  A    between atoms: _5  and  _11
REMARK    2  A    between atoms: _19  and  _21
REMARK    3  A    between atoms: _22  and  _66
REMARK    4  A    between atoms: _27  and  _30
REMARK    5  A    between atoms: _32  and  _33
REMARK    6  A    between atoms: _38  and  _43
REMARK    7  A    between atoms: _43  and  _46
REMARK    8  A    between atoms: _53  and  _55
REMARK                            x       y       z     vdW  Elec       q    Type
REMARK                         _______ _______ _______ _____ _____    ______ ____
ROOT
ATOM     10  C   UNL     1      68.749  13.945  17.303  0.00  0.00    +0.038 A 
ATOM     11  C   UNL     1      68.066  12.720  17.514  0.00  0.00    +0.047 A 
ATOM     12  C   UNL     1      66.643  12.595  17.240  0.00  0.00    +0.035 A 
ATOM     32  C   UNL     1      65.947  13.738  16.750  0.00  0.00    +0.024 A 
ATOM     33  C   UNL     1      66.625  14.992  16.531  0.00  0.00    +0.007 A 
ATOM     34  C   UNL     1      68.028  15.121  16.801  0.00  0.00    -0.029 A 
ATOM     35  C   UNL     1      68.703  16.491  16.554  0.00  0.00    +0.045 C 
ENDROOT
BRANCH  10   9
ATOM      4  C   UNL     1      73.350  13.304  16.097  0.00  0.00    +0.077 A 
ATOM      5  C   UNL     1      73.001  12.772  14.811  0.00  0.00    +0.048 A 
ATOM      6  C   UNL     1      71.625  12.673  14.502  0.00  0.00    +0.116 A 
ATOM      7  N   UNL     1      70.679  13.080  15.418  0.00  0.00    -0.223 NA
ATOM      8  C   UNL     1      71.051  13.587  16.649  0.00  0.00    +0.220 A 
ATOM      9  N   UNL     1      70.116  14.009  17.583  0.00  0.00    -0.283 N 
ATOM     36  H   UNL     1      70.430  14.370  18.483  0.00  0.00    +0.155 HD
ATOM     37  N   UNL     1      72.357  13.689  16.969  0.00  0.00    -0.214 NA
BRANCH   4   3
ATOM      1  C   UNL     1      76.477  14.160  18.285  0.00  0.00    +0.020 A 
ATOM      2  C   UNL     1      75.099  14.018  17.878  0.00  0.00    +0.013 A 
ATOM      3  C   UNL     1      74.761  13.473  16.568  0.00  0.00    +0.019 A 
ATOM     38  C   UNL     1      75.851  13.078  15.689  0.00  0.00    +0.120 A 
ATOM     39  N   UNL     1      77.169  13.229  16.107  0.00  0.00    -0.263 NA
ATOM     40  C   UNL     1      77.506  13.753  17.364  0.00  0.00    +0.111 A 
ENDBRANCH   4   3
ENDBRANCH  10   9
BRANCH  12  13
ATOM     13  N   UNL     1      65.895  11.380  17.443  0.00  0.00    -0.281 N 
ATOM     14  C   UNL     1      65.368  10.891  18.627  0.00  0.00    +0.248 C 
ATOM     30  O   UNL     1      65.646  11.321  19.737  0.00  0.00    -0.270 OA
ATOM     31  H   UNL     1      65.733  10.810  16.612  0.00  0.00    +0.155 HD
BRANCH  14  15
ATOM     15  C   UNL     1      64.404   9.750  18.572  0.00  0.00    +0.037 A 
ATOM     16  C   UNL     1      64.525   8.701  17.556  0.00  0.00    +0.013 A 
ATOM     17  C   UNL     1      63.572   7.620  17.515  0.00  0.00    +0.005 A 
ATOM     18  C   UNL     1      62.490   7.583  18.496  0.00  0.00    -0.033 A 
ATOM     28  C   UNL     1      62.397   8.633  19.496  0.00  0.00    +0.005 A 
ATOM     29  C   UNL     1      63.328   9.694  19.539  0.00  0.00    +0.013 A 
BRANCH  18  19
ATOM     19  C   UNL     1      61.416   6.479  18.514  0.00  0.00    +0.119 C 
BRANCH  19  20
ATOM     20  N   UNL     1      61.807   5.153  19.080  0.00  0.00    -0.302 NA
ATOM     21  C   UNL     1      60.688   4.117  18.942  0.00  0.00    +0.066 C 
ATOM     22  C   UNL     1      61.122   2.731  19.519  0.00  0.00    -0.064 C 
ATOM     23  N   UNL     1      61.530   2.896  20.984  0.00  0.00    +0.379 N 
ATOM     24  C   UNL     1      61.883   1.584  21.546  0.00  0.00    -0.096 C 
ATOM     25  H   UNL     1      60.642   3.275  21.541  0.00  0.00    -0.082 HD
ATOM     26  C   UNL     1      62.641   3.926  21.130  0.00  0.00    -0.064 C 
ATOM     27  C   UNL     1      62.210   5.293  20.527  0.00  0.00    +0.066 C 
ENDBRANCH  19  20
ENDBRANCH  18  19
ENDBRANCH  14  15
ENDBRANCH  12  13
TORSDOF 6
ENDMDL
MODEL 3
REMARK VINA RESULT:      -6.3     37.061     40.223
REMARK  Name = C:\Users\Docking\Desktop\test protocol\1iep_ligandH.pdb
REMARK  8 active torsions:
REMARK  status: ('A' for Active; 'I' for Inactive)
REMARK    1  A    between atoms: _5  and  _11
REMARK    2  A    between atoms: _19  and  _21
REMARK    3  A    between atoms: _22  and  _66
REMARK    4  A    between atoms: _27  and  _30
REMARK    5  A    between atoms: _32  and  _33
REMARK    6  A    between atoms: _38  and  _43
REMARK    7  A    between atoms: _43  and  _46
REMARK    8  A    between atoms: _53  and  _55
REMARK                            x       y       z     vdW  Elec       q    Type
REMARK                         _______ _______ _______ _____ _____    ______ ____
ROOT
ATOM     10  C   UNL     1      63.693 -13.281   0.974  0.00  0.00    +0.038 A 
ATOM     11  C   UNL     1      63.953 -13.326   2.367  0.00  0.00    +0.047 A 
ATOM     12  C   UNL     1      64.350 -14.564   3.019  0.00  0.00    +0.035 A 
ATOM     32  C   UNL     1      64.476 -15.738   2.220  0.00  0.00    +0.024 A 
ATOM     33  C   UNL     1      64.216 -15.710   0.802  0.00  0.00    +0.007 A 
ATOM     34  C   UNL     1      63.821 -14.492   0.154  0.00  0.00    -0.029 A 
ATOM     35  C   UNL     1      63.548 -14.522  -1.368  0.00  0.00    +0.045 C 
ENDROOT
BRANCH  10   9
ATOM      4  C   UNL     1      60.387 -10.020  -0.240  0.00  0.00    +0.077 A 
ATOM      5  C   UNL     1      59.319 -10.819   0.289  0.00  0.00    +0.048 A 
ATOM      6  C   UNL     1      59.663 -12.066   0.859  0.00  0.00    +0.116 A 
ATOM      7  N   UNL     1      60.979 -12.473   0.892  0.00  0.00    -0.223 NA
ATOM      8  C   UNL     1      61.984 -11.679   0.371  0.00  0.00    +0.220 A 
ATOM      9  N   UNL     1      63.315 -12.065   0.400  0.00  0.00    -0.283 N 
ATOM     36  H   UNL     1      64.026 -11.454  -0.002  0.00  0.00    +0.155 HD
ATOM     37  N   UNL     1      61.682 -10.485  -0.180  0.00  0.00    -0.214 NA
BRANCH   4   3
ATOM      1  C   UNL     1      58.929  -6.509  -1.158  0.00  0.00    +0.020 A 
ATOM      2  C   UNL     1      59.079  -7.796  -0.519  0.00  0.00    +0.013 A 
ATOM      3  C   UNL     1      60.184  -8.678  -0.871  0.00  0.00    +0.019 A 
ATOM     38  C   UNL     1      61.128  -8.224  -1.882  0.00  0.00    +0.120 A 
ATOM     39  N   UNL     1      60.957  -6.981  -2.482  0.00  0.00    -0.263 NA
ATOM     40  C   UNL     1      59.897  -6.124  -2.152  0.00  0.00    +0.111 A 
ENDBRANCH   4   3
ENDBRANCH  10   9
BRANCH  12  13
ATOM     13  N   UNL     1      64.619 -14.673   4.431  0.00  0.00    -0.281 N 
ATOM     14  C   UNL     1      63.704 -14.749   5.469  0.00  0.00    +0.248 C 
ATOM     30  O   UNL     1      62.509 -14.519   5.355  0.00  0.00    -0.270 OA
ATOM     31  H   UNL     1      65.603 -14.697   4.699  0.00  0.00    +0.155 HD
BRANCH  14  15
ATOM     15  C   UNL     1      64.189 -15.120   6.833  0.00  0.00    +0.037 A 
ATOM     16  C   UNL     1      63.430 -14.759   8.033  0.00  0.00    +0.013 A 
ATOM     17  C   UNL     1      63.928 -15.114   9.338  0.00  0.00    +0.005 A 
ATOM     18  C   UNL     1      65.193 -15.837   9.449  0.00  0.00    -0.033 A 
ATOM     28  C   UNL     1      65.923 -16.187   8.242  0.00  0.00    +0.005 A 
ATOM     29  C   UNL     1      65.438 -15.839   6.961  0.00  0.00    +0.013 A 
BRANCH  18  19
ATOM     19  C   UNL     1      65.811 -16.238  10.802  0.00  0.00    +0.119 C 
BRANCH  19  20
ATOM     20  N   UNL     1      67.106 -16.982  10.768  0.00  0.00    -0.302 NA
ATOM     21  C   UNL     1      66.930 -18.457  11.143  0.00  0.00    +0.066 C 
ATOM     22  C   UNL     1      68.290 -19.226  11.081  0.00  0.00    -0.064 C 
ATOM     23  N   UNL     1      69.299 -18.547  12.009  0.00  0.00    +0.379 N 
ATOM     24  C   UNL     1      70.561 -19.302  11.997  0.00  0.00    -0.096 C 
ATOM     25  H   UNL     1      68.889 -18.591  13.044  0.00  0.00    -0.082 HD
ATOM     26  C   UNL     1      69.478 -17.080  11.645  0.00  0.00    -0.064 C 
ATOM     27  C   UNL     1      68.116 -16.332  11.681  0.00  0.00    +0.066 C 
ENDBRANCH  19  20
ENDBRANCH  18  19
ENDBRANCH  14  15
ENDBRANCH  12  13
TORSDOF 6
ENDMDL
MODEL 4
REMARK VINA RESULT:      -6.3     29.744     31.855
REMARK  Name = C:\Users\Docking\Desktop\test protocol\1iep_ligandH.pdb
REMARK  8 active torsions:
REMARK  status: ('A' for Active; 'I' for Inactive)
REMARK    1  A    between atoms: _5  and  _11
REMARK    2  A    between atoms: _19  and  _21
REMARK    3  A    between atoms: _22  and  _66
REMARK    4  A    between atoms: _27  and  _30
REMARK    5  A    between atoms: _32  and  _33
REMARK    6  A    between atoms: _38  and  _43
REMARK    7  A    between atoms: _43  and  _46
REMARK    8  A    between atoms: _53  and  _55
REMARK                            x       y       z     vdW  Elec       q    Type
REMARK                         _______ _______ _______ _____ _____    ______ ____
ROOT
ATOM     10  C   UNL     1      69.585  -6.540  22.729  0.00  0.00    +0.038 A 
ATOM     11  C   UNL     1      69.396  -7.620  21.830  0.00  0.00    +0.047 A 
ATOM     12  C   UNL     1      68.135  -8.342  21.776  0.00  0.00    +0.035 A 
ATOM     32  C   UNL     1      67.085  -7.935  22.651  0.00  0.00    +0.024 A 
ATOM     33  C   UNL     1      67.261  -6.840  23.572  0.00  0.00    +0.007 A 
ATOM     34  C   UNL     1      68.504  -6.126  23.631  0.00  0.00    -0.029 A 
ATOM     35  C   UNL     1      68.638  -4.964  24.643  0.00  0.00    +0.045 C 
ENDROOT
BRANCH  10   9
ATOM      4  C   UNL     1      74.005  -5.854  24.471  0.00  0.00    +0.077 A 
ATOM      5  C   UNL     1      73.836  -6.876  25.464  0.00  0.00    +0.048 A 
ATOM      6  C   UNL     1      72.594  -7.549  25.497  0.00  0.00    +0.116 A 
ATOM      7  N   UNL     1      71.603  -7.217  24.600  0.00  0.00    -0.223 NA
ATOM      8  C   UNL     1      71.798  -6.226  23.656  0.00  0.00    +0.220 A 
ATOM      9  N   UNL     1      70.817  -5.881  22.738  0.00  0.00    -0.283 N 
ATOM     36  H   UNL     1      70.997  -5.139  22.062  0.00  0.00    +0.155 HD
ATOM     37  N   UNL     1      72.974  -5.567  23.604  0.00  0.00    -0.214 NA
BRANCH   4   3
ATOM      1  C   UNL     1      77.737  -4.847  23.869  0.00  0.00    +0.020 A 
ATOM      2  C   UNL     1      76.554  -5.664  24.019  0.00  0.00    +0.013 A 
ATOM      3  C   UNL     1      75.261  -5.056  24.307  0.00  0.00    +0.019 A 
ATOM     38  C   UNL     1      75.198  -3.608  24.438  0.00  0.00    +0.120 A 
ATOM     39  N   UNL     1      76.354  -2.848  24.290  0.00  0.00    -0.263 NA
ATOM     40  C   UNL     1      77.604  -3.422  24.015  0.00  0.00    +0.111 A 
ENDBRANCH   4   3
ENDBRANCH  10   9
BRANCH  12  13
ATOM     13  N   UNL     1      67.887  -9.452  20.889  0.00  0.00    -0.281 N 
ATOM     14  C   UNL     1      68.293  -9.597  19.573  0.00  0.00    +0.248 C 
ATOM     30  O   UNL     1      68.751  -8.695  18.887  0.00  0.00    -0.270 OA
ATOM     31  H   UNL     1      67.347 -10.225  21.280  0.00  0.00    +0.155 HD
BRANCH  14  15
ATOM     15  C   UNL     1      68.156 -10.934  18.919  0.00  0.00    +0.037 A 
ATOM     16  C   UNL     1      68.625 -11.161  17.549  0.00  0.00    +0.013 A 
ATOM     17  C   UNL     1      68.466 -12.456  16.936  0.00  0.00    +0.005 A 
ATOM     18  C   UNL     1      67.836 -13.535  17.693  0.00  0.00    -0.033 A 
ATOM     28  C   UNL     1      67.386 -13.284  19.052  0.00  0.00    +0.005 A 
ATOM     29  C   UNL     1      67.539 -12.016  19.656  0.00  0.00    +0.013 A 
BRANCH  18  19
ATOM     19  C   UNL     1      67.607 -14.942  17.111  0.00  0.00    +0.119 C 
BRANCH  19  20
ATOM     20  N   UNL     1      68.405 -15.323  15.908  0.00  0.00    -0.302 NA
ATOM     21  C   UNL     1      67.531 -15.935  14.809  0.00  0.00    +0.066 C 
ATOM     22  C   UNL     1      68.378 -16.307  13.549  0.00  0.00    -0.064 C 
ATOM     23  N   UNL     1      69.494 -17.272  13.954  0.00  0.00    +0.379 N 
ATOM     24  C   UNL     1      70.257 -17.668  12.762  0.00  0.00    -0.096 C 
ATOM     25  H   UNL     1      69.014 -18.188  14.369  0.00  0.00    -0.082 HD
ATOM     26  C   UNL     1      70.366 -16.672  15.048  0.00  0.00    -0.064 C 
ATOM     27  C   UNL     1      69.510 -16.279  16.284  0.00  0.00    +0.066 C 
ENDBRANCH  19  20
ENDBRANCH  18  19
ENDBRANCH  14  15
ENDBRANCH  12  13
TORSDOF 6
ENDMDL
MODEL 5
REMARK VINA RESULT:      -6.2     31.280     36.471
REMARK  Name = C:\Users\Docking\Desktop\test protocol\1iep_ligandH.pdb
REMARK  8 active torsions:
REMARK  status: ('A' for Active; 'I' for Inactive)
REMARK    1  A    between atoms: _5  and  _11
REMARK    2  A    between atoms: _19  and  _21
REMARK    3  A    between atoms: _22  and  _66
REMARK    4  A    between atoms: _27  and  _30
REMARK    5  A    between atoms: _32  and  _33
REMARK    6  A    between atoms: _38  and  _43
REMARK    7  A    between atoms: _43  and  _46
REMARK    8  A    between atoms: _53  and  _55
REMARK                            x       y       z     vdW  Elec       q    Type
REMARK                         _______ _______ _______ _____ _____    ______ ____
ROOT
ATOM     10  C   UNL     1      56.896  -3.170   8.779  0.00  0.00    +0.038 A 
ATOM     11  C   UNL     1      57.155  -3.982   7.645  0.00  0.00    +0.047 A 
ATOM     12  C   UNL     1      56.122  -4.245   6.655  0.00  0.00    +0.035 A 
ATOM     32  C   UNL     1      54.836  -3.662   6.850  0.00  0.00    +0.024 A 
ATOM     33  C   UNL     1      54.555  -2.834   7.997  0.00  0.00    +0.007 A 
ATOM     34  C   UNL     1      55.570  -2.574   8.978  0.00  0.00    -0.029 A 
ATOM     35  C   UNL     1      55.210  -1.685  10.191  0.00  0.00    +0.045 C 
ENDROOT
BRANCH  10   9
ATOM      4  C   UNL     1      59.354  -4.325  12.736  0.00  0.00    +0.077 A 
ATOM      5  C   UNL     1      58.500  -5.444  13.011  0.00  0.00    +0.048 A 
ATOM      6  C   UNL     1      57.435  -5.684  12.114  0.00  0.00    +0.116 A 
ATOM      7  N   UNL     1      57.248  -4.860  11.025  0.00  0.00    -0.223 NA
ATOM      8  C   UNL     1      58.090  -3.788  10.790  0.00  0.00    +0.220 A 
ATOM      9  N   UNL     1      57.925  -2.951   9.697  0.00  0.00    -0.283 N 
ATOM     36  H   UNL     1      58.563  -2.166   9.563  0.00  0.00    +0.155 HD
ATOM     37  N   UNL     1      59.113  -3.537  11.633  0.00  0.00    -0.214 NA
BRANCH   4   3
ATOM      1  C   UNL     1      61.778  -3.911  15.778  0.00  0.00    +0.020 A 
ATOM      2  C   UNL     1      60.626  -4.303  14.998  0.00  0.00    +0.013 A 
ATOM      3  C   UNL     1      60.524  -3.944  13.589  0.00  0.00    +0.019 A 
ATOM     38  C   UNL     1      61.613  -3.184  12.995  0.00  0.00    +0.120 A 
ATOM     39  N   UNL     1      62.708  -2.819  13.771  0.00  0.00    -0.263 NA
ATOM     40  C   UNL     1      62.817  -3.157  15.128  0.00  0.00    +0.111 A 
ENDBRANCH   4   3
ENDBRANCH  10   9
BRANCH  12  13
ATOM     13  N   UNL     1      56.324  -5.068   5.489  0.00  0.00    -0.281 N 
ATOM     14  C   UNL     1      56.016  -6.409   5.329  0.00  0.00    +0.248 C 
ATOM     30  O   UNL     1      55.714  -7.162   6.243  0.00  0.00    -0.270 OA
ATOM     31  H   UNL     1      56.746  -4.606   4.683  0.00  0.00    +0.155 HD
BRANCH  14  15
ATOM     15  C   UNL     1      56.065  -7.003   3.958  0.00  0.00    +0.037 A 
ATOM     16  C   UNL     1      56.082  -8.454   3.759  0.00  0.00    +0.013 A 
ATOM     17  C   UNL     1      56.146  -9.001   2.427  0.00  0.00    +0.005 A 
ATOM     18  C   UNL     1      56.193  -8.094   1.282  0.00  0.00    -0.033 A 
ATOM     28  C   UNL     1      56.170  -6.658   1.509  0.00  0.00    +0.005 A 
ATOM     29  C   UNL     1      56.108  -6.119   2.813  0.00  0.00    +0.013 A 
BRANCH  18  19
ATOM     19  C   UNL     1      56.284  -8.588  -0.173  0.00  0.00    +0.119 C 
BRANCH  19  20
ATOM     20  N   UNL     1      57.465  -8.145  -0.974  0.00  0.00    -0.302 NA
ATOM     21  C   UNL     1      57.352  -8.561  -2.443  0.00  0.00    +0.066 C 
ATOM     22  C   UNL     1      58.585  -8.070  -3.270  0.00  0.00    -0.064 C 
ATOM     23  N   UNL     1      59.867  -8.624  -2.646  0.00  0.00    +0.379 N 
ATOM     24  C   UNL     1      61.023  -8.212  -3.455  0.00  0.00    -0.096 C 
ATOM     25  H   UNL     1      59.807  -9.737  -2.684  0.00  0.00    -0.082 HD
ATOM     26  C   UNL     1      59.986  -8.217  -1.185  0.00  0.00    -0.064 C 
ATOM     27  C   UNL     1      58.742  -8.684  -0.378  0.00  0.00    +0.066 C 
ENDBRANCH  19  20
ENDBRANCH  18  19
ENDBRANCH  14  15
ENDBRANCH  12  13
TORSDOF 6
ENDMDL
