MODEL 1
REMARK VINA RESULT:      -8.6      0.000      0.000
REMARK  Name = C:\Users\Docking\Desktop\test protocol\1iep_ligandH.pdb
REMARK  8 active torsions:
REMARK  status: ('A' for Active; 'I' for Inactive)
REMARK    1  A    between atoms: _5  and  _11
REMARK    2  A    between atoms: _19  and  _21
REMARK    3  A    between atoms: _22  and  _66
REMARK    4  A    between atoms: _27  and  _30
REMARK    5  A    between atoms: _32  and  _33
REMARK    6  A    between atoms: _38  and  _43
REMARK    7  A    between atoms: _43  and  _46
REMARK    8  A    between atoms: _53  and  _55
REMARK                            x       y       z     vdW  Elec       q    Type
REMARK                         _______ _______ _______ _____ _____    ______ ____
ROOT
ATOM     10  C   UNL     1      16.493  -8.195  61.138  0.00  0.00    +0.038 A 
ATOM     11  C   UNL     1      15.653  -7.390  60.327  0.00  0.00    +0.047 A 
ATOM     12  C   UNL     1      14.366  -6.918  60.814  0.00  0.00    +0.035 A 
ATOM     32  C   UNL     1      13.967  -7.283  62.133  0.00  0.00    +0.024 A 
ATOM     33  C   UNL     1      14.809  -8.101  62.970  0.00  0.00    +0.007 A 
ATOM     34  C   UNL     1      16.078  -8.572  62.495  0.00  0.00    -0.029 A 
ATOM     35  C   UNL     1      16.936  -9.452  63.434  0.00  0.00    +0.045 C 
ENDROOT
BRANCH  10   9
ATOM      4  C   UNL     1      19.255 -11.433  58.919  0.00  0.00    +0.077 A 
ATOM      5  C   UNL     1      18.172 -12.366  58.805  0.00  0.00    +0.048 A 
ATOM      6  C   UNL     1      16.922 -11.978  59.337  0.00  0.00    +0.116 A 
ATOM      7  N   UNL     1      16.778 -10.745  59.935  0.00  0.00    -0.223 NA
ATOM      8  C   UNL     1      17.843  -9.869  60.030  0.00  0.00    +0.220 A 
ATOM      9  N   UNL     1      17.719  -8.621  60.620  0.00  0.00    -0.283 N 
ATOM     36  H   UNL     1      18.531  -8.007  60.677  0.00  0.00    +0.155 HD
ATOM     37  N   UNL     1      19.048 -10.217  59.531  0.00  0.00    -0.214 NA
BRANCH   4   3
ATOM      1  C   UNL     1      23.005 -10.995  57.896  0.00  0.00    +0.020 A 
ATOM      2  C   UNL     1      21.689 -10.689  58.405  0.00  0.00    +0.013 A 
ATOM      3  C   UNL     1      20.636 -11.697  58.402  0.00  0.00    +0.019 A 
ATOM     38  C   UNL     1      20.951 -13.015  57.873  0.00  0.00    +0.120 A 
ATOM     39  N   UNL     1      22.227 -13.281  57.388  0.00  0.00    -0.263 NA
ATOM     40  C   UNL     1      23.248 -12.319  57.384  0.00  0.00    +0.111 A 
ENDBRANCH   4   3
ENDBRANCH  10   9
BRANCH  12  13
ATOM     13  N   UNL     1      13.466  -6.105  60.033  0.00  0.00    -0.281 N 
ATOM     14  C   UNL     1      12.957  -4.856  60.348  0.00  0.00    +0.248 C 
ATOM     30  O   UNL     1      13.029  -4.339  61.453  0.00  0.00    -0.270 OA
ATOM     31  H   UNL     1      13.169  -6.498  59.140  0.00  0.00    +0.155 HD
BRANCH  14  15
ATOM     15  C   UNL     1      12.252  -4.075  59.287  0.00  0.00    +0.037 A 
ATOM     16  C   UNL     1      11.886  -4.689  58.008  0.00  0.00    +0.013 A 
ATOM     17  C   UNL     1      11.222  -3.909  56.994  0.00  0.00    +0.005 A 
ATOM     18  C   UNL     1      10.918  -2.504  57.257  0.00  0.00    -0.033 A 
ATOM     28  C   UNL     1      11.287  -1.922  58.536  0.00  0.00    +0.005 A 
ATOM     29  C   UNL     1      11.939  -2.683  59.532  0.00  0.00    +0.013 A 
BRANCH  18  19
ATOM     19  C   UNL     1      10.231  -1.590  56.225  0.00  0.00    +0.119 C 
BRANCH  19  20
ATOM     20  N   UNL     1       9.142  -0.697  56.721  0.00  0.00    -0.302 NA
ATOM     21  C   UNL     1       7.755  -1.311  56.513  0.00  0.00    +0.066 C 
ATOM     22  C   UNL     1       6.629  -0.373  57.059  0.00  0.00    -0.064 C 
ATOM     23  N   UNL     1       6.727   0.989  56.370  0.00  0.00    +0.379 N 
ATOM     24  C   UNL     1       5.634   1.855  56.838  0.00  0.00    -0.096 C 
ATOM     25  H   UNL     1       6.585   0.826  55.276  0.00  0.00    -0.082 HD
ATOM     26  C   UNL     1       8.104   1.606  56.570  0.00  0.00    -0.064 C 
ATOM     27  C   UNL     1       9.217   0.653  56.051  0.00  0.00    +0.066 C 
ENDBRANCH  19  20
ENDBRANCH  18  19
ENDBRANCH  14  15
ENDBRANCH  12  13
TORSDOF 6
ENDMDL
MODEL 2
REMARK VINA RESULT:      -8.5     21.195     25.321
REMARK  Name = C:\Users\Docking\Desktop\test protocol\1iep_ligandH.pdb
REMARK  8 active torsions:
REMARK  status: ('A' for Active; 'I' for Inactive)
REMARK    1  A    between atoms: _5  and  _11
REMARK    2  A    between atoms: _19  and  _21
REMARK    3  A    between atoms: _22  and  _66
REMARK    4  A    between atoms: _27  and  _30
REMARK    5  A    between atoms: _32  and  _33
REMARK    6  A    between atoms: _38  and  _43
REMARK    7  A    between atoms: _43  and  _46
REMARK    8  A    between atoms: _53  and  _55
REMARK                            x       y       z     vdW  Elec       q    Type
REMARK                         _______ _______ _______ _____ _____    ______ ____
ROOT
ATOM     10  C   UNL     1      -2.553  -4.890  43.143  0.00  0.00    +0.038 A 
ATOM     11  C   UNL     1      -3.605  -4.646  44.062  0.00  0.00    +0.047 A 
ATOM     12  C   UNL     1      -4.890  -5.316  43.930  0.00  0.00    +0.035 A 
ATOM     32  C   UNL     1      -5.067  -6.230  42.851  0.00  0.00    +0.024 A 
ATOM     33  C   UNL     1      -4.009  -6.489  41.907  0.00  0.00    +0.007 A 
ATOM     34  C   UNL     1      -2.740  -5.829  42.031  0.00  0.00    -0.029 A 
ATOM     35  C   UNL     1      -1.644  -6.140  40.986  0.00  0.00    +0.045 C 
ENDROOT
BRANCH  10   9
ATOM      4  C   UNL     1       0.498  -1.328  42.124  0.00  0.00    +0.077 A 
ATOM      5  C   UNL     1      -0.387  -0.771  41.142  0.00  0.00    +0.048 A 
ATOM      6  C   UNL     1      -1.615  -1.435  40.925  0.00  0.00    +0.116 A 
ATOM      7  N   UNL     1      -1.924  -2.571  41.641  0.00  0.00    -0.223 NA
ATOM      8  C   UNL     1      -1.047  -3.083  42.580  0.00  0.00    +0.220 A 
ATOM      9  N   UNL     1      -1.340  -4.219  43.317  0.00  0.00    -0.283 N 
ATOM     36  H   UNL     1      -0.663  -4.569  43.995  0.00  0.00    +0.155 HD
ATOM     37  N   UNL     1       0.133  -2.467  42.805  0.00  0.00    -0.214 NA
BRANCH   4   3
ATOM      1  C   UNL     1       4.015  -0.735  43.732  0.00  0.00    +0.020 A 
ATOM      2  C   UNL     1       2.739  -1.344  43.435  0.00  0.00    +0.013 A 
ATOM      3  C   UNL     1       1.831  -0.738  42.470  0.00  0.00    +0.019 A 
ATOM     38  C   UNL     1       2.247   0.494  41.817  0.00  0.00    +0.120 A 
ATOM     39  N   UNL     1       3.480   1.059  42.125  0.00  0.00    -0.263 NA
ATOM     40  C   UNL     1       4.362   0.486  43.053  0.00  0.00    +0.111 A 
ENDBRANCH   4   3
ENDBRANCH  10   9
BRANCH  12  13
ATOM     13  N   UNL     1      -5.998  -5.102  44.828  0.00  0.00    -0.281 N 
ATOM     14  C   UNL     1      -7.220  -4.514  44.548  0.00  0.00    +0.248 C 
ATOM     30  O   UNL     1      -7.467  -3.885  43.530  0.00  0.00    -0.270 OA
ATOM     31  H   UNL     1      -5.864  -5.424  45.787  0.00  0.00    +0.155 HD
BRANCH  14  15
ATOM     15  C   UNL     1      -8.323  -4.627  45.550  0.00  0.00    +0.037 A 
ATOM     16  C   UNL     1      -9.563  -5.342  45.238  0.00  0.00    +0.013 A 
ATOM     17  C   UNL     1     -10.618  -5.422  46.217  0.00  0.00    +0.005 A 
ATOM     18  C   UNL     1     -10.436  -4.786  47.519  0.00  0.00    -0.033 A 
ATOM     28  C   UNL     1      -9.194  -4.088  47.805  0.00  0.00    +0.005 A 
ATOM     29  C   UNL     1      -8.158  -4.006  46.847  0.00  0.00    +0.013 A 
BRANCH  18  19
ATOM     19  C   UNL     1     -11.517  -4.803  48.617  0.00  0.00    +0.119 C 
BRANCH  19  20
ATOM     20  N   UNL     1     -11.083  -5.169  49.998  0.00  0.00    -0.302 NA
ATOM     21  C   UNL     1     -10.923  -6.683  50.168  0.00  0.00    +0.066 C 
ATOM     22  C   UNL     1     -10.448  -7.047  51.612  0.00  0.00    -0.064 C 
ATOM     23  N   UNL     1     -11.444  -6.490  52.630  0.00  0.00    +0.379 N 
ATOM     24  C   UNL     1     -11.031  -6.880  53.985  0.00  0.00    -0.096 C 
ATOM     25  H   UNL     1     -12.433  -6.963  52.428  0.00  0.00    -0.082 HD
ATOM     26  C   UNL     1     -11.611  -4.986  52.466  0.00  0.00    -0.064 C 
ATOM     27  C   UNL     1     -12.056  -4.633  51.019  0.00  0.00    +0.066 C 
ENDBRANCH  19  20
ENDBRANCH  18  19
ENDBRANCH  14  15
ENDBRANCH  12  13
TORSDOF 6
ENDMDL
MODEL 3
REMARK VINA RESULT:      -8.4      9.146     11.946
REMARK  Name = C:\Users\Docking\Desktop\test protocol\1iep_ligandH.pdb
REMARK  8 active torsions:
REMARK  status: ('A' for Active; 'I' for Inactive)
REMARK    1  A    between atoms: _5  and  _11
REMARK    2  A    between atoms: _19  and  _21
REMARK    3  A    between atoms: _22  and  _66
REMARK    4  A    between atoms: _27  and  _30
REMARK    5  A    between atoms: _32  and  _33
REMARK    6  A    between atoms: _38  and  _43
REMARK    7  A    between atoms: _43  and  _46
REMARK    8  A    between atoms: _53  and  _55
REMARK                            x       y       z     vdW  Elec       q    Type
REMARK                         _______ _______ _______ _____ _____    ______ ____
ROOT
ATOM     10  C   UNL     1      14.719   0.028  62.718  0.00  0.00    +0.038 A 
ATOM     11  C   UNL     1      14.066   1.285  62.633  0.00  0.00    +0.047 A 
ATOM     12  C   UNL     1      14.171   2.261  63.706  0.00  0.00    +0.035 A 
ATOM     32  C   UNL     1      14.952   1.926  64.850  0.00  0.00    +0.024 A 
ATOM     33  C   UNL     1      15.621   0.653  64.954  0.00  0.00    +0.007 A 
ATOM     34  C   UNL     1      15.519  -0.315  63.899  0.00  0.00    -0.029 A 
ATOM     35  C   UNL     1      16.252  -1.667  64.067  0.00  0.00    +0.045 C 
ENDROOT
BRANCH  10   9
ATOM      4  C   UNL     1      12.498  -3.609  60.510  0.00  0.00    +0.077 A 
ATOM      5  C   UNL     1      11.541  -3.746  61.570  0.00  0.00    +0.048 A 
ATOM      6  C   UNL     1      11.659  -2.866  62.669  0.00  0.00    +0.116 A 
ATOM      7  N   UNL     1      12.664  -1.922  62.695  0.00  0.00    -0.223 NA
ATOM      8  C   UNL     1      13.571  -1.818  61.656  0.00  0.00    +0.220 A 
ATOM      9  N   UNL     1      14.584  -0.871  61.658  0.00  0.00    -0.283 N 
ATOM     36  H   UNL     1      15.238  -0.832  60.876  0.00  0.00    +0.155 HD
ATOM     37  N   UNL     1      13.480  -2.648  60.597  0.00  0.00    -0.214 NA
BRANCH   4   3
ATOM      1  C   UNL     1      11.776  -4.992  56.923  0.00  0.00    +0.020 A 
ATOM      2  C   UNL     1      11.737  -4.133  58.084  0.00  0.00    +0.013 A 
ATOM      3  C   UNL     1      12.502  -4.463  59.280  0.00  0.00    +0.019 A 
ATOM     38  C   UNL     1      13.302  -5.678  59.269  0.00  0.00    +0.120 A 
ATOM     39  N   UNL     1      13.319  -6.487  58.137  0.00  0.00    -0.263 NA
ATOM     40  C   UNL     1      12.586  -6.181  56.980  0.00  0.00    +0.111 A 
ENDBRANCH   4   3
ENDBRANCH  10   9
BRANCH  12  13
ATOM     13  N   UNL     1      13.525   3.550  63.679  0.00  0.00    -0.281 N 
ATOM     14  C   UNL     1      12.612   4.064  64.586  0.00  0.00    +0.248 C 
ATOM     30  O   UNL     1      12.049   3.406  65.448  0.00  0.00    -0.270 OA
ATOM     31  H   UNL     1      13.769   4.157  62.896  0.00  0.00    +0.155 HD
BRANCH  14  15
ATOM     15  C   UNL     1      12.264   5.516  64.516  0.00  0.00    +0.037 A 
ATOM     16  C   UNL     1      11.563   6.074  63.357  0.00  0.00    +0.013 A 
ATOM     17  C   UNL     1      11.255   7.482  63.308  0.00  0.00    +0.005 A 
ATOM     18  C   UNL     1      11.647   8.340  64.423  0.00  0.00    -0.033 A 
ATOM     28  C   UNL     1      12.337   7.759  65.563  0.00  0.00    +0.005 A 
ATOM     29  C   UNL     1      12.642   6.380  65.614  0.00  0.00    +0.013 A 
BRANCH  18  19
ATOM     19  C   UNL     1      11.378   9.856  64.446  0.00  0.00    +0.119 C 
BRANCH  19  20
ATOM     20  N   UNL     1      11.842  10.615  65.645  0.00  0.00    -0.302 NA
ATOM     21  C   UNL     1      10.722  11.460  66.260  0.00  0.00    +0.066 C 
ATOM     22  C   UNL     1      11.219  12.229  67.527  0.00  0.00    -0.064 C 
ATOM     23  N   UNL     1      12.415  13.106  67.151  0.00  0.00    +0.379 N 
ATOM     24  C   UNL     1      12.848  13.875  68.327  0.00  0.00    -0.096 C 
ATOM     25  H   UNL     1      12.071  13.834  66.379  0.00  0.00    -0.082 HD
ATOM     26  C   UNL     1      13.532  12.275  66.536  0.00  0.00    -0.064 C 
ATOM     27  C   UNL     1      13.020  11.491  65.296  0.00  0.00    +0.066 C 
ENDBRANCH  19  20
ENDBRANCH  18  19
ENDBRANCH  14  15
ENDBRANCH  12  13
TORSDOF 6
ENDMDL
MODEL 4
REMARK VINA RESULT:      -8.4      5.685     13.094
REMARK  Name = C:\Users\Docking\Desktop\test protocol\1iep_ligandH.pdb
REMARK  8 active torsions:
REMARK  status: ('A' for Active; 'I' for Inactive)
REMARK    1  A    between atoms: _5  and  _11
REMARK    2  A    between atoms: _19  and  _21
REMARK    3  A    between atoms: _22  and  _66
REMARK    4  A    between atoms: _27  and  _30
REMARK    5  A    between atoms: _32  and  _33
REMARK    6  A    between atoms: _38  and  _43
REMARK    7  A    between atoms: _43  and  _46
REMARK    8  A    between atoms: _53  and  _55
REMARK                            x       y       z     vdW  Elec       q    Type
REMARK                         _______ _______ _______ _____ _____    ______ ____
ROOT
ATOM     10  C   UNL     1      12.067  -3.961  58.083  0.00  0.00    +0.038 A 
ATOM     11  C   UNL     1      12.802  -3.444  59.180  0.00  0.00    +0.047 A 
ATOM     12  C   UNL     1      13.988  -4.123  59.679  0.00  0.00    +0.035 A 
ATOM     32  C   UNL     1      14.398  -5.327  59.035  0.00  0.00    +0.024 A 
ATOM     33  C   UNL     1      13.662  -5.867  57.919  0.00  0.00    +0.007 A 
ATOM     34  C   UNL     1      12.490  -5.202  57.424  0.00  0.00    -0.029 A 
ATOM     35  C   UNL     1      11.736  -5.831  56.229  0.00  0.00    +0.045 C 
ENDROOT
BRANCH  10   9
ATOM      4  C   UNL     1       9.345  -0.014  57.862  0.00  0.00    +0.077 A 
ATOM      5  C   UNL     1      10.237   0.721  58.713  0.00  0.00    +0.048 A 
ATOM      6  C   UNL     1      11.381   0.044  59.191  0.00  0.00    +0.116 A 
ATOM      7  N   UNL     1      11.607  -1.269  58.839  0.00  0.00    -0.223 NA
ATOM      8  C   UNL     1      10.725  -1.949  58.019  0.00  0.00    +0.220 A 
ATOM      9  N   UNL     1      10.936  -3.267  57.646  0.00  0.00    -0.283 N 
ATOM     36  H   UNL     1      10.259  -3.736  57.045  0.00  0.00    +0.155 HD
ATOM     37  N   UNL     1       9.625  -1.325  57.550  0.00  0.00    -0.214 NA
BRANCH   4   3
ATOM      1  C   UNL     1       5.708   0.385  56.479  0.00  0.00    +0.020 A 
ATOM      2  C   UNL     1       6.889  -0.221  57.050  0.00  0.00    +0.013 A 
ATOM      3  C   UNL     1       8.095   0.564  57.274  0.00  0.00    +0.019 A 
ATOM     38  C   UNL     1       8.074   1.973  56.909  0.00  0.00    +0.120 A 
ATOM     39  N   UNL     1       6.923   2.529  56.360  0.00  0.00    -0.263 NA
ATOM     40  C   UNL     1       5.757   1.783  56.137  0.00  0.00    +0.111 A 
ENDBRANCH   4   3
ENDBRANCH  10   9
BRANCH  12  13
ATOM     13  N   UNL     1      14.769  -3.650  60.794  0.00  0.00    -0.281 N 
ATOM     14  C   UNL     1      14.886  -2.352  61.263  0.00  0.00    +0.248 C 
ATOM     30  O   UNL     1      14.500  -1.362  60.659  0.00  0.00    -0.270 OA
ATOM     31  H   UNL     1      15.302  -4.359  61.300  0.00  0.00    +0.155 HD
BRANCH  14  15
ATOM     15  C   UNL     1      15.538  -2.118  62.588  0.00  0.00    +0.037 A 
ATOM     16  C   UNL     1      15.952  -3.236  63.439  0.00  0.00    +0.013 A 
ATOM     17  C   UNL     1      16.563  -2.983  64.719  0.00  0.00    +0.005 A 
ATOM     18  C   UNL     1      16.765  -1.603  65.156  0.00  0.00    -0.033 A 
ATOM     28  C   UNL     1      16.349  -0.513  64.290  0.00  0.00    +0.005 A 
ATOM     29  C   UNL     1      15.749  -0.757  63.034  0.00  0.00    +0.013 A 
BRANCH  18  19
ATOM     19  C   UNL     1      17.389  -1.239  66.516  0.00  0.00    +0.119 C 
BRANCH  19  20
ATOM     20  N   UNL     1      18.640  -0.423  66.498  0.00  0.00    -0.302 NA
ATOM     21  C   UNL     1      19.793  -1.155  65.806  0.00  0.00    +0.066 C 
ATOM     22  C   UNL     1      21.087  -0.277  65.776  0.00  0.00    -0.064 C 
ATOM     23  N   UNL     1      21.470   0.111  67.205  0.00  0.00    +0.379 N 
ATOM     24  C   UNL     1      22.719   0.887  67.185  0.00  0.00    -0.096 C 
ATOM     25  H   UNL     1      21.666  -0.831  67.770  0.00  0.00    -0.082 HD
ATOM     26  C   UNL     1      20.328   0.836  67.901  0.00  0.00    -0.064 C 
ATOM     27  C   UNL     1      19.039  -0.032  67.899  0.00  0.00    +0.066 C 
ENDBRANCH  19  20
ENDBRANCH  18  19
ENDBRANCH  14  15
ENDBRANCH  12  13
TORSDOF 6
ENDMDL
MODEL 5
REMARK VINA RESULT:      -8.4     13.627     16.459
REMARK  Name = C:\Users\Docking\Desktop\test protocol\1iep_ligandH.pdb
REMARK  8 active torsions:
REMARK  status: ('A' for Active; 'I' for Inactive)
REMARK    1  A    between atoms: _5  and  _11
REMARK    2  A    between atoms: _19  and  _21
REMARK    3  A    between atoms: _22  and  _66
REMARK    4  A    between atoms: _27  and  _30
REMARK    5  A    between atoms: _32  and  _33
REMARK    6  A    between atoms: _38  and  _43
REMARK    7  A    between atoms: _43  and  _46
REMARK    8  A    between atoms: _53  and  _55
REMARK                            x       y       z     vdW  Elec       q    Type
REMARK                         _______ _______ _______ _____ _____    ______ ____
ROOT
ATOM     10  C   UNL     1      12.616  -3.732  44.514  0.00  0.00    +0.038 A 
ATOM     11  C   UNL     1      11.242  -3.386  44.450  0.00  0.00    +0.047 A 
ATOM     12  C   UNL     1      10.716  -2.593  43.350  0.00  0.00    +0.035 A 
ATOM     32  C   UNL     1      11.617  -2.172  42.329  0.00  0.00    +0.024 A 
ATOM     33  C   UNL     1      13.017  -2.513  42.379  0.00  0.00    +0.007 A 
ATOM     34  C   UNL     1      13.543  -3.293  43.463  0.00  0.00    -0.029 A 
ATOM     35  C   UNL     1      15.053  -3.624  43.469  0.00  0.00    +0.045 C 
ENDROOT
BRANCH  10   9
ATOM      4  C   UNL     1      13.361  -7.935  46.709  0.00  0.00    +0.077 A 
ATOM      5  C   UNL     1      12.777  -8.671  45.625  0.00  0.00    +0.048 A 
ATOM      6  C   UNL     1      12.290  -7.930  44.525  0.00  0.00    +0.116 A 
ATOM      7  N   UNL     1      12.386  -6.556  44.519  0.00  0.00    -0.223 NA
ATOM      8  C   UNL     1      12.954  -5.876  45.582  0.00  0.00    +0.220 A 
ATOM      9  N   UNL     1      13.067  -4.494  45.594  0.00  0.00    -0.283 N 
ATOM     36  H   UNL     1      13.486  -4.030  46.399  0.00  0.00    +0.155 HD
ATOM     37  N   UNL     1      13.424  -6.560  46.645  0.00  0.00    -0.214 NA
BRANCH   4   3
ATOM      1  C   UNL     1      15.697  -8.837  49.714  0.00  0.00    +0.020 A 
ATOM      2  C   UNL     1      15.200  -8.186  48.523  0.00  0.00    +0.013 A 
ATOM      3  C   UNL     1      13.922  -8.575  47.940  0.00  0.00    +0.019 A 
ATOM     38  C   UNL     1      13.165  -9.633  48.592  0.00  0.00    +0.120 A 
ATOM     39  N   UNL     1      13.669 -10.242  49.737  0.00  0.00    -0.263 NA
ATOM     40  C   UNL     1      14.899  -9.878  50.306  0.00  0.00    +0.111 A 
ENDBRANCH   4   3
ENDBRANCH  10   9
BRANCH  12  13
ATOM     13  N   UNL     1       9.332  -2.205  43.236  0.00  0.00    -0.281 N 
ATOM     14  C   UNL     1       8.273  -2.958  42.757  0.00  0.00    +0.248 C 
ATOM     30  O   UNL     1       8.393  -4.013  42.152  0.00  0.00    -0.270 OA
ATOM     31  H   UNL     1       9.106  -1.260  43.546  0.00  0.00    +0.155 HD
BRANCH  14  15
ATOM     15  C   UNL     1       6.879  -2.461  42.969  0.00  0.00    +0.037 A 
ATOM     16  C   UNL     1       5.719  -3.317  42.709  0.00  0.00    +0.013 A 
ATOM     17  C   UNL     1       4.385  -2.807  42.905  0.00  0.00    +0.005 A 
ATOM     18  C   UNL     1       4.205  -1.433  43.365  0.00  0.00    -0.033 A 
ATOM     28  C   UNL     1       5.373  -0.607  43.621  0.00  0.00    +0.005 A 
ATOM     29  C   UNL     1       6.682  -1.103  43.429  0.00  0.00    +0.013 A 
BRANCH  18  19
ATOM     19  C   UNL     1       2.818  -0.798  43.581  0.00  0.00    +0.119 C 
BRANCH  19  20
ATOM     20  N   UNL     1       1.766  -1.091  42.563  0.00  0.00    -0.302 NA
ATOM     21  C   UNL     1       1.170   0.188  41.968  0.00  0.00    +0.066 C 
ATOM     22  C   UNL     1       0.088  -0.137  40.888  0.00  0.00    -0.064 C 
ATOM     23  N   UNL     1      -1.007  -1.004  41.512  0.00  0.00    +0.379 N 
ATOM     24  C   UNL     1      -2.056  -1.264  40.515  0.00  0.00    -0.096 C 
ATOM     25  H   UNL     1      -1.467  -0.422  42.343  0.00  0.00    -0.082 HD
ATOM     26  C   UNL     1      -0.423  -2.277  42.108  0.00  0.00    -0.064 C 
ATOM     27  C   UNL     1       0.673  -1.943  43.159  0.00  0.00    +0.066 C 
ENDBRANCH  19  20
ENDBRANCH  18  19
ENDBRANCH  14  15
ENDBRANCH  12  13
TORSDOF 6
ENDMDL
