MODEL 1
REMARK VINA RESULT:     -12.2      0.000      0.000
REMARK  Name = C:\Users\Docking\Desktop\test protocol\1iep_ligandH.pdb
REMARK  8 active torsions:
REMARK  status: ('A' for Active; 'I' for Inactive)
REMARK    1  A    between atoms: _5  and  _11
REMARK    2  A    between atoms: _19  and  _21
REMARK    3  A    between atoms: _22  and  _66
REMARK    4  A    between atoms: _27  and  _30
REMARK    5  A    between atoms: _32  and  _33
REMARK    6  A    between atoms: _38  and  _43
REMARK    7  A    between atoms: _43  and  _46
REMARK    8  A    between atoms: _53  and  _55
REMARK                            x       y       z     vdW  Elec       q    Type
REMARK                         _______ _______ _______ _____ _____    ______ ____
ROOT
ATOM     10  C   UNL     1      37.440  30.487  10.492  0.00  0.00    +0.038 A 
ATOM     11  C   UNL     1      36.576  31.445  11.080  0.00  0.00    +0.047 A 
ATOM     12  C   UNL     1      36.661  31.766  12.496  0.00  0.00    +0.035 A 
ATOM     32  C   UNL     1      37.640  31.094  13.283  0.00  0.00    +0.024 A 
ATOM     33  C   UNL     1      38.526  30.117  12.702  0.00  0.00    +0.007 A 
ATOM     34  C   UNL     1      38.445  29.794  11.306  0.00  0.00    -0.029 A 
ATOM     35  C   UNL     1      39.416  28.733  10.738  0.00  0.00    +0.045 C 
ENDROOT
BRANCH  10   9
ATOM      4  C   UNL     1      38.701  31.162   5.910  0.00  0.00    +0.077 A 
ATOM      5  C   UNL     1      39.674  32.156   6.263  0.00  0.00    +0.048 A 
ATOM      6  C   UNL     1      39.814  32.470   7.633  0.00  0.00    +0.116 A 
ATOM      7  N   UNL     1      39.034  31.831   8.573  0.00  0.00    -0.223 NA
ATOM      8  C   UNL     1      38.104  30.878   8.199  0.00  0.00    +0.220 A 
ATOM      9  N   UNL     1      37.315  30.217   9.127  0.00  0.00    -0.283 N 
ATOM     36  H   UNL     1      36.635  29.526   8.810  0.00  0.00    +0.155 HD
ATOM     37  N   UNL     1      37.950  30.562   6.896  0.00  0.00    -0.214 NA
BRANCH   4   3
ATOM      1  C   UNL     1      37.292  29.260   2.796  0.00  0.00    +0.020 A 
ATOM      2  C   UNL     1      37.509  29.648   4.171  0.00  0.00    +0.013 A 
ATOM      3  C   UNL     1      38.439  30.720   4.504  0.00  0.00    +0.019 A 
ATOM     38  C   UNL     1      39.138  31.384   3.414  0.00  0.00    +0.120 A 
ATOM     39  N   UNL     1      38.910  30.988   2.100  0.00  0.00    -0.263 NA
ATOM     40  C   UNL     1      38.018  29.957   1.768  0.00  0.00    +0.111 A 
ENDBRANCH   4   3
ENDBRANCH  10   9
BRANCH  12  13
ATOM     13  N   UNL     1      35.805  32.725  13.150  0.00  0.00    -0.281 N 
ATOM     14  C   UNL     1      34.993  33.682  12.563  0.00  0.00    +0.248 C 
ATOM     30  O   UNL     1      35.043  34.002  11.385  0.00  0.00    -0.270 OA
ATOM     31  H   UNL     1      35.796  32.693  14.170  0.00  0.00    +0.155 HD
BRANCH  14  15
ATOM     15  C   UNL     1      33.991  34.396  13.411  0.00  0.00    +0.037 A 
ATOM     16  C   UNL     1      32.566  34.393  13.069  0.00  0.00    +0.013 A 
ATOM     17  C   UNL     1      31.622  35.105  13.894  0.00  0.00    +0.005 A 
ATOM     18  C   UNL     1      32.102  35.825  15.072  0.00  0.00    -0.033 A 
ATOM     28  C   UNL     1      33.520  35.808  15.390  0.00  0.00    +0.005 A 
ATOM     29  C   UNL     1      34.447  35.112  14.583  0.00  0.00    +0.013 A 
BRANCH  18  19
ATOM     19  C   UNL     1      31.169  36.629  15.997  0.00  0.00    +0.119 C 
BRANCH  19  20
ATOM     20  N   UNL     1      31.764  37.786  16.730  0.00  0.00    -0.302 NA
ATOM     21  C   UNL     1      31.182  37.936  18.138  0.00  0.00    +0.066 C 
ATOM     22  C   UNL     1      31.832  39.137  18.898  0.00  0.00    -0.064 C 
ATOM     23  N   UNL     1      31.628  40.419  18.089  0.00  0.00    +0.379 N 
ATOM     24  C   UNL     1      32.188  41.560  18.829  0.00  0.00    -0.096 C 
ATOM     25  H   UNL     1      30.531  40.586  17.990  0.00  0.00    -0.082 HD
ATOM     26  C   UNL     1      32.202  40.279  16.686  0.00  0.00    -0.064 C 
ATOM     27  C   UNL     1      31.571  39.064  15.950  0.00  0.00    +0.066 C 
ENDBRANCH  19  20
ENDBRANCH  18  19
ENDBRANCH  14  15
ENDBRANCH  12  13
TORSDOF 6
ENDMDL
MODEL 2
REMARK VINA RESULT:     -10.5      3.484     13.003
REMARK  Name = C:\Users\Docking\Desktop\test protocol\1iep_ligandH.pdb
REMARK  8 active torsions:
REMARK  status: ('A' for Active; 'I' for Inactive)
REMARK    1  A    between atoms: _5  and  _11
REMARK    2  A    between atoms: _19  and  _21
REMARK    3  A    between atoms: _22  and  _66
REMARK    4  A    between atoms: _27  and  _30
REMARK    5  A    between atoms: _32  and  _33
REMARK    6  A    between atoms: _38  and  _43
REMARK    7  A    between atoms: _43  and  _46
REMARK    8  A    between atoms: _53  and  _55
REMARK                            x       y       z     vdW  Elec       q    Type
REMARK                         _______ _______ _______ _____ _____    ______ ____
ROOT
ATOM     10  C   UNL     1      34.232  35.430  15.452  0.00  0.00    +0.038 A 
ATOM     11  C   UNL     1      35.087  34.865  14.471  0.00  0.00    +0.047 A 
ATOM     12  C   UNL     1      34.558  34.359  13.214  0.00  0.00    +0.035 A 
ATOM     32  C   UNL     1      33.153  34.447  12.988  0.00  0.00    +0.024 A 
ATOM     33  C   UNL     1      32.270  35.017  13.974  0.00  0.00    +0.007 A 
ATOM     34  C   UNL     1      32.786  35.516  15.217  0.00  0.00    -0.029 A 
ATOM     35  C   UNL     1      31.792  36.111  16.241  0.00  0.00    +0.045 C 
ENDROOT
BRANCH  10   9
ATOM      4  C   UNL     1      37.220  38.299  17.877  0.00  0.00    +0.077 A 
ATOM      5  C   UNL     1      37.724  38.892  16.672  0.00  0.00    +0.048 A 
ATOM      6  C   UNL     1      37.193  38.425  15.448  0.00  0.00    +0.116 A 
ATOM      7  N   UNL     1      36.230  37.439  15.442  0.00  0.00    -0.223 NA
ATOM      8  C   UNL     1      35.768  36.887  16.623  0.00  0.00    +0.220 A 
ATOM      9  N   UNL     1      34.794  35.900  16.641  0.00  0.00    -0.283 N 
ATOM     36  H   UNL     1      34.485  35.514  17.532  0.00  0.00    +0.155 HD
ATOM     37  N   UNL     1      36.260  37.315  17.804  0.00  0.00    -0.214 NA
BRANCH   4   3
ATOM      1  C   UNL     1      39.401  38.767  21.091  0.00  0.00    +0.020 A 
ATOM      2  C   UNL     1      39.006  38.368  19.759  0.00  0.00    +0.013 A 
ATOM      3  C   UNL     1      37.679  38.688  19.248  0.00  0.00    +0.019 A 
ATOM     38  C   UNL     1      36.769  39.419  20.116  0.00  0.00    +0.120 A 
ATOM     39  N   UNL     1      37.176  39.789  21.394  0.00  0.00    -0.263 NA
ATOM     40  C   UNL     1      38.449  39.485  21.897  0.00  0.00    +0.111 A 
ENDBRANCH   4   3
ENDBRANCH  10   9
BRANCH  12  13
ATOM     13  N   UNL     1      35.375  33.767  12.184  0.00  0.00    -0.281 N 
ATOM     14  C   UNL     1      35.888  32.481  12.138  0.00  0.00    +0.248 C 
ATOM     30  O   UNL     1      35.898  31.707  13.083  0.00  0.00    -0.270 OA
ATOM     31  H   UNL     1      35.603  34.369  11.393  0.00  0.00    +0.155 HD
BRANCH  14  15
ATOM     15  C   UNL     1      36.489  31.988  10.861  0.00  0.00    +0.037 A 
ATOM     16  C   UNL     1      35.649  31.493   9.767  0.00  0.00    +0.013 A 
ATOM     17  C   UNL     1      36.255  31.008   8.552  0.00  0.00    +0.005 A 
ATOM     18  C   UNL     1      37.710  31.018   8.425  0.00  0.00    -0.033 A 
ATOM     28  C   UNL     1      38.519  31.519   9.523  0.00  0.00    +0.005 A 
ATOM     29  C   UNL     1      37.929  31.994  10.716  0.00  0.00    +0.013 A 
BRANCH  18  19
ATOM     19  C   UNL     1      38.443  30.499   7.173  0.00  0.00    +0.119 C 
BRANCH  19  20
ATOM     20  N   UNL     1      37.970  30.998   5.848  0.00  0.00    -0.302 NA
ATOM     21  C   UNL     1      37.860  29.872   4.816  0.00  0.00    +0.066 C 
ATOM     22  C   UNL     1      37.342  30.408   3.442  0.00  0.00    -0.064 C 
ATOM     23  N   UNL     1      38.276  31.511   2.942  0.00  0.00    +0.379 N 
ATOM     24  C   UNL     1      37.825  31.977   1.623  0.00  0.00    -0.096 C 
ATOM     25  H   UNL     1      39.289  31.063   2.815  0.00  0.00    -0.082 HD
ATOM     26  C   UNL     1      38.394  32.633   3.963  0.00  0.00    -0.064 C 
ATOM     27  C   UNL     1      38.881  32.086   5.334  0.00  0.00    +0.066 C 
ENDBRANCH  19  20
ENDBRANCH  18  19
ENDBRANCH  14  15
ENDBRANCH  12  13
TORSDOF 6
ENDMDL
MODEL 3
REMARK VINA RESULT:      -9.5      2.304     13.479
REMARK  Name = C:\Users\Docking\Desktop\test protocol\1iep_ligandH.pdb
REMARK  8 active torsions:
REMARK  status: ('A' for Active; 'I' for Inactive)
REMARK    1  A    between atoms: _5  and  _11
REMARK    2  A    between atoms: _19  and  _21
REMARK    3  A    between atoms: _22  and  _66
REMARK    4  A    between atoms: _27  and  _30
REMARK    5  A    between atoms: _32  and  _33
REMARK    6  A    between atoms: _38  and  _43
REMARK    7  A    between atoms: _43  and  _46
REMARK    8  A    between atoms: _53  and  _55
REMARK                            x       y       z     vdW  Elec       q    Type
REMARK                         _______ _______ _______ _____ _____    ______ ____
ROOT
ATOM     10  C   UNL     1      37.990  31.789  11.403  0.00  0.00    +0.038 A 
ATOM     11  C   UNL     1      38.004  31.808   9.985  0.00  0.00    +0.047 A 
ATOM     12  C   UNL     1      38.515  30.680   9.223  0.00  0.00    +0.035 A 
ATOM     32  C   UNL     1      39.002  29.546   9.937  0.00  0.00    +0.024 A 
ATOM     33  C   UNL     1      38.996  29.511  11.379  0.00  0.00    +0.007 A 
ATOM     34  C   UNL     1      38.495  30.622  12.136  0.00  0.00    -0.029 A 
ATOM     35  C   UNL     1      38.519  30.532  13.680  0.00  0.00    +0.045 C 
ENDROOT
BRANCH  10   9
ATOM      4  C   UNL     1      34.516  34.063  13.811  0.00  0.00    +0.077 A 
ATOM      5  C   UNL     1      33.616  32.954  13.677  0.00  0.00    +0.048 A 
ATOM      6  C   UNL     1      34.083  31.820  12.976  0.00  0.00    +0.116 A 
ATOM      7  N   UNL     1      35.357  31.807  12.451  0.00  0.00    -0.223 NA
ATOM      8  C   UNL     1      36.199  32.894  12.597  0.00  0.00    +0.220 A 
ATOM      9  N   UNL     1      37.487  32.900  12.085  0.00  0.00    -0.283 N 
ATOM     36  H   UNL     1      38.075  33.725  12.207  0.00  0.00    +0.155 HD
ATOM     37  N   UNL     1      35.776  33.990  13.262  0.00  0.00    -0.214 NA
BRANCH   4   3
ATOM      1  C   UNL     1      34.777  37.377  15.872  0.00  0.00    +0.020 A 
ATOM      2  C   UNL     1      35.165  36.162  15.194  0.00  0.00    +0.013 A 
ATOM      3  C   UNL     1      34.169  35.331  14.529  0.00  0.00    +0.019 A 
ATOM     38  C   UNL     1      32.780  35.761  14.568  0.00  0.00    +0.120 A 
ATOM     39  N   UNL     1      32.436  36.936  15.230  0.00  0.00    -0.263 NA
ATOM     40  C   UNL     1      33.385  37.743  15.875  0.00  0.00    +0.111 A 
ENDBRANCH   4   3
ENDBRANCH  10   9
BRANCH  12  13
ATOM     13  N   UNL     1      38.562  30.645   7.782  0.00  0.00    -0.281 N 
ATOM     14  C   UNL     1      37.567  30.243   6.907  0.00  0.00    +0.248 C 
ATOM     30  O   UNL     1      36.554  29.646   7.240  0.00  0.00    -0.270 OA
ATOM     31  H   UNL     1      39.436  30.955   7.356  0.00  0.00    +0.155 HD
BRANCH  14  15
ATOM     15  C   UNL     1      37.727  30.532   5.449  0.00  0.00    +0.037 A 
ATOM     16  C   UNL     1      38.080  31.873   4.975  0.00  0.00    +0.013 A 
ATOM     17  C   UNL     1      38.211  32.129   3.562  0.00  0.00    +0.005 A 
ATOM     18  C   UNL     1      37.990  31.040   2.614  0.00  0.00    -0.033 A 
ATOM     28  C   UNL     1      37.646  29.719   3.112  0.00  0.00    +0.005 A 
ATOM     29  C   UNL     1      37.516  29.464   4.495  0.00  0.00    +0.013 A 
BRANCH  18  19
ATOM     19  C   UNL     1      38.088  31.228   1.088  0.00  0.00    +0.119 C 
BRANCH  19  20
ATOM     20  N   UNL     1      38.828  30.185   0.317  0.00  0.00    -0.302 NA
ATOM     21  C   UNL     1      39.967  30.784  -0.513  0.00  0.00    +0.066 C 
ATOM     22  C   UNL     1      40.745  29.676  -1.295  0.00  0.00    -0.064 C 
ATOM     23  N   UNL     1      39.771  28.907  -2.189  0.00  0.00    +0.379 N 
ATOM     24  C   UNL     1      40.509  27.903  -2.969  0.00  0.00    -0.096 C 
ATOM     25  H   UNL     1      39.326  29.634  -2.907  0.00  0.00    -0.082 HD
ATOM     26  C   UNL     1      38.633  28.310  -1.372  0.00  0.00    -0.064 C 
ATOM     27  C   UNL     1      37.886  29.416  -0.576  0.00  0.00    +0.066 C 
ENDBRANCH  19  20
ENDBRANCH  18  19
ENDBRANCH  14  15
ENDBRANCH  12  13
TORSDOF 6
ENDMDL
MODEL 4
REMARK VINA RESULT:      -9.4      4.780     10.611
REMARK  Name = C:\Users\Docking\Desktop\test protocol\1iep_ligandH.pdb
REMARK  8 active torsions:
REMARK  status: ('A' for Active; 'I' for Inactive)
REMARK    1  A    between atoms: _5  and  _11
REMARK    2  A    between atoms: _19  and  _21
REMARK    3  A    between atoms: _22  and  _66
REMARK    4  A    between atoms: _27  and  _30
REMARK    5  A    between atoms: _32  and  _33
REMARK    6  A    between atoms: _38  and  _43
REMARK    7  A    between atoms: _43  and  _46
REMARK    8  A    between atoms: _53  and  _55
REMARK                            x       y       z     vdW  Elec       q    Type
REMARK                         _______ _______ _______ _____ _____    ______ ____
ROOT
ATOM     10  C   UNL     1      38.214  29.837  -0.419  0.00  0.00    +0.038 A 
ATOM     11  C   UNL     1      38.301  29.767   0.995  0.00  0.00    +0.047 A 
ATOM     12  C   UNL     1      38.809  30.884   1.774  0.00  0.00    +0.035 A 
ATOM     32  C   UNL     1      39.219  32.060   1.081  0.00  0.00    +0.024 A 
ATOM     33  C   UNL     1      39.139  32.148  -0.356  0.00  0.00    +0.007 A 
ATOM     34  C   UNL     1      38.640  31.048  -1.130  0.00  0.00    -0.029 A 
ATOM     35  C   UNL     1      38.583  31.195  -2.668  0.00  0.00    +0.045 C 
ENDROOT
BRANCH  10   9
ATOM      4  C   UNL     1      38.813  25.689  -2.759  0.00  0.00    +0.077 A 
ATOM      5  C   UNL     1      40.238  25.737  -2.601  0.00  0.00    +0.048 A 
ATOM      6  C   UNL     1      40.777  26.850  -1.917  0.00  0.00    +0.116 A 
ATOM      7  N   UNL     1      39.945  27.835  -1.432  0.00  0.00    -0.223 NA
ATOM      8  C   UNL     1      38.575  27.759  -1.603  0.00  0.00    +0.220 A 
ATOM      9  N   UNL     1      37.718  28.734  -1.117  0.00  0.00    -0.283 N 
ATOM     36  H   UNL     1      36.713  28.644  -1.270  0.00  0.00    +0.155 HD
ATOM     37  N   UNL     1      38.035  26.707  -2.254  0.00  0.00    -0.214 NA
BRANCH   4   3
ATOM      1  C   UNL     1      36.625  22.525  -3.466  0.00  0.00    +0.020 A 
ATOM      2  C   UNL     1      37.301  23.579  -2.746  0.00  0.00    +0.013 A 
ATOM      3  C   UNL     1      38.093  24.577  -3.455  0.00  0.00    +0.019 A 
ATOM     38  C   UNL     1      38.179  24.479  -4.904  0.00  0.00    +0.120 A 
ATOM     39  N   UNL     1      37.518  23.451  -5.571  0.00  0.00    -0.263 NA
ATOM     40  C   UNL     1      36.755  22.485  -4.899  0.00  0.00    +0.111 A 
ENDBRANCH   4   3
ENDBRANCH  10   9
BRANCH  12  13
ATOM     13  N   UNL     1      38.928  30.868   3.211  0.00  0.00    -0.281 N 
ATOM     14  C   UNL     1      38.519  31.839   4.111  0.00  0.00    +0.248 C 
ATOM     30  O   UNL     1      38.180  32.971   3.799  0.00  0.00    -0.270 OA
ATOM     31  H   UNL     1      39.367  30.040   3.614  0.00  0.00    +0.155 HD
BRANCH  14  15
ATOM     15  C   UNL     1      38.497  31.510   5.569  0.00  0.00    +0.037 A 
ATOM     16  C   UNL     1      37.574  30.508   6.108  0.00  0.00    +0.013 A 
ATOM     17  C   UNL     1      37.562  30.222   7.521  0.00  0.00    +0.005 A 
ATOM     18  C   UNL     1      38.479  30.938   8.404  0.00  0.00    -0.033 A 
ATOM     28  C   UNL     1      39.388  31.922   7.842  0.00  0.00    +0.005 A 
ATOM     29  C   UNL     1      39.402  32.207   6.458  0.00  0.00    +0.013 A 
BRANCH  18  19
ATOM     19  C   UNL     1      38.520  30.712   9.927  0.00  0.00    +0.119 C 
BRANCH  19  20
ATOM     20  N   UNL     1      37.328  31.145  10.715  0.00  0.00    -0.302 NA
ATOM     21  C   UNL     1      36.868  32.555  10.333  0.00  0.00    +0.066 C 
ATOM     22  C   UNL     1      35.606  32.983  11.151  0.00  0.00    -0.064 C 
ATOM     23  N   UNL     1      35.920  32.903  12.646  0.00  0.00    +0.379 N 
ATOM     24  C   UNL     1      34.755  33.361  13.417  0.00  0.00    -0.096 C 
ATOM     25  H   UNL     1      36.760  33.606  12.853  0.00  0.00    -0.082 HD
ATOM     26  C   UNL     1      36.381  31.506  13.034  0.00  0.00    -0.064 C 
ATOM     27  C   UNL     1      37.617  31.078  12.195  0.00  0.00    +0.066 C 
ENDBRANCH  19  20
ENDBRANCH  18  19
ENDBRANCH  14  15
ENDBRANCH  12  13
TORSDOF 6
ENDMDL
