MODEL 1
REMARK VINA RESULT:      -8.3      0.000      0.000
REMARK  Name = C:\Users\Docking\Desktop\test protocol\1iep_ligandH.pdb
REMARK  8 active torsions:
REMARK  status: ('A' for Active; 'I' for Inactive)
REMARK    1  A    between atoms: _5  and  _11
REMARK    2  A    between atoms: _19  and  _21
REMARK    3  A    between atoms: _22  and  _66
REMARK    4  A    between atoms: _27  and  _30
REMARK    5  A    between atoms: _32  and  _33
REMARK    6  A    between atoms: _38  and  _43
REMARK    7  A    between atoms: _43  and  _46
REMARK    8  A    between atoms: _53  and  _55
REMARK                            x       y       z     vdW  Elec       q    Type
REMARK                         _______ _______ _______ _____ _____    ______ ____
ROOT
ATOM     10  C   UNL     1       9.299 -19.920 -14.420  0.00  0.00    +0.038 A 
ATOM     11  C   UNL     1      10.523 -19.812 -15.129  0.00  0.00    +0.047 A 
ATOM     12  C   UNL     1      11.678 -20.616 -14.762  0.00  0.00    +0.035 A 
ATOM     32  C   UNL     1      11.551 -21.522 -13.668  0.00  0.00    +0.024 A 
ATOM     33  C   UNL     1      10.315 -21.643 -12.936  0.00  0.00    +0.007 A 
ATOM     34  C   UNL     1       9.173 -20.851 -13.293  0.00  0.00    -0.029 A 
ATOM     35  C   UNL     1       7.875 -21.018 -12.469  0.00  0.00    +0.045 C 
ENDROOT
BRANCH  10   9
ATOM      4  C   UNL     1       7.026 -15.701 -14.685  0.00  0.00    +0.077 A 
ATOM      5  C   UNL     1       8.060 -15.031 -13.950  0.00  0.00    +0.048 A 
ATOM      6  C   UNL     1       9.156 -15.809 -13.516  0.00  0.00    +0.116 A 
ATOM      7  N   UNL     1       9.204 -17.156 -13.801  0.00  0.00    -0.223 NA
ATOM      8  C   UNL     1       8.190 -17.772 -14.511  0.00  0.00    +0.220 A 
ATOM      9  N   UNL     1       8.222 -19.124 -14.816  0.00  0.00    -0.283 N 
ATOM     36  H   UNL     1       7.450 -19.542 -15.334  0.00  0.00    +0.155 HD
ATOM     37  N   UNL     1       7.131 -17.051 -14.935  0.00  0.00    -0.214 NA
BRANCH   4   3
ATOM      1  C   UNL     1       4.299 -13.005 -15.459  0.00  0.00    +0.020 A 
ATOM      2  C   UNL     1       5.491 -13.621 -14.923  0.00  0.00    +0.013 A 
ATOM      3  C   UNL     1       5.805 -15.014 -15.214  0.00  0.00    +0.019 A 
ATOM     38  C   UNL     1       4.886 -15.761 -16.059  0.00  0.00    +0.120 A 
ATOM     39  N   UNL     1       3.745 -15.142 -16.560  0.00  0.00    -0.263 NA
ATOM     40  C   UNL     1       3.432 -13.803 -16.285  0.00  0.00    +0.111 A 
ENDBRANCH   4   3
ENDBRANCH  10   9
BRANCH  12  13
ATOM     13  N   UNL     1      12.949 -20.543 -15.439  0.00  0.00    -0.281 N 
ATOM     14  C   UNL     1      13.187 -20.534 -16.804  0.00  0.00    +0.248 C 
ATOM     30  O   UNL     1      12.351 -20.802 -17.653  0.00  0.00    -0.270 OA
ATOM     31  H   UNL     1      13.773 -20.493 -14.840  0.00  0.00    +0.155 HD
BRANCH  14  15
ATOM     15  C   UNL     1      14.556 -20.190 -17.295  0.00  0.00    +0.037 A 
ATOM     16  C   UNL     1      14.781 -19.753 -18.675  0.00  0.00    +0.013 A 
ATOM     17  C   UNL     1      16.114 -19.444 -19.129  0.00  0.00    +0.005 A 
ATOM     18  C   UNL     1      17.233 -19.569 -18.199  0.00  0.00    -0.033 A 
ATOM     28  C   UNL     1      16.982 -20.000 -16.833  0.00  0.00    +0.005 A 
ATOM     29  C   UNL     1      15.677 -20.305 -16.386  0.00  0.00    +0.013 A 
BRANCH  18  19
ATOM     19  C   UNL     1      18.692 -19.280 -18.602  0.00  0.00    +0.119 C 
BRANCH  19  20
ATOM     20  N   UNL     1      18.939 -18.090 -19.469  0.00  0.00    -0.302 NA
ATOM     21  C   UNL     1      20.431 -17.872 -19.735  0.00  0.00    +0.066 C 
ATOM     22  C   UNL     1      20.670 -16.636 -20.662  0.00  0.00    -0.064 C 
ATOM     23  N   UNL     1      20.047 -15.394 -20.021  0.00  0.00    +0.379 N 
ATOM     24  C   UNL     1      20.320 -14.220 -20.862  0.00  0.00    -0.096 C 
ATOM     25  H   UNL     1      20.550 -15.232 -19.040  0.00  0.00    -0.082 HD
ATOM     26  C   UNL     1      18.564 -15.603 -19.751  0.00  0.00    -0.064 C 
ATOM     27  C   UNL     1      18.336 -16.851 -18.853  0.00  0.00    +0.066 C 
ENDBRANCH  19  20
ENDBRANCH  18  19
ENDBRANCH  14  15
ENDBRANCH  12  13
TORSDOF 6
ENDMDL
MODEL 2
REMARK VINA RESULT:      -8.2      3.796     12.723
REMARK  Name = C:\Users\Docking\Desktop\test protocol\1iep_ligandH.pdb
REMARK  8 active torsions:
REMARK  status: ('A' for Active; 'I' for Inactive)
REMARK    1  A    between atoms: _5  and  _11
REMARK    2  A    between atoms: _19  and  _21
REMARK    3  A    between atoms: _22  and  _66
REMARK    4  A    between atoms: _27  and  _30
REMARK    5  A    between atoms: _32  and  _33
REMARK    6  A    between atoms: _38  and  _43
REMARK    7  A    between atoms: _43  and  _46
REMARK    8  A    between atoms: _53  and  _55
REMARK                            x       y       z     vdW  Elec       q    Type
REMARK                         _______ _______ _______ _____ _____    ______ ____
ROOT
ATOM     10  C   UNL     1      19.510 -17.221 -19.061  0.00  0.00    +0.038 A 
ATOM     11  C   UNL     1      18.141 -17.292 -18.698  0.00  0.00    +0.047 A 
ATOM     12  C   UNL     1      17.438 -18.565 -18.658  0.00  0.00    +0.035 A 
ATOM     32  C   UNL     1      18.162 -19.747 -18.990  0.00  0.00    +0.024 A 
ATOM     33  C   UNL     1      19.554 -19.693 -19.362  0.00  0.00    +0.007 A 
ATOM     34  C   UNL     1      20.252 -18.439 -19.407  0.00  0.00    -0.029 A 
ATOM     35  C   UNL     1      21.742 -18.440 -19.819  0.00  0.00    +0.045 C 
ENDROOT
BRANCH  10   9
ATOM      4  C   UNL     1      20.815 -13.180 -21.298  0.00  0.00    +0.077 A 
ATOM      5  C   UNL     1      20.226 -13.605 -22.535  0.00  0.00    +0.048 A 
ATOM      6  C   UNL     1      19.602 -14.872 -22.556  0.00  0.00    +0.116 A 
ATOM      7  N   UNL     1      19.576 -15.649 -21.418  0.00  0.00    -0.223 NA
ATOM      8  C   UNL     1      20.156 -15.211 -20.242  0.00  0.00    +0.220 A 
ATOM      9  N   UNL     1      20.135 -15.972 -19.083  0.00  0.00    -0.283 N 
ATOM     36  H   UNL     1      20.580 -15.616 -18.238  0.00  0.00    +0.155 HD
ATOM     37  N   UNL     1      20.759 -14.004 -20.197  0.00  0.00    -0.214 NA
BRANCH   4   3
ATOM      1  C   UNL     1      23.058 -10.030 -21.887  0.00  0.00    +0.020 A 
ATOM      2  C   UNL     1      22.416 -11.304 -22.110  0.00  0.00    +0.013 A 
ATOM      3  C   UNL     1      21.507 -11.865 -21.118  0.00  0.00    +0.019 A 
ATOM     38  C   UNL     1      21.268 -11.104 -19.901  0.00  0.00    +0.120 A 
ATOM     39  N   UNL     1      21.902  -9.880 -19.712  0.00  0.00    -0.263 NA
ATOM     40  C   UNL     1      22.780  -9.331 -20.660  0.00  0.00    +0.111 A 
ENDBRANCH   4   3
ENDBRANCH  10   9
BRANCH  12  13
ATOM     13  N   UNL     1      16.047 -18.698 -18.304  0.00  0.00    -0.281 N 
ATOM     14  C   UNL     1      14.972 -18.923 -19.149  0.00  0.00    +0.248 C 
ATOM     30  O   UNL     1      15.018 -18.831 -20.366  0.00  0.00    -0.270 OA
ATOM     31  H   UNL     1      15.828 -18.617 -17.312  0.00  0.00    +0.155 HD
BRANCH  14  15
ATOM     15  C   UNL     1      13.650 -19.289 -18.553  0.00  0.00    +0.037 A 
ATOM     16  C   UNL     1      13.434 -20.598 -17.931  0.00  0.00    +0.013 A 
ATOM     17  C   UNL     1      12.145 -20.932 -17.379  0.00  0.00    +0.005 A 
ATOM     18  C   UNL     1      11.062 -19.954 -17.447  0.00  0.00    -0.033 A 
ATOM     28  C   UNL     1      11.305 -18.662 -18.066  0.00  0.00    +0.005 A 
ATOM     29  C   UNL     1      12.567 -18.331 -18.608  0.00  0.00    +0.013 A 
BRANCH  18  19
ATOM     19  C   UNL     1       9.648 -20.233 -16.903  0.00  0.00    +0.119 C 
BRANCH  19  20
ATOM     20  N   UNL     1       9.546 -20.856 -15.550  0.00  0.00    -0.302 NA
ATOM     21  C   UNL     1       9.157 -22.335 -15.625  0.00  0.00    +0.066 C 
ATOM     22  C   UNL     1       9.077 -22.976 -14.201  0.00  0.00    -0.064 C 
ATOM     23  N   UNL     1       8.076 -22.194 -13.349  0.00  0.00    +0.379 N 
ATOM     24  C   UNL     1       7.955 -22.830 -12.028  0.00  0.00    -0.096 C 
ATOM     25  H   UNL     1       7.082 -22.262 -13.848  0.00  0.00    -0.082 HD
ATOM     26  C   UNL     1       8.454 -20.722 -13.271  0.00  0.00    -0.064 C 
ATOM     27  C   UNL     1       8.560 -20.102 -14.692  0.00  0.00    +0.066 C 
ENDBRANCH  19  20
ENDBRANCH  18  19
ENDBRANCH  14  15
ENDBRANCH  12  13
TORSDOF 6
ENDMDL
MODEL 3
REMARK VINA RESULT:      -8.1      6.417      8.308
REMARK  Name = C:\Users\Docking\Desktop\test protocol\1iep_ligandH.pdb
REMARK  8 active torsions:
REMARK  status: ('A' for Active; 'I' for Inactive)
REMARK    1  A    between atoms: _5  and  _11
REMARK    2  A    between atoms: _19  and  _21
REMARK    3  A    between atoms: _22  and  _66
REMARK    4  A    between atoms: _27  and  _30
REMARK    5  A    between atoms: _32  and  _33
REMARK    6  A    between atoms: _38  and  _43
REMARK    7  A    between atoms: _43  and  _46
REMARK    8  A    between atoms: _53  and  _55
REMARK                            x       y       z     vdW  Elec       q    Type
REMARK                         _______ _______ _______ _____ _____    ______ ____
ROOT
ATOM     10  C   UNL     1      14.301 -22.097 -15.571  0.00  0.00    +0.038 A 
ATOM     11  C   UNL     1      15.476 -21.904 -14.802  0.00  0.00    +0.047 A 
ATOM     12  C   UNL     1      16.390 -23.003 -14.533  0.00  0.00    +0.035 A 
ATOM     32  C   UNL     1      16.076 -24.287 -15.066  0.00  0.00    +0.024 A 
ATOM     33  C   UNL     1      14.885 -24.503 -15.850  0.00  0.00    +0.007 A 
ATOM     34  C   UNL     1      13.979 -23.422 -16.116  0.00  0.00    -0.029 A 
ATOM     35  C   UNL     1      12.714 -23.712 -16.957  0.00  0.00    +0.045 C 
ENDROOT
BRANCH  10   9
ATOM      4  C   UNL     1      10.885 -19.025 -14.182  0.00  0.00    +0.077 A 
ATOM      5  C   UNL     1      10.747 -19.664 -12.905  0.00  0.00    +0.048 A 
ATOM      6  C   UNL     1      11.568 -20.785 -12.648  0.00  0.00    +0.116 A 
ATOM      7  N   UNL     1      12.458 -21.225 -13.604  0.00  0.00    -0.223 NA
ATOM      8  C   UNL     1      12.565 -20.586 -14.826  0.00  0.00    +0.220 A 
ATOM      9  N   UNL     1      13.459 -21.006 -15.799  0.00  0.00    -0.283 N 
ATOM     36  H   UNL     1      13.503 -20.513 -16.690  0.00  0.00    +0.155 HD
ATOM     37  N   UNL     1      11.791 -19.515 -15.096  0.00  0.00    -0.214 NA
BRANCH   4   3
ATOM      1  C   UNL     1       8.642 -15.821 -14.109  0.00  0.00    +0.020 A 
ATOM      2  C   UNL     1       9.396 -16.966 -13.652  0.00  0.00    +0.013 A 
ATOM      3  C   UNL     1      10.090 -17.828 -14.601  0.00  0.00    +0.019 A 
ATOM     38  C   UNL     1      10.001 -17.501 -16.016  0.00  0.00    +0.120 A 
ATOM     39  N   UNL     1       9.266 -16.393 -16.427  0.00  0.00    -0.263 NA
ATOM     40  C   UNL     1       8.592 -15.557 -15.523  0.00  0.00    +0.111 A 
ENDBRANCH   4   3
ENDBRANCH  10   9
BRANCH  12  13
ATOM     13  N   UNL     1      17.594 -22.868 -13.751  0.00  0.00    -0.281 N 
ATOM     14  C   UNL     1      18.791 -22.280 -14.125  0.00  0.00    +0.248 C 
ATOM     30  O   UNL     1      19.079 -21.969 -15.271  0.00  0.00    -0.270 OA
ATOM     31  H   UNL     1      17.559 -23.253 -12.807  0.00  0.00    +0.155 HD
BRANCH  14  15
ATOM     15  C   UNL     1      19.823 -22.013 -13.078  0.00  0.00    +0.037 A 
ATOM     16  C   UNL     1      19.968 -22.890 -11.913  0.00  0.00    +0.013 A 
ATOM     17  C   UNL     1      20.960 -22.599 -10.908  0.00  0.00    +0.005 A 
ATOM     18  C   UNL     1      21.816 -21.425 -11.066  0.00  0.00    -0.033 A 
ATOM     28  C   UNL     1      21.654 -20.575 -12.233  0.00  0.00    +0.005 A 
ATOM     29  C   UNL     1      20.682 -20.856 -13.219  0.00  0.00    +0.013 A 
BRANCH  18  19
ATOM     19  C   UNL     1      22.887 -21.027 -10.033  0.00  0.00    +0.119 C 
BRANCH  19  20
ATOM     20  N   UNL     1      22.409 -20.559  -8.698  0.00  0.00    -0.302 NA
ATOM     21  C   UNL     1      22.193 -19.044  -8.663  0.00  0.00    +0.066 C 
ATOM     22  C   UNL     1      21.671 -18.574  -7.266  0.00  0.00    -0.064 C 
ATOM     23  N   UNL     1      22.662 -19.005  -6.184  0.00  0.00    +0.379 N 
ATOM     24  C   UNL     1      22.204 -18.515  -4.876  0.00  0.00    -0.096 C 
ATOM     25  H   UNL     1      23.639 -18.515  -6.405  0.00  0.00    -0.082 HD
ATOM     26  C   UNL     1      22.885 -20.510  -6.212  0.00  0.00    -0.064 C 
ATOM     27  C   UNL     1      23.375 -20.970  -7.614  0.00  0.00    +0.066 C 
ENDBRANCH  19  20
ENDBRANCH  18  19
ENDBRANCH  14  15
ENDBRANCH  12  13
TORSDOF 6
ENDMDL
MODEL 4
REMARK VINA RESULT:      -8.1      2.342     12.354
REMARK  Name = C:\Users\Docking\Desktop\test protocol\1iep_ligandH.pdb
REMARK  8 active torsions:
REMARK  status: ('A' for Active; 'I' for Inactive)
REMARK    1  A    between atoms: _5  and  _11
REMARK    2  A    between atoms: _19  and  _21
REMARK    3  A    between atoms: _22  and  _66
REMARK    4  A    between atoms: _27  and  _30
REMARK    5  A    between atoms: _32  and  _33
REMARK    6  A    between atoms: _38  and  _43
REMARK    7  A    between atoms: _43  and  _46
REMARK    8  A    between atoms: _53  and  _55
REMARK                            x       y       z     vdW  Elec       q    Type
REMARK                         _______ _______ _______ _____ _____    ______ ____
ROOT
ATOM     10  C   UNL     1      19.460 -17.368 -19.022  0.00  0.00    +0.038 A 
ATOM     11  C   UNL     1      18.092 -17.473 -18.665  0.00  0.00    +0.047 A 
ATOM     12  C   UNL     1      17.416 -18.761 -18.644  0.00  0.00    +0.035 A 
ATOM     32  C   UNL     1      18.166 -19.923 -18.990  0.00  0.00    +0.024 A 
ATOM     33  C   UNL     1      19.558 -19.834 -19.356  0.00  0.00    +0.007 A 
ATOM     34  C   UNL     1      20.229 -18.566 -19.380  0.00  0.00    -0.029 A 
ATOM     35  C   UNL     1      21.720 -18.530 -19.787  0.00  0.00    +0.045 C 
ENDROOT
BRANCH  10   9
ATOM      4  C   UNL     1      20.752 -13.302 -21.221  0.00  0.00    +0.077 A 
ATOM      5  C   UNL     1      20.213 -13.740 -22.476  0.00  0.00    +0.048 A 
ATOM      6  C   UNL     1      19.618 -15.021 -22.515  0.00  0.00    +0.116 A 
ATOM      7  N   UNL     1      19.571 -15.797 -21.378  0.00  0.00    -0.223 NA
ATOM      8  C   UNL     1      20.102 -15.345 -20.184  0.00  0.00    +0.220 A 
ATOM      9  N   UNL     1      20.059 -16.106 -19.025  0.00  0.00    -0.283 N 
ATOM     36  H   UNL     1      20.468 -15.740 -18.166  0.00  0.00    +0.155 HD
ATOM     37  N   UNL     1      20.677 -14.126 -20.121  0.00  0.00    -0.214 NA
BRANCH   4   3
ATOM      1  C   UNL     1      22.869 -10.061 -21.781  0.00  0.00    +0.020 A 
ATOM      2  C   UNL     1      22.258 -11.347 -22.026  0.00  0.00    +0.013 A 
ATOM      3  C   UNL     1      21.409 -11.972 -21.019  0.00  0.00    +0.019 A 
ATOM     38  C   UNL     1      21.197 -11.263 -19.766  0.00  0.00    +0.120 A 
ATOM     39  N   UNL     1      21.800 -10.027 -19.558  0.00  0.00    -0.263 NA
ATOM     40  C   UNL     1      22.619  -9.416 -20.519  0.00  0.00    +0.111 A 
ENDBRANCH   4   3
ENDBRANCH  10   9
BRANCH  12  13
ATOM     13  N   UNL     1      16.026 -18.928 -18.298  0.00  0.00    -0.281 N 
ATOM     14  C   UNL     1      15.444 -19.967 -17.591  0.00  0.00    +0.248 C 
ATOM     30  O   UNL     1      16.000 -21.023 -17.330  0.00  0.00    -0.270 OA
ATOM     31  H   UNL     1      15.395 -18.191 -18.613  0.00  0.00    +0.155 HD
BRANCH  14  15
ATOM     15  C   UNL     1      14.035 -19.816 -17.116  0.00  0.00    +0.037 A 
ATOM     16  C   UNL     1      12.994 -19.264 -17.987  0.00  0.00    +0.013 A 
ATOM     17  C   UNL     1      11.646 -19.114 -17.499  0.00  0.00    +0.005 A 
ATOM     18  C   UNL     1      11.331 -19.518 -16.131  0.00  0.00    -0.033 A 
ATOM     28  C   UNL     1      12.381 -20.068 -15.290  0.00  0.00    +0.005 A 
ATOM     29  C   UNL     1      13.704 -20.216 -15.765  0.00  0.00    +0.013 A 
BRANCH  18  19
ATOM     19  C   UNL     1       9.925 -19.374 -15.519  0.00  0.00    +0.119 C 
BRANCH  19  20
ATOM     20  N   UNL     1       9.391 -17.990 -15.351  0.00  0.00    -0.302 NA
ATOM     21  C   UNL     1      10.139 -17.214 -14.263  0.00  0.00    +0.066 C 
ATOM     22  C   UNL     1       9.582 -15.760 -14.116  0.00  0.00    -0.064 C 
ATOM     23  N   UNL     1       8.085 -15.819 -13.808  0.00  0.00    +0.379 N 
ATOM     24  C   UNL     1       7.571 -14.456 -13.612  0.00  0.00    -0.096 C 
ATOM     25  H   UNL     1       7.960 -16.370 -12.846  0.00  0.00    -0.082 HD
ATOM     26  C   UNL     1       7.334 -16.592 -14.883  0.00  0.00    -0.064 C 
ATOM     27  C   UNL     1       7.915 -18.025 -15.041  0.00  0.00    +0.066 C 
ENDBRANCH  19  20
ENDBRANCH  18  19
ENDBRANCH  14  15
ENDBRANCH  12  13
TORSDOF 6
ENDMDL
MODEL 5
REMARK VINA RESULT:      -8.1      6.023     10.419
REMARK  Name = C:\Users\Docking\Desktop\test protocol\1iep_ligandH.pdb
REMARK  8 active torsions:
REMARK  status: ('A' for Active; 'I' for Inactive)
REMARK    1  A    between atoms: _5  and  _11
REMARK    2  A    between atoms: _19  and  _21
REMARK    3  A    between atoms: _22  and  _66
REMARK    4  A    between atoms: _27  and  _30
REMARK    5  A    between atoms: _32  and  _33
REMARK    6  A    between atoms: _38  and  _43
REMARK    7  A    between atoms: _43  and  _46
REMARK    8  A    between atoms: _53  and  _55
REMARK                            x       y       z     vdW  Elec       q    Type
REMARK                         _______ _______ _______ _____ _____    ______ ____
ROOT
ATOM     10  C   UNL     1       9.269 -21.572 -14.831  0.00  0.00    +0.038 A 
ATOM     11  C   UNL     1       9.377 -22.209 -13.569  0.00  0.00    +0.047 A 
ATOM     12  C   UNL     1      10.260 -23.348 -13.374  0.00  0.00    +0.035 A 
ATOM     32  C   UNL     1      11.021 -23.811 -14.487  0.00  0.00    +0.024 A 
ATOM     33  C   UNL     1      10.922 -23.176 -15.778  0.00  0.00    +0.007 A 
ATOM     34  C   UNL     1      10.051 -22.054 -15.976  0.00  0.00    -0.029 A 
ATOM     35  C   UNL     1       9.980 -21.416 -17.384  0.00  0.00    +0.045 C 
ENDROOT
BRANCH  10   9
ATOM      4  C   UNL     1       8.244 -16.906 -14.373  0.00  0.00    +0.077 A 
ATOM      5  C   UNL     1       9.527 -16.619 -13.800  0.00  0.00    +0.048 A 
ATOM      6  C   UNL     1      10.420 -17.702 -13.634  0.00  0.00    +0.116 A 
ATOM      7  N   UNL     1      10.046 -18.972 -14.016  0.00  0.00    -0.223 NA
ATOM      8  C   UNL     1       8.799 -19.214 -14.563  0.00  0.00    +0.220 A 
ATOM      9  N   UNL     1       8.405 -20.482 -14.962  0.00  0.00    -0.283 N 
ATOM     36  H   UNL     1       7.474 -20.621 -15.354  0.00  0.00    +0.155 HD
ATOM     37  N   UNL     1       7.928 -18.197 -14.731  0.00  0.00    -0.214 NA
BRANCH   4   3
ATOM      1  C   UNL     1       6.178 -13.586 -14.252  0.00  0.00    +0.020 A 
ATOM      2  C   UNL     1       7.217 -14.553 -13.984  0.00  0.00    +0.013 A 
ATOM      3  C   UNL     1       7.193 -15.867 -14.615  0.00  0.00    +0.019 A 
ATOM     38  C   UNL     1       6.095 -16.173 -15.519  0.00  0.00    +0.120 A 
ATOM     39  N   UNL     1       5.107 -15.222 -15.757  0.00  0.00    -0.263 NA
ATOM     40  C   UNL     1       5.119 -13.955 -15.155  0.00  0.00    +0.111 A 
ENDBRANCH   4   3
ENDBRANCH  10   9
BRANCH  12  13
ATOM     13  N   UNL     1      10.406 -24.040 -12.118  0.00  0.00    -0.281 N 
ATOM     14  C   UNL     1       9.790 -25.214 -11.716  0.00  0.00    +0.248 C 
ATOM     30  O   UNL     1       8.851 -25.737 -12.298  0.00  0.00    -0.270 OA
ATOM     31  H   UNL     1      11.040 -23.613 -11.443  0.00  0.00    +0.155 HD
BRANCH  14  15
ATOM     15  C   UNL     1      10.278 -25.900 -10.480  0.00  0.00    +0.037 A 
ATOM     16  C   UNL     1      11.459 -26.767 -10.509  0.00  0.00    +0.013 A 
ATOM     17  C   UNL     1      11.898 -27.430  -9.306  0.00  0.00    +0.005 A 
ATOM     18  C   UNL     1      11.157 -27.225  -8.064  0.00  0.00    -0.033 A 
ATOM     28  C   UNL     1       9.993 -26.355  -8.063  0.00  0.00    +0.005 A 
ATOM     29  C   UNL     1       9.558 -25.705  -9.240  0.00  0.00    +0.013 A 
BRANCH  18  19
ATOM     19  C   UNL     1      11.542 -27.909  -6.739  0.00  0.00    +0.119 C 
BRANCH  19  20
ATOM     20  N   UNL     1      12.126 -27.046  -5.669  0.00  0.00    -0.302 NA
ATOM     21  C   UNL     1      11.048 -26.444  -4.763  0.00  0.00    +0.066 C 
ATOM     22  C   UNL     1      11.678 -25.562  -3.637  0.00  0.00    -0.064 C 
ATOM     23  N   UNL     1      12.530 -24.461  -4.271  0.00  0.00    +0.379 N 
ATOM     24  C   UNL     1      13.077 -23.595  -3.216  0.00  0.00    -0.096 C 
ATOM     25  H   UNL     1      11.858 -23.838  -4.905  0.00  0.00    -0.082 HD
ATOM     26  C   UNL     1      13.603 -25.051  -5.175  0.00  0.00    -0.064 C 
ATOM     27  C   UNL     1      12.968 -25.949  -6.273  0.00  0.00    +0.066 C 
ENDBRANCH  19  20
ENDBRANCH  18  19
ENDBRANCH  14  15
ENDBRANCH  12  13
TORSDOF 6
ENDMDL
