MODEL 1
REMARK VINA RESULT:      -8.3      0.000      0.000
REMARK  Name = C:\Users\Docking\Desktop\test protocol\1iep_ligandH.pdb
REMARK  8 active torsions:
REMARK  status: ('A' for Active; 'I' for Inactive)
REMARK    1  A    between atoms: _5  and  _11
REMARK    2  A    between atoms: _19  and  _21
REMARK    3  A    between atoms: _22  and  _66
REMARK    4  A    between atoms: _27  and  _30
REMARK    5  A    between atoms: _32  and  _33
REMARK    6  A    between atoms: _38  and  _43
REMARK    7  A    between atoms: _43  and  _46
REMARK    8  A    between atoms: _53  and  _55
REMARK                            x       y       z     vdW  Elec       q    Type
REMARK                         _______ _______ _______ _____ _____    ______ ____
ROOT
ATOM     10  C   UNL     1      20.634  -1.254   8.433  0.00  0.00    +0.038 A 
ATOM     11  C   UNL     1      21.035  -1.349   9.790  0.00  0.00    +0.047 A 
ATOM     12  C   UNL     1      20.413  -2.304  10.694  0.00  0.00    +0.035 A 
ATOM     32  C   UNL     1      19.386  -3.148  10.181  0.00  0.00    +0.024 A 
ATOM     33  C   UNL     1      18.965  -3.065   8.805  0.00  0.00    +0.007 A 
ATOM     34  C   UNL     1      19.574  -2.123   7.909  0.00  0.00    -0.029 A 
ATOM     35  C   UNL     1      19.078  -2.072   6.445  0.00  0.00    +0.045 C 
ENDROOT
BRANCH  10   9
ATOM      4  C   UNL     1      20.745   2.935   6.093  0.00  0.00    +0.077 A 
ATOM      5  C   UNL     1      19.422   3.280   6.526  0.00  0.00    +0.048 A 
ATOM      6  C   UNL     1      18.744   2.348   7.344  0.00  0.00    +0.116 A 
ATOM      7  N   UNL     1      19.353   1.164   7.697  0.00  0.00    -0.223 NA
ATOM      8  C   UNL     1      20.631   0.862   7.261  0.00  0.00    +0.220 A 
ATOM      9  N   UNL     1      21.266  -0.320   7.610  0.00  0.00    -0.283 N 
ATOM     36  H   UNL     1      22.206  -0.509   7.262  0.00  0.00    +0.155 HD
ATOM     37  N   UNL     1      21.299   1.734   6.478  0.00  0.00    -0.214 NA
BRANCH   4   3
ATOM      1  C   UNL     1      23.783   4.898   4.603  0.00  0.00    +0.020 A 
ATOM      2  C   UNL     1      23.012   4.037   5.470  0.00  0.00    +0.013 A 
ATOM      3  C   UNL     1      21.591   3.817   5.228  0.00  0.00    +0.019 A 
ATOM     38  C   UNL     1      20.977   4.488   4.092  0.00  0.00    +0.120 A 
ATOM     39  N   UNL     1      21.745   5.313   3.276  0.00  0.00    -0.263 NA
ATOM     40  C   UNL     1      23.113   5.533   3.500  0.00  0.00    +0.111 A 
ENDBRANCH   4   3
ENDBRANCH  10   9
BRANCH  12  13
ATOM     13  N   UNL     1      20.773  -2.440  12.084  0.00  0.00    -0.281 N 
ATOM     14  C   UNL     1      21.415  -3.503  12.697  0.00  0.00    +0.248 C 
ATOM     30  O   UNL     1      21.588  -4.597  12.180  0.00  0.00    -0.270 OA
ATOM     31  H   UNL     1      20.524  -1.657  12.689  0.00  0.00    +0.155 HD
BRANCH  14  15
ATOM     15  C   UNL     1      21.927  -3.331  14.090  0.00  0.00    +0.037 A 
ATOM     16  C   UNL     1      23.303  -3.688  14.444  0.00  0.00    +0.013 A 
ATOM     17  C   UNL     1      23.766  -3.528  15.800  0.00  0.00    +0.005 A 
ATOM     18  C   UNL     1      22.851  -3.007  16.812  0.00  0.00    -0.033 A 
ATOM     28  C   UNL     1      21.493  -2.656  16.433  0.00  0.00    +0.005 A 
ATOM     29  C   UNL     1      21.035  -2.812  15.105  0.00  0.00    +0.013 A 
BRANCH  18  19
ATOM     19  C   UNL     1      23.253  -2.823  18.288  0.00  0.00    +0.119 C 
BRANCH  19  20
ATOM     20  N   UNL     1      24.606  -3.310  18.694  0.00  0.00    -0.302 NA
ATOM     21  C   UNL     1      24.524  -4.438  19.725  0.00  0.00    +0.066 C 
ATOM     22  C   UNL     1      25.947  -4.950  20.122  0.00  0.00    -0.064 C 
ATOM     23  N   UNL     1      26.775  -3.782  20.661  0.00  0.00    +0.379 N 
ATOM     24  C   UNL     1      28.093  -4.271  21.089  0.00  0.00    -0.096 C 
ATOM     25  H   UNL     1      26.252  -3.386  21.562  0.00  0.00    -0.082 HD
ATOM     26  C   UNL     1      26.858  -2.654  19.642  0.00  0.00    -0.064 C 
ATOM     27  C   UNL     1      25.438  -2.173  19.233  0.00  0.00    +0.066 C 
ENDBRANCH  19  20
ENDBRANCH  18  19
ENDBRANCH  14  15
ENDBRANCH  12  13
TORSDOF 6
ENDMDL
MODEL 2
REMARK VINA RESULT:      -8.2      1.424      2.124
REMARK  Name = C:\Users\Docking\Desktop\test protocol\1iep_ligandH.pdb
REMARK  8 active torsions:
REMARK  status: ('A' for Active; 'I' for Inactive)
REMARK    1  A    between atoms: _5  and  _11
REMARK    2  A    between atoms: _19  and  _21
REMARK    3  A    between atoms: _22  and  _66
REMARK    4  A    between atoms: _27  and  _30
REMARK    5  A    between atoms: _32  and  _33
REMARK    6  A    between atoms: _38  and  _43
REMARK    7  A    between atoms: _43  and  _46
REMARK    8  A    between atoms: _53  and  _55
REMARK                            x       y       z     vdW  Elec       q    Type
REMARK                         _______ _______ _______ _____ _____    ______ ____
ROOT
ATOM     10  C   UNL     1      20.679  -1.245   8.481  0.00  0.00    +0.038 A 
ATOM     11  C   UNL     1      21.138  -1.356   9.818  0.00  0.00    +0.047 A 
ATOM     12  C   UNL     1      20.539  -2.306  10.743  0.00  0.00    +0.035 A 
ATOM     32  C   UNL     1      19.475  -3.128  10.271  0.00  0.00    +0.024 A 
ATOM     33  C   UNL     1      18.995  -3.027   8.915  0.00  0.00    +0.007 A 
ATOM     34  C   UNL     1      19.580  -2.091   7.999  0.00  0.00    -0.029 A 
ATOM     35  C   UNL     1      19.021  -2.022   6.559  0.00  0.00    +0.045 C 
ENDROOT
BRANCH  10   9
ATOM      4  C   UNL     1      20.747   2.942   6.135  0.00  0.00    +0.077 A 
ATOM      5  C   UNL     1      19.442   3.298   6.612  0.00  0.00    +0.048 A 
ATOM      6  C   UNL     1      18.784   2.373   7.453  0.00  0.00    +0.116 A 
ATOM      7  N   UNL     1      19.395   1.184   7.786  0.00  0.00    -0.223 NA
ATOM      8  C   UNL     1      20.654   0.870   7.307  0.00  0.00    +0.220 A 
ATOM      9  N   UNL     1      21.291  -0.316   7.635  0.00  0.00    -0.283 N 
ATOM     36  H   UNL     1      22.216  -0.514   7.255  0.00  0.00    +0.155 HD
ATOM     37  N   UNL     1      21.303   1.736   6.501  0.00  0.00    -0.214 NA
BRANCH   4   3
ATOM      1  C   UNL     1      21.866   5.312   3.231  0.00  0.00    +0.020 A 
ATOM      2  C   UNL     1      21.027   4.478   4.061  0.00  0.00    +0.013 A 
ATOM      3  C   UNL     1      21.570   3.816   5.240  0.00  0.00    +0.019 A 
ATOM     38  C   UNL     1      22.976   4.021   5.555  0.00  0.00    +0.120 A 
ATOM     39  N   UNL     1      23.760   4.828   4.736  0.00  0.00    -0.263 NA
ATOM     40  C   UNL     1      23.248   5.469   3.598  0.00  0.00    +0.111 A 
ENDBRANCH   4   3
ENDBRANCH  10   9
BRANCH  12  13
ATOM     13  N   UNL     1      20.958  -2.458  12.114  0.00  0.00    -0.281 N 
ATOM     14  C   UNL     1      21.561  -3.557  12.703  0.00  0.00    +0.248 C 
ATOM     30  O   UNL     1      21.638  -4.662  12.188  0.00  0.00    -0.270 OA
ATOM     31  H   UNL     1      20.790  -1.658  12.724  0.00  0.00    +0.155 HD
BRANCH  14  15
ATOM     15  C   UNL     1      22.151  -3.411  14.069  0.00  0.00    +0.037 A 
ATOM     16  C   UNL     1      23.483  -3.937  14.381  0.00  0.00    +0.013 A 
ATOM     17  C   UNL     1      24.021  -3.798  15.711  0.00  0.00    +0.005 A 
ATOM     18  C   UNL     1      23.228  -3.128  16.739  0.00  0.00    -0.033 A 
ATOM     28  C   UNL     1      21.912  -2.611  16.400  0.00  0.00    +0.005 A 
ATOM     29  C   UNL     1      21.381  -2.746  15.098  0.00  0.00    +0.013 A 
BRANCH  18  19
ATOM     19  C   UNL     1      23.714  -2.953  18.190  0.00  0.00    +0.119 C 
BRANCH  19  20
ATOM     20  N   UNL     1      23.948  -1.559  18.670  0.00  0.00    -0.302 NA
ATOM     21  C   UNL     1      25.360  -1.373  19.230  0.00  0.00    +0.066 C 
ATOM     22  C   UNL     1      25.595   0.098  19.707  0.00  0.00    -0.064 C 
ATOM     23  N   UNL     1      24.543   0.465  20.755  0.00  0.00    +0.379 N 
ATOM     24  C   UNL     1      24.796   1.827  21.248  0.00  0.00    -0.096 C 
ATOM     25  H   UNL     1      24.665  -0.234  21.615  0.00  0.00    -0.082 HD
ATOM     26  C   UNL     1      23.135   0.280  20.207  0.00  0.00    -0.064 C 
ATOM     27  C   UNL     1      22.923  -1.176  19.709  0.00  0.00    +0.066 C 
ENDBRANCH  19  20
ENDBRANCH  18  19
ENDBRANCH  14  15
ENDBRANCH  12  13
TORSDOF 6
ENDMDL
MODEL 3
REMARK VINA RESULT:      -7.9     13.118     17.572
REMARK  Name = C:\Users\Docking\Desktop\test protocol\1iep_ligandH.pdb
REMARK  8 active torsions:
REMARK  status: ('A' for Active; 'I' for Inactive)
REMARK    1  A    between atoms: _5  and  _11
REMARK    2  A    between atoms: _19  and  _21
REMARK    3  A    between atoms: _22  and  _66
REMARK    4  A    between atoms: _27  and  _30
REMARK    5  A    between atoms: _32  and  _33
REMARK    6  A    between atoms: _38  and  _43
REMARK    7  A    between atoms: _43  and  _46
REMARK    8  A    between atoms: _53  and  _55
REMARK                            x       y       z     vdW  Elec       q    Type
REMARK                         _______ _______ _______ _____ _____    ______ ____
ROOT
ATOM     10  C   UNL     1      28.140   9.206   1.666  0.00  0.00    +0.038 A 
ATOM     11  C   UNL     1      26.752   8.937   1.553  0.00  0.00    +0.047 A 
ATOM     12  C   UNL     1      26.260   7.579   1.386  0.00  0.00    +0.035 A 
ATOM     32  C   UNL     1      27.209   6.517   1.341  0.00  0.00    +0.024 A 
ATOM     33  C   UNL     1      28.624   6.772   1.454  0.00  0.00    +0.007 A 
ATOM     34  C   UNL     1      29.116   8.110   1.617  0.00  0.00    -0.029 A 
ATOM     35  C   UNL     1      30.643   8.325   1.726  0.00  0.00    +0.045 C 
ENDROOT
BRANCH  10   9
ATOM      4  C   UNL     1      29.360  13.500  -0.097  0.00  0.00    +0.077 A 
ATOM      5  C   UNL     1      29.177  13.062  -1.451  0.00  0.00    +0.048 A 
ATOM      6  C   UNL     1      28.774  11.722  -1.651  0.00  0.00    +0.116 A 
ATOM      7  N   UNL     1      28.574  10.891  -0.570  0.00  0.00    -0.223 NA
ATOM      8  C   UNL     1      28.762  11.345   0.723  0.00  0.00    +0.220 A 
ATOM      9  N   UNL     1      28.558  10.529   1.825  0.00  0.00    -0.283 N 
ATOM     36  H   UNL     1      28.714  10.899   2.762  0.00  0.00    +0.155 HD
ATOM     37  N   UNL     1      29.147  12.620   0.940  0.00  0.00    -0.214 NA
BRANCH   4   3
ATOM      1  C   UNL     1      30.802  17.133  -0.252  0.00  0.00    +0.020 A 
ATOM      2  C   UNL     1      30.416  15.802  -0.663  0.00  0.00    +0.013 A 
ATOM      3  C   UNL     1      29.780  14.887   0.276  0.00  0.00    +0.019 A 
ATOM     38  C   UNL     1      29.546  15.353   1.634  0.00  0.00    +0.120 A 
ATOM     39  N   UNL     1      29.930  16.639   2.002  0.00  0.00    -0.263 NA
ATOM     40  C   UNL     1      30.544  17.528   1.107  0.00  0.00    +0.111 A 
ENDBRANCH   4   3
ENDBRANCH  10   9
BRANCH  12  13
ATOM     13  N   UNL     1      24.863   7.246   1.257  0.00  0.00    -0.281 N 
ATOM     14  C   UNL     1      24.163   6.242   1.906  0.00  0.00    +0.248 C 
ATOM     30  O   UNL     1      24.683   5.337   2.540  0.00  0.00    -0.270 OA
ATOM     31  H   UNL     1      24.324   7.820   0.608  0.00  0.00    +0.155 HD
BRANCH  14  15
ATOM     15  C   UNL     1      22.670   6.236   1.827  0.00  0.00    +0.037 A 
ATOM     16  C   UNL     1      21.875   5.251   2.565  0.00  0.00    +0.013 A 
ATOM     17  C   UNL     1      20.437   5.257   2.459  0.00  0.00    +0.005 A 
ATOM     18  C   UNL     1      19.786   6.252   1.610  0.00  0.00    -0.033 A 
ATOM     28  C   UNL     1      20.599   7.220   0.893  0.00  0.00    +0.005 A 
ATOM     29  C   UNL     1      22.008   7.217   0.995  0.00  0.00    +0.013 A 
BRANCH  18  19
ATOM     19  C   UNL     1      18.259   6.318   1.421  0.00  0.00    +0.119 C 
BRANCH  19  20
ATOM     20  N   UNL     1      17.632   5.279   0.549  0.00  0.00    -0.302 NA
ATOM     21  C   UNL     1      17.950   5.505  -0.932  0.00  0.00    +0.066 C 
ATOM     22  C   UNL     1      17.306   4.396  -1.827  0.00  0.00    -0.064 C 
ATOM     23  N   UNL     1      15.794   4.372  -1.595  0.00  0.00    +0.379 N 
ATOM     24  C   UNL     1      15.178   3.371  -2.477  0.00  0.00    -0.096 C 
ATOM     25  H   UNL     1      15.392   5.371  -1.883  0.00  0.00    -0.082 HD
ATOM     26  C   UNL     1      15.469   4.151  -0.124  0.00  0.00    -0.064 C 
ATOM     27  C   UNL     1      16.139   5.241   0.759  0.00  0.00    +0.066 C 
ENDBRANCH  19  20
ENDBRANCH  18  19
ENDBRANCH  14  15
ENDBRANCH  12  13
TORSDOF 6
ENDMDL
MODEL 4
REMARK VINA RESULT:      -7.8      3.762     15.212
REMARK  Name = C:\Users\Docking\Desktop\test protocol\1iep_ligandH.pdb
REMARK  8 active torsions:
REMARK  status: ('A' for Active; 'I' for Inactive)
REMARK    1  A    between atoms: _5  and  _11
REMARK    2  A    between atoms: _19  and  _21
REMARK    3  A    between atoms: _22  and  _66
REMARK    4  A    between atoms: _27  and  _30
REMARK    5  A    between atoms: _32  and  _33
REMARK    6  A    between atoms: _38  and  _43
REMARK    7  A    between atoms: _43  and  _46
REMARK    8  A    between atoms: _53  and  _55
REMARK                            x       y       z     vdW  Elec       q    Type
REMARK                         _______ _______ _______ _____ _____    ______ ____
ROOT
ATOM     10  C   UNL     1      25.933  -5.007  19.939  0.00  0.00    +0.038 A 
ATOM     11  C   UNL     1      25.012  -4.798  18.881  0.00  0.00    +0.047 A 
ATOM     12  C   UNL     1      24.977  -3.540  18.151  0.00  0.00    +0.035 A 
ATOM     32  C   UNL     1      25.897  -2.517  18.524  0.00  0.00    +0.024 A 
ATOM     33  C   UNL     1      26.839  -2.712  19.598  0.00  0.00    +0.007 A 
ATOM     34  C   UNL     1      26.876  -3.950  20.323  0.00  0.00    -0.029 A 
ATOM     35  C   UNL     1      27.904  -4.101  21.469  0.00  0.00    +0.045 C 
ENDROOT
BRANCH  10   9
ATOM      4  C   UNL     1      24.265  -7.971  23.325  0.00  0.00    +0.077 A 
ATOM      5  C   UNL     1      23.355  -6.982  23.827  0.00  0.00    +0.048 A 
ATOM      6  C   UNL     1      23.353  -5.721  23.190  0.00  0.00    +0.116 A 
ATOM      7  N   UNL     1      24.201  -5.478  22.131  0.00  0.00    -0.223 NA
ATOM      8  C   UNL     1      25.067  -6.454  21.673  0.00  0.00    +0.220 A 
ATOM      9  N   UNL     1      25.923  -6.234  20.605  0.00  0.00    -0.283 N 
ATOM     36  H   UNL     1      26.552  -6.977  20.302  0.00  0.00    +0.155 HD
ATOM     37  N   UNL     1      25.090  -7.666  22.266  0.00  0.00    -0.214 NA
BRANCH   4   3
ATOM      1  C   UNL     1      24.597 -10.970  25.814  0.00  0.00    +0.020 A 
ATOM      2  C   UNL     1      24.485  -9.617  25.320  0.00  0.00    +0.013 A 
ATOM      3  C   UNL     1      24.383  -9.352  23.891  0.00  0.00    +0.019 A 
ATOM     38  C   UNL     1      24.395 -10.488  22.981  0.00  0.00    +0.120 A 
ATOM     39  N   UNL     1      24.505 -11.780  23.486  0.00  0.00    -0.263 NA
ATOM     40  C   UNL     1      24.606 -12.047  24.859  0.00  0.00    +0.111 A 
ENDBRANCH   4   3
ENDBRANCH  10   9
BRANCH  12  13
ATOM     13  N   UNL     1      24.058  -3.267  17.074  0.00  0.00    -0.281 N 
ATOM     14  C   UNL     1      24.022  -3.849  15.818  0.00  0.00    +0.248 C 
ATOM     30  O   UNL     1      24.913  -4.546  15.353  0.00  0.00    -0.270 OA
ATOM     31  H   UNL     1      23.349  -2.558  17.260  0.00  0.00    +0.155 HD
BRANCH  14  15
ATOM     15  C   UNL     1      22.832  -3.613  14.946  0.00  0.00    +0.037 A 
ATOM     16  C   UNL     1      21.749  -2.719  15.364  0.00  0.00    +0.013 A 
ATOM     17  C   UNL     1      20.604  -2.521  14.512  0.00  0.00    +0.005 A 
ATOM     18  C   UNL     1      20.536  -3.219  13.230  0.00  0.00    -0.033 A 
ATOM     28  C   UNL     1      21.626  -4.097  12.838  0.00  0.00    +0.005 A 
ATOM     29  C   UNL     1      22.750  -4.293  13.671  0.00  0.00    +0.013 A 
BRANCH  18  19
ATOM     19  C   UNL     1      19.342  -3.085  12.267  0.00  0.00    +0.119 C 
BRANCH  19  20
ATOM     20  N   UNL     1      19.446  -2.057  11.188  0.00  0.00    -0.302 NA
ATOM     21  C   UNL     1      20.875  -1.930  10.653  0.00  0.00    +0.066 C 
ATOM     22  C   UNL     1      20.962  -0.867   9.509  0.00  0.00    -0.064 C 
ATOM     23  N   UNL     1      20.456   0.480  10.029  0.00  0.00    +0.379 N 
ATOM     24  C   UNL     1      20.591   1.495   8.974  0.00  0.00    -0.096 C 
ATOM     25  H   UNL     1      21.114   0.783  10.877  0.00  0.00    -0.082 HD
ATOM     26  C   UNL     1      19.037   0.361  10.566  0.00  0.00    -0.064 C 
ATOM     27  C   UNL     1      18.956  -0.719  11.681  0.00  0.00    +0.066 C 
ENDBRANCH  19  20
ENDBRANCH  18  19
ENDBRANCH  14  15
ENDBRANCH  12  13
TORSDOF 6
ENDMDL
MODEL 5
REMARK VINA RESULT:      -7.8      3.852     13.224
REMARK  Name = C:\Users\Docking\Desktop\test protocol\1iep_ligandH.pdb
REMARK  8 active torsions:
REMARK  status: ('A' for Active; 'I' for Inactive)
REMARK    1  A    between atoms: _5  and  _11
REMARK    2  A    between atoms: _19  and  _21
REMARK    3  A    between atoms: _22  and  _66
REMARK    4  A    between atoms: _27  and  _30
REMARK    5  A    between atoms: _32  and  _33
REMARK    6  A    between atoms: _38  and  _43
REMARK    7  A    between atoms: _43  and  _46
REMARK    8  A    between atoms: _53  and  _55
REMARK                            x       y       z     vdW  Elec       q    Type
REMARK                         _______ _______ _______ _____ _____    ______ ____
ROOT
ATOM     10  C   UNL     1      20.741  -1.430  16.835  0.00  0.00    +0.038 A 
ATOM     11  C   UNL     1      20.867  -1.518  15.425  0.00  0.00    +0.047 A 
ATOM     12  C   UNL     1      19.954  -0.808  14.542  0.00  0.00    +0.035 A 
ATOM     32  C   UNL     1      18.925  -0.016  15.130  0.00  0.00    +0.024 A 
ATOM     33  C   UNL     1      18.782   0.083  16.561  0.00  0.00    +0.007 A 
ATOM     34  C   UNL     1      19.678  -0.616  17.437  0.00  0.00    -0.029 A 
ATOM     35  C   UNL     1      19.473  -0.479  18.964  0.00  0.00    +0.045 C 
ENDROOT
BRANCH  10   9
ATOM      4  C   UNL     1      24.759  -1.699  19.446  0.00  0.00    +0.077 A 
ATOM      5  C   UNL     1      25.100  -0.333  19.171  0.00  0.00    +0.048 A 
ATOM      6  C   UNL     1      24.218   0.402  18.347  0.00  0.00    +0.116 A 
ATOM      7  N   UNL     1      23.083  -0.194  17.842  0.00  0.00    -0.223 NA
ATOM      8  C   UNL     1      22.785  -1.514  18.126  0.00  0.00    +0.220 A 
ATOM      9  N   UNL     1      21.645  -2.132  17.635  0.00  0.00    -0.283 N 
ATOM     36  H   UNL     1      21.465  -3.110  17.861  0.00  0.00    +0.155 HD
ATOM     37  N   UNL     1      23.612  -2.239  18.908  0.00  0.00    -0.214 NA
BRANCH   4   3
ATOM      1  C   UNL     1      27.621  -4.039  20.726  0.00  0.00    +0.020 A 
ATOM      2  C   UNL     1      26.858  -3.169  19.860  0.00  0.00    +0.013 A 
ATOM      3  C   UNL     1      25.589  -2.605  20.302  0.00  0.00    +0.019 A 
ATOM     38  C   UNL     1      25.116  -2.942  21.636  0.00  0.00    +0.120 A 
ATOM     39  N   UNL     1      25.872  -3.783  22.448  0.00  0.00    -0.263 NA
ATOM     40  C   UNL     1      27.094  -4.333  22.033  0.00  0.00    +0.111 A 
ENDBRANCH   4   3
ENDBRANCH  10   9
BRANCH  12  13
ATOM     13  N   UNL     1      20.028  -0.866  13.103  0.00  0.00    -0.281 N 
ATOM     14  C   UNL     1      20.353  -1.954  12.310  0.00  0.00    +0.248 C 
ATOM     30  O   UNL     1      20.840  -2.994  12.729  0.00  0.00    -0.270 OA
ATOM     31  H   UNL     1      19.815   0.001  12.610  0.00  0.00    +0.155 HD
BRANCH  14  15
ATOM     15  C   UNL     1      20.116  -1.870  10.837  0.00  0.00    +0.037 A 
ATOM     16  C   UNL     1      21.156  -1.383   9.927  0.00  0.00    +0.013 A 
ATOM     17  C   UNL     1      20.895  -1.296   8.512  0.00  0.00    +0.005 A 
ATOM     18  C   UNL     1      19.588  -1.699   7.998  0.00  0.00    -0.033 A 
ATOM     28  C   UNL     1      18.576  -2.183   8.923  0.00  0.00    +0.005 A 
ATOM     29  C   UNL     1      18.828  -2.269  10.311  0.00  0.00    +0.013 A 
BRANCH  18  19
ATOM     19  C   UNL     1      19.215  -1.619   6.506  0.00  0.00    +0.119 C 
BRANCH  19  20
ATOM     20  N   UNL     1      18.331  -2.694   5.964  0.00  0.00    -0.302 NA
ATOM     21  C   UNL     1      19.020  -3.502   4.860  0.00  0.00    +0.066 C 
ATOM     22  C   UNL     1      18.090  -4.636   4.320  0.00  0.00    -0.064 C 
ATOM     23  N   UNL     1      16.785  -4.022   3.808  0.00  0.00    +0.379 N 
ATOM     24  C   UNL     1      15.932  -5.080   3.247  0.00  0.00    -0.096 C 
ATOM     25  H   UNL     1      17.044  -3.321   2.981  0.00  0.00    -0.082 HD
ATOM     26  C   UNL     1      16.095  -3.215   4.899  0.00  0.00    -0.064 C 
ATOM     27  C   UNL     1      17.039  -2.109   5.449  0.00  0.00    +0.066 C 
ENDBRANCH  19  20
ENDBRANCH  18  19
ENDBRANCH  14  15
ENDBRANCH  12  13
TORSDOF 6
ENDMDL
