MODEL 1
REMARK VINA RESULT:      -8.8      0.000      0.000
REMARK  Name = C:\Users\Docking\Desktop\test protocol\1iep_ligandH.pdb
REMARK  8 active torsions:
REMARK  status: ('A' for Active; 'I' for Inactive)
REMARK    1  A    between atoms: _5  and  _11
REMARK    2  A    between atoms: _19  and  _21
REMARK    3  A    between atoms: _22  and  _66
REMARK    4  A    between atoms: _27  and  _30
REMARK    5  A    between atoms: _32  and  _33
REMARK    6  A    between atoms: _38  and  _43
REMARK    7  A    between atoms: _43  and  _46
REMARK    8  A    between atoms: _53  and  _55
REMARK                            x       y       z     vdW  Elec       q    Type
REMARK                         _______ _______ _______ _____ _____    ______ ____
ROOT
ATOM     10  C   UNL     1      19.853  60.508  19.048  0.00  0.00    +0.038 A 
ATOM     11  C   UNL     1      18.524  60.785  18.635  0.00  0.00    +0.047 A 
ATOM     12  C   UNL     1      17.979  62.131  18.710  0.00  0.00    +0.035 A 
ATOM     32  C   UNL     1      18.815  63.173  19.207  0.00  0.00    +0.024 A 
ATOM     33  C   UNL     1      20.168  62.909  19.632  0.00  0.00    +0.007 A 
ATOM     34  C   UNL     1      20.710  61.582  19.563  0.00  0.00    -0.029 A 
ATOM     35  C   UNL     1      22.165  61.356  20.038  0.00  0.00    +0.045 C 
ENDROOT
BRANCH  10   9
ATOM      4  C   UNL     1      20.932  56.250  20.983  0.00  0.00    +0.077 A 
ATOM      5  C   UNL     1      20.547  56.683  22.296  0.00  0.00    +0.048 A 
ATOM      6  C   UNL     1      20.084  58.011  22.431  0.00  0.00    +0.116 A 
ATOM      7  N   UNL     1      20.014  58.835  21.329  0.00  0.00    -0.223 NA
ATOM      8  C   UNL     1      20.395  58.387  20.078  0.00  0.00    +0.220 A 
ATOM      9  N   UNL     1      20.325  59.197  18.955  0.00  0.00    -0.283 N 
ATOM     36  H   UNL     1      20.622  58.831  18.050  0.00  0.00    +0.155 HD
ATOM     37  N   UNL     1      20.842  57.124  19.922  0.00  0.00    -0.214 NA
BRANCH   4   3
ATOM      1  C   UNL     1      21.404  52.718  19.370  0.00  0.00    +0.020 A 
ATOM      2  C   UNL     1      20.878  54.039  19.624  0.00  0.00    +0.013 A 
ATOM      3  C   UNL     1      21.439  54.875  20.678  0.00  0.00    +0.019 A 
ATOM     38  C   UNL     1      22.542  54.340  21.463  0.00  0.00    +0.120 A 
ATOM     39  N   UNL     1      23.027  53.063  21.196  0.00  0.00    -0.263 NA
ATOM     40  C   UNL     1      22.494  52.250  20.186  0.00  0.00    +0.111 A 
ENDBRANCH   4   3
ENDBRANCH  10   9
BRANCH  12  13
ATOM     13  N   UNL     1      16.635  62.471  18.313  0.00  0.00    -0.281 N 
ATOM     14  C   UNL     1      16.216  63.035  17.119  0.00  0.00    +0.248 C 
ATOM     30  O   UNL     1      16.964  63.532  16.290  0.00  0.00    -0.270 OA
ATOM     31  H   UNL     1      15.903  62.272  18.995  0.00  0.00    +0.155 HD
BRANCH  14  15
ATOM     15  C   UNL     1      14.755  63.064  16.807  0.00  0.00    +0.037 A 
ATOM     16  C   UNL     1      13.755  62.720  17.821  0.00  0.00    +0.013 A 
ATOM     17  C   UNL     1      12.352  62.739  17.488  0.00  0.00    +0.005 A 
ATOM     18  C   UNL     1      11.941  63.106  16.135  0.00  0.00    -0.033 A 
ATOM     28  C   UNL     1      12.955  63.448  15.151  0.00  0.00    +0.005 A 
ATOM     29  C   UNL     1      14.330  63.429  15.472  0.00  0.00    +0.013 A 
BRANCH  18  19
ATOM     19  C   UNL     1      10.468  63.133  15.687  0.00  0.00    +0.119 C 
BRANCH  19  20
ATOM     20  N   UNL     1       9.749  61.825  15.623  0.00  0.00    -0.302 NA
ATOM     21  C   UNL     1      10.644  60.703  15.090  0.00  0.00    +0.066 C 
ATOM     22  C   UNL     1       9.882  59.338  15.052  0.00  0.00    -0.064 C 
ATOM     23  N   UNL     1       8.625  59.483  14.192  0.00  0.00    +0.379 N 
ATOM     24  C   UNL     1       7.938  58.186  14.106  0.00  0.00    -0.096 C 
ATOM     25  H   UNL     1       8.950  59.762  13.163  0.00  0.00    -0.082 HD
ATOM     26  C   UNL     1       7.731  60.599  14.713  0.00  0.00    -0.064 C 
ATOM     27  C   UNL     1       8.506  61.944  14.776  0.00  0.00    +0.066 C 
ENDBRANCH  19  20
ENDBRANCH  18  19
ENDBRANCH  14  15
ENDBRANCH  12  13
TORSDOF 6
ENDMDL
MODEL 2
REMARK VINA RESULT:      -8.8      1.429      2.296
REMARK  Name = C:\Users\Docking\Desktop\test protocol\1iep_ligandH.pdb
REMARK  8 active torsions:
REMARK  status: ('A' for Active; 'I' for Inactive)
REMARK    1  A    between atoms: _5  and  _11
REMARK    2  A    between atoms: _19  and  _21
REMARK    3  A    between atoms: _22  and  _66
REMARK    4  A    between atoms: _27  and  _30
REMARK    5  A    between atoms: _32  and  _33
REMARK    6  A    between atoms: _38  and  _43
REMARK    7  A    between atoms: _43  and  _46
REMARK    8  A    between atoms: _53  and  _55
REMARK                            x       y       z     vdW  Elec       q    Type
REMARK                         _______ _______ _______ _____ _____    ______ ____
ROOT
ATOM     10  C   UNL     1      19.814  60.305  19.247  0.00  0.00    +0.038 A 
ATOM     11  C   UNL     1      18.462  60.519  18.877  0.00  0.00    +0.047 A 
ATOM     12  C   UNL     1      17.856  61.838  18.967  0.00  0.00    +0.035 A 
ATOM     32  C   UNL     1      18.658  62.919  19.437  0.00  0.00    +0.024 A 
ATOM     33  C   UNL     1      20.034  62.720  19.819  0.00  0.00    +0.007 A 
ATOM     34  C   UNL     1      20.636  61.420  19.733  0.00  0.00    -0.029 A 
ATOM     35  C   UNL     1      22.114  61.263  20.162  0.00  0.00    +0.045 C 
ENDROOT
BRANCH  10   9
ATOM      4  C   UNL     1      21.050  56.066  21.128  0.00  0.00    +0.077 A 
ATOM      5  C   UNL     1      20.628  56.459  22.441  0.00  0.00    +0.048 A 
ATOM      6  C   UNL     1      20.105  57.763  22.592  0.00  0.00    +0.116 A 
ATOM      7  N   UNL     1      20.015  58.603  21.503  0.00  0.00    -0.223 NA
ATOM      8  C   UNL     1      20.433  58.193  20.250  0.00  0.00    +0.220 A 
ATOM      9  N   UNL     1      20.345  59.018  19.139  0.00  0.00    -0.283 N 
ATOM     36  H   UNL     1      20.671  58.681  18.234  0.00  0.00    +0.155 HD
ATOM     37  N   UNL     1      20.938  56.953  20.081  0.00  0.00    -0.214 NA
BRANCH   4   3
ATOM      1  C   UNL     1      23.244  52.829  21.201  0.00  0.00    +0.020 A 
ATOM      2  C   UNL     1      22.731  54.133  21.550  0.00  0.00    +0.013 A 
ATOM      3  C   UNL     1      21.621  54.720  20.808  0.00  0.00    +0.019 A 
ATOM     38  C   UNL     1      21.049  53.954  19.712  0.00  0.00    +0.120 A 
ATOM     39  N   UNL     1      21.565  52.700  19.397  0.00  0.00    -0.263 NA
ATOM     40  C   UNL     1      22.634  52.127  20.102  0.00  0.00    +0.111 A 
ENDBRANCH   4   3
ENDBRANCH  10   9
BRANCH  12  13
ATOM     13  N   UNL     1      16.486  62.114  18.614  0.00  0.00    -0.281 N 
ATOM     14  C   UNL     1      16.005  62.679  17.443  0.00  0.00    +0.248 C 
ATOM     30  O   UNL     1      16.703  63.232  16.606  0.00  0.00    -0.270 OA
ATOM     31  H   UNL     1      15.785  61.862  19.310  0.00  0.00    +0.155 HD
BRANCH  14  15
ATOM     15  C   UNL     1      14.537  62.635  17.171  0.00  0.00    +0.037 A 
ATOM     16  C   UNL     1      13.578  62.296  18.225  0.00  0.00    +0.013 A 
ATOM     17  C   UNL     1      12.167  62.244  17.931  0.00  0.00    +0.005 A 
ATOM     18  C   UNL     1      11.708  62.535  16.575  0.00  0.00    -0.033 A 
ATOM     28  C   UNL     1      12.680  62.875  15.549  0.00  0.00    +0.005 A 
ATOM     29  C   UNL     1      14.063  62.925  15.834  0.00  0.00    +0.013 A 
BRANCH  18  19
ATOM     19  C   UNL     1      10.224  62.484  16.166  0.00  0.00    +0.119 C 
BRANCH  19  20
ATOM     20  N   UNL     1       9.826  63.234  14.938  0.00  0.00    -0.302 NA
ATOM     21  C   UNL     1       9.804  64.747  15.171  0.00  0.00    +0.066 C 
ATOM     22  C   UNL     1       9.408  65.518  13.870  0.00  0.00    -0.064 C 
ATOM     23  N   UNL     1       8.045  65.025  13.383  0.00  0.00    +0.379 N 
ATOM     24  C   UNL     1       7.643  65.789  12.192  0.00  0.00    -0.096 C 
ATOM     25  H   UNL     1       7.302  65.237  14.187  0.00  0.00    -0.082 HD
ATOM     26  C   UNL     1       8.057  63.521  13.150  0.00  0.00    -0.064 C 
ATOM     27  C   UNL     1       8.480  62.766  14.441  0.00  0.00    +0.066 C 
ENDBRANCH  19  20
ENDBRANCH  18  19
ENDBRANCH  14  15
ENDBRANCH  12  13
TORSDOF 6
ENDMDL
MODEL 3
REMARK VINA RESULT:      -8.7      2.632     12.355
REMARK  Name = C:\Users\Docking\Desktop\test protocol\1iep_ligandH.pdb
REMARK  8 active torsions:
REMARK  status: ('A' for Active; 'I' for Inactive)
REMARK    1  A    between atoms: _5  and  _11
REMARK    2  A    between atoms: _19  and  _21
REMARK    3  A    between atoms: _22  and  _66
REMARK    4  A    between atoms: _27  and  _30
REMARK    5  A    between atoms: _32  and  _33
REMARK    6  A    between atoms: _38  and  _43
REMARK    7  A    between atoms: _43  and  _46
REMARK    8  A    between atoms: _53  and  _55
REMARK                            x       y       z     vdW  Elec       q    Type
REMARK                         _______ _______ _______ _____ _____    ______ ____
ROOT
ATOM     10  C   UNL     1       9.444  62.959  14.393  0.00  0.00    +0.038 A 
ATOM     11  C   UNL     1      10.694  62.914  15.063  0.00  0.00    +0.047 A 
ATOM     12  C   UNL     1      11.883  63.512  14.477  0.00  0.00    +0.035 A 
ATOM     32  C   UNL     1      11.764  64.150  13.208  0.00  0.00    +0.024 A 
ATOM     33  C   UNL     1      10.502  64.204  12.513  0.00  0.00    +0.007 A 
ATOM     34  C   UNL     1       9.325  63.614  13.085  0.00  0.00    -0.029 A 
ATOM     35  C   UNL     1       8.000  63.696  12.292  0.00  0.00    +0.045 C 
ENDROOT
BRANCH  10   9
ATOM      4  C   UNL     1       6.745  59.142  15.482  0.00  0.00    +0.077 A 
ATOM      5  C   UNL     1       7.604  58.253  14.754  0.00  0.00    +0.048 A 
ATOM      6  C   UNL     1       8.726  58.819  14.108  0.00  0.00    +0.116 A 
ATOM      7  N   UNL     1       8.962  60.174  14.190  0.00  0.00    -0.223 NA
ATOM      8  C   UNL     1       8.112  61.004  14.899  0.00  0.00    +0.220 A 
ATOM      9  N   UNL     1       8.335  62.368  15.002  0.00  0.00    -0.283 N 
ATOM     36  H   UNL     1       7.680  62.947  15.528  0.00  0.00    +0.155 HD
ATOM     37  N   UNL     1       7.034  60.488  15.524  0.00  0.00    -0.214 NA
BRANCH   4   3
ATOM      1  C   UNL     1       3.153  57.831  16.307  0.00  0.00    +0.020 A 
ATOM      2  C   UNL     1       4.307  58.254  15.547  0.00  0.00    +0.013 A 
ATOM      3  C   UNL     1       5.522  58.694  16.220  0.00  0.00    +0.019 A 
ATOM     38  C   UNL     1       5.538  58.694  17.675  0.00  0.00    +0.120 A 
ATOM     39  N   UNL     1       4.412  58.283  18.381  0.00  0.00    -0.263 NA
ATOM     40  C   UNL     1       3.236  57.859  17.744  0.00  0.00    +0.111 A 
ENDBRANCH   4   3
ENDBRANCH  10   9
BRANCH  12  13
ATOM     13  N   UNL     1      13.180  63.491  15.106  0.00  0.00    -0.281 N 
ATOM     14  C   UNL     1      13.496  63.809  16.417  0.00  0.00    +0.248 C 
ATOM     30  O   UNL     1      12.737  64.368  17.195  0.00  0.00    -0.270 OA
ATOM     31  H   UNL     1      13.961  63.207  14.513  0.00  0.00    +0.155 HD
BRANCH  14  15
ATOM     15  C   UNL     1      14.857  63.469  16.935  0.00  0.00    +0.037 A 
ATOM     16  C   UNL     1      15.124  63.387  18.373  0.00  0.00    +0.013 A 
ATOM     17  C   UNL     1      16.449  63.074  18.846  0.00  0.00    +0.005 A 
ATOM     18  C   UNL     1      17.518  62.839  17.878  0.00  0.00    -0.033 A 
ATOM     28  C   UNL     1      17.224  62.921  16.457  0.00  0.00    +0.005 A 
ATOM     29  C   UNL     1      15.926  63.228  15.990  0.00  0.00    +0.013 A 
BRANCH  18  19
ATOM     19  C   UNL     1      18.966  62.520  18.292  0.00  0.00    +0.119 C 
BRANCH  19  20
ATOM     20  N   UNL     1      19.178  61.344  19.189  0.00  0.00    -0.302 NA
ATOM     21  C   UNL     1      20.665  61.057  19.419  0.00  0.00    +0.066 C 
ATOM     22  C   UNL     1      20.868  59.839  20.377  0.00  0.00    -0.064 C 
ATOM     23  N   UNL     1      20.163  58.612  19.793  0.00  0.00    +0.379 N 
ATOM     24  C   UNL     1      20.401  57.451  20.662  0.00  0.00    -0.096 C 
ATOM     25  H   UNL     1      20.628  58.395  18.803  0.00  0.00    -0.082 HD
ATOM     26  C   UNL     1      18.685  58.890  19.559  0.00  0.00    -0.064 C 
ATOM     27  C   UNL     1      18.494  60.121  18.629  0.00  0.00    +0.066 C 
ENDBRANCH  19  20
ENDBRANCH  18  19
ENDBRANCH  14  15
ENDBRANCH  12  13
TORSDOF 6
ENDMDL
MODEL 4
REMARK VINA RESULT:      -8.6      2.123      2.922
REMARK  Name = C:\Users\Docking\Desktop\test protocol\1iep_ligandH.pdb
REMARK  8 active torsions:
REMARK  status: ('A' for Active; 'I' for Inactive)
REMARK    1  A    between atoms: _5  and  _11
REMARK    2  A    between atoms: _19  and  _21
REMARK    3  A    between atoms: _22  and  _66
REMARK    4  A    between atoms: _27  and  _30
REMARK    5  A    between atoms: _32  and  _33
REMARK    6  A    between atoms: _38  and  _43
REMARK    7  A    between atoms: _43  and  _46
REMARK    8  A    between atoms: _53  and  _55
REMARK                            x       y       z     vdW  Elec       q    Type
REMARK                         _______ _______ _______ _____ _____    ______ ____
ROOT
ATOM     10  C   UNL     1      20.096  60.323  19.319  0.00  0.00    +0.038 A 
ATOM     11  C   UNL     1      18.851  60.640  18.717  0.00  0.00    +0.047 A 
ATOM     12  C   UNL     1      18.297  61.983  18.798  0.00  0.00    +0.035 A 
ATOM     32  C   UNL     1      19.038  62.979  19.497  0.00  0.00    +0.024 A 
ATOM     33  C   UNL     1      20.305  62.674  20.115  0.00  0.00    +0.007 A 
ATOM     34  C   UNL     1      20.855  61.351  20.041  0.00  0.00    -0.029 A 
ATOM     35  C   UNL     1      22.214  61.079  20.728  0.00  0.00    +0.045 C 
ENDROOT
BRANCH  10   9
ATOM      4  C   UNL     1      21.002  55.979  21.147  0.00  0.00    +0.077 A 
ATOM      5  C   UNL     1      20.490  56.349  22.434  0.00  0.00    +0.048 A 
ATOM      6  C   UNL     1      20.009  57.669  22.587  0.00  0.00    +0.116 A 
ATOM      7  N   UNL     1      20.043  58.545  21.524  0.00  0.00    -0.223 NA
ATOM      8  C   UNL     1      20.545  58.156  20.295  0.00  0.00    +0.220 A 
ATOM      9  N   UNL     1      20.581  59.018  19.210  0.00  0.00    -0.283 N 
ATOM     36  H   UNL     1      20.967  58.696  18.323  0.00  0.00    +0.155 HD
ATOM     37  N   UNL     1      21.012  56.902  20.124  0.00  0.00    -0.214 NA
BRANCH   4   3
ATOM      1  C   UNL     1      21.549  52.468  19.510  0.00  0.00    +0.020 A 
ATOM      2  C   UNL     1      20.990  53.773  19.778  0.00  0.00    +0.013 A 
ATOM      3  C   UNL     1      21.543  54.619  20.828  0.00  0.00    +0.019 A 
ATOM     38  C   UNL     1      22.671  54.112  21.594  0.00  0.00    +0.120 A 
ATOM     39  N   UNL     1      23.188  52.851  21.314  0.00  0.00    -0.263 NA
ATOM     40  C   UNL     1      22.663  52.027  20.308  0.00  0.00    +0.111 A 
ENDBRANCH   4   3
ENDBRANCH  10   9
BRANCH  12  13
ATOM     13  N   UNL     1      17.034  62.361  18.214  0.00  0.00    -0.281 N 
ATOM     14  C   UNL     1      16.814  63.175  17.114  0.00  0.00    +0.248 C 
ATOM     30  O   UNL     1      17.668  63.877  16.592  0.00  0.00    -0.270 OA
ATOM     31  H   UNL     1      16.201  61.984  18.666  0.00  0.00    +0.155 HD
BRANCH  14  15
ATOM     15  C   UNL     1      15.445  63.227  16.517  0.00  0.00    +0.037 A 
ATOM     16  C   UNL     1      14.262  62.852  17.295  0.00  0.00    +0.013 A 
ATOM     17  C   UNL     1      12.954  62.895  16.689  0.00  0.00    +0.005 A 
ATOM     18  C   UNL     1      12.824  63.318  15.297  0.00  0.00    -0.033 A 
ATOM     28  C   UNL     1      14.014  63.690  14.550  0.00  0.00    +0.005 A 
ATOM     29  C   UNL     1      15.297  63.648  15.140  0.00  0.00    +0.013 A 
BRANCH  18  19
ATOM     19  C   UNL     1      11.471  63.374  14.564  0.00  0.00    +0.119 C 
BRANCH  19  20
ATOM     20  N   UNL     1      11.334  64.366  13.456  0.00  0.00    -0.302 NA
ATOM     21  C   UNL     1      11.019  65.770  13.978  0.00  0.00    +0.066 C 
ATOM     22  C   UNL     1      10.901  66.800  12.807  0.00  0.00    -0.064 C 
ATOM     23  N   UNL     1       9.825  66.332  11.826  0.00  0.00    +0.379 N 
ATOM     24  C   UNL     1       9.671  67.327  10.754  0.00  0.00    -0.096 C 
ATOM     25  H   UNL     1       8.860  66.282  12.382  0.00  0.00    -0.082 HD
ATOM     26  C   UNL     1      10.129  64.935  11.304  0.00  0.00    -0.064 C 
ATOM     27  C   UNL     1      10.273  63.925  12.477  0.00  0.00    +0.066 C 
ENDBRANCH  19  20
ENDBRANCH  18  19
ENDBRANCH  14  15
ENDBRANCH  12  13
TORSDOF 6
ENDMDL
MODEL 5
REMARK VINA RESULT:      -8.5      3.970     13.029
REMARK  Name = C:\Users\Docking\Desktop\test protocol\1iep_ligandH.pdb
REMARK  8 active torsions:
REMARK  status: ('A' for Active; 'I' for Inactive)
REMARK    1  A    between atoms: _5  and  _11
REMARK    2  A    between atoms: _19  and  _21
REMARK    3  A    between atoms: _22  and  _66
REMARK    4  A    between atoms: _27  and  _30
REMARK    5  A    between atoms: _32  and  _33
REMARK    6  A    between atoms: _38  and  _43
REMARK    7  A    between atoms: _43  and  _46
REMARK    8  A    between atoms: _53  and  _55
REMARK                            x       y       z     vdW  Elec       q    Type
REMARK                         _______ _______ _______ _____ _____    ______ ____
ROOT
ATOM     10  C   UNL     1      18.425  59.038  20.563  0.00  0.00    +0.038 A 
ATOM     11  C   UNL     1      19.034  57.904  19.967  0.00  0.00    +0.047 A 
ATOM     12  C   UNL     1      19.930  57.045  20.725  0.00  0.00    +0.035 A 
ATOM     32  C   UNL     1      20.181  57.369  22.090  0.00  0.00    +0.024 A 
ATOM     33  C   UNL     1      19.572  58.518  22.712  0.00  0.00    +0.007 A 
ATOM     34  C   UNL     1      18.689  59.370  21.968  0.00  0.00    -0.029 A 
ATOM     35  C   UNL     1      18.069  60.593  22.684  0.00  0.00    +0.045 C 
ENDROOT
BRANCH  10   9
ATOM      4  C   UNL     1      17.589  62.755  17.643  0.00  0.00    +0.077 A 
ATOM      5  C   UNL     1      18.961  63.173  17.686  0.00  0.00    +0.048 A 
ATOM      6  C   UNL     1      19.848  62.409  18.477  0.00  0.00    +0.116 A 
ATOM      7  N   UNL     1      19.387  61.310  19.169  0.00  0.00    -0.223 NA
ATOM      8  C   UNL     1      18.057  60.935  19.107  0.00  0.00    +0.220 A 
ATOM      9  N   UNL     1      17.573  59.828  19.788  0.00  0.00    -0.283 N 
ATOM     36  H   UNL     1      16.584  59.589  19.723  0.00  0.00    +0.155 HD
ATOM     37  N   UNL     1      17.190  61.649  18.360  0.00  0.00    -0.214 NA
BRANCH   4   3
ATOM      1  C   UNL     1      14.162  63.730  16.030  0.00  0.00    +0.020 A 
ATOM      2  C   UNL     1      15.144  63.015  16.812  0.00  0.00    +0.013 A 
ATOM      3  C   UNL     1      16.532  63.458  16.849  0.00  0.00    +0.019 A 
ATOM     38  C   UNL     1      16.896  64.637  16.079  0.00  0.00    +0.120 A 
ATOM     39  N   UNL     1      15.929  65.304  15.334  0.00  0.00    -0.263 NA
ATOM     40  C   UNL     1      14.591  64.887  15.289  0.00  0.00    +0.111 A 
ENDBRANCH   4   3
ENDBRANCH  10   9
BRANCH  12  13
ATOM     13  N   UNL     1      20.583  55.885  20.171  0.00  0.00    -0.281 N 
ATOM     14  C   UNL     1      21.497  55.047  20.787  0.00  0.00    +0.248 C 
ATOM     30  O   UNL     1      22.057  55.293  21.846  0.00  0.00    -0.270 OA
ATOM     31  H   UNL     1      20.342  55.654  19.207  0.00  0.00    +0.155 HD
BRANCH  14  15
ATOM     15  C   UNL     1      21.852  53.755  20.126  0.00  0.00    +0.037 A 
ATOM     16  C   UNL     1      23.236  53.274  20.091  0.00  0.00    +0.013 A 
ATOM     17  C   UNL     1      23.554  52.032  19.431  0.00  0.00    +0.005 A 
ATOM     18  C   UNL     1      22.484  51.261  18.802  0.00  0.00    -0.033 A 
ATOM     28  C   UNL     1      21.120  51.759  18.856  0.00  0.00    +0.005 A 
ATOM     29  C   UNL     1      20.804  52.976  19.501  0.00  0.00    +0.013 A 
BRANCH  18  19
ATOM     19  C   UNL     1      22.735  49.936  18.058  0.00  0.00    +0.119 C 
BRANCH  19  20
ATOM     20  N   UNL     1      23.691  48.973  18.680  0.00  0.00    -0.302 NA
ATOM     21  C   UNL     1      23.780  47.662  17.893  0.00  0.00    +0.066 C 
ATOM     22  C   UNL     1      24.801  46.675  18.545  0.00  0.00    -0.064 C 
ATOM     23  N   UNL     1      24.394  46.409  19.996  0.00  0.00    +0.379 N 
ATOM     24  C   UNL     1      25.319  45.435  20.594  0.00  0.00    -0.096 C 
ATOM     25  H   UNL     1      23.379  45.947  19.983  0.00  0.00    -0.082 HD
ATOM     26  C   UNL     1      24.301  47.707  20.785  0.00  0.00    -0.064 C 
ATOM     27  C   UNL     1      23.305  48.692  20.112  0.00  0.00    +0.066 C 
ENDBRANCH  19  20
ENDBRANCH  18  19
ENDBRANCH  14  15
ENDBRANCH  12  13
TORSDOF 6
ENDMDL
