MODEL 1
REMARK VINA RESULT:      -8.0      0.000      0.000
REMARK  Name = C:\Users\Docking\Desktop\test protocol\1iep_ligandH.pdb
REMARK  8 active torsions:
REMARK  status: ('A' for Active; 'I' for Inactive)
REMARK    1  A    between atoms: _5  and  _11
REMARK    2  A    between atoms: _19  and  _21
REMARK    3  A    between atoms: _22  and  _66
REMARK    4  A    between atoms: _27  and  _30
REMARK    5  A    between atoms: _32  and  _33
REMARK    6  A    between atoms: _38  and  _43
REMARK    7  A    between atoms: _43  and  _46
REMARK    8  A    between atoms: _53  and  _55
REMARK                            x       y       z     vdW  Elec       q    Type
REMARK                         _______ _______ _______ _____ _____    ______ ____
ROOT
ATOM     10  C   UNL     1      -3.064  47.671  24.539  0.00  0.00    +0.038 A 
ATOM     11  C   UNL     1      -1.826  47.681  23.847  0.00  0.00    +0.047 A 
ATOM     12  C   UNL     1      -1.648  46.933  22.612  0.00  0.00    +0.035 A 
ATOM     32  C   UNL     1      -2.753  46.188  22.108  0.00  0.00    +0.024 A 
ATOM     33  C   UNL     1      -4.018  46.165  22.799  0.00  0.00    +0.007 A 
ATOM     34  C   UNL     1      -4.199  46.899  24.019  0.00  0.00    -0.029 A 
ATOM     35  C   UNL     1      -5.576  46.834  24.721  0.00  0.00    +0.045 C 
ENDROOT
BRANCH  10   9
ATOM      4  C   UNL     1      -4.258  51.646  26.949  0.00  0.00    +0.077 A 
ATOM      5  C   UNL     1      -4.662  52.323  25.750  0.00  0.00    +0.048 A 
ATOM      6  C   UNL     1      -4.539  51.616  24.533  0.00  0.00    +0.116 A 
ATOM      7  N   UNL     1      -4.049  50.328  24.527  0.00  0.00    -0.223 NA
ATOM      8  C   UNL     1      -3.668  49.705  25.701  0.00  0.00    +0.220 A 
ATOM      9  N   UNL     1      -3.179  48.407  25.720  0.00  0.00    -0.283 N 
ATOM     36  H   UNL     1      -2.902  47.985  26.606  0.00  0.00    +0.155 HD
ATOM     37  N   UNL     1      -3.773  50.359  26.877  0.00  0.00    -0.214 NA
BRANCH   4   3
ATOM      1  C   UNL     1      -5.564  53.438  30.172  0.00  0.00    +0.020 A 
ATOM      2  C   UNL     1      -5.547  52.859  28.848  0.00  0.00    +0.013 A 
ATOM      3  C   UNL     1      -4.331  52.259  28.313  0.00  0.00    +0.019 A 
ATOM     38  C   UNL     1      -3.141  52.261  29.150  0.00  0.00    +0.120 A 
ATOM     39  N   UNL     1      -3.187  52.827  30.420  0.00  0.00    -0.263 NA
ATOM     40  C   UNL     1      -4.350  53.408  30.945  0.00  0.00    +0.111 A 
ENDBRANCH   4   3
ENDBRANCH  10   9
BRANCH  12  13
ATOM     13  N   UNL     1      -0.412  46.900  21.870  0.00  0.00    -0.281 N 
ATOM     14  C   UNL     1       0.256  45.790  21.378  0.00  0.00    +0.248 C 
ATOM     30  O   UNL     1       0.000  44.636  21.688  0.00  0.00    -0.270 OA
ATOM     31  H   UNL     1       0.024  47.803  21.685  0.00  0.00    +0.155 HD
BRANCH  14  15
ATOM     15  C   UNL     1       1.380  45.993  20.414  0.00  0.00    +0.037 A 
ATOM     16  C   UNL     1       1.864  47.335  20.082  0.00  0.00    +0.013 A 
ATOM     17  C   UNL     1       2.938  47.504  19.136  0.00  0.00    +0.005 A 
ATOM     18  C   UNL     1       3.537  46.324  18.515  0.00  0.00    -0.033 A 
ATOM     28  C   UNL     1       3.042  45.004  18.867  0.00  0.00    +0.005 A 
ATOM     29  C   UNL     1       1.988  44.835  19.793  0.00  0.00    +0.013 A 
BRANCH  18  19
ATOM     19  C   UNL     1       4.674  46.411  17.479  0.00  0.00    +0.119 C 
BRANCH  19  20
ATOM     20  N   UNL     1       5.797  45.435  17.613  0.00  0.00    -0.302 NA
ATOM     21  C   UNL     1       6.667  45.726  18.840  0.00  0.00    +0.066 C 
ATOM     22  C   UNL     1       7.823  44.682  18.977  0.00  0.00    -0.064 C 
ATOM     23  N   UNL     1       8.666  44.689  17.701  0.00  0.00    +0.379 N 
ATOM     24  C   UNL     1       9.788  43.751  17.850  0.00  0.00    -0.096 C 
ATOM     25  H   UNL     1       9.094  45.712  17.583  0.00  0.00    -0.082 HD
ATOM     26  C   UNL     1       7.808  44.404  16.476  0.00  0.00    -0.064 C 
ATOM     27  C   UNL     1       6.645  45.428  16.365  0.00  0.00    +0.066 C 
ENDBRANCH  19  20
ENDBRANCH  18  19
ENDBRANCH  14  15
ENDBRANCH  12  13
TORSDOF 6
ENDMDL
MODEL 2
REMARK VINA RESULT:      -7.9      9.586     11.609
REMARK  Name = C:\Users\Docking\Desktop\test protocol\1iep_ligandH.pdb
REMARK  8 active torsions:
REMARK  status: ('A' for Active; 'I' for Inactive)
REMARK    1  A    between atoms: _5  and  _11
REMARK    2  A    between atoms: _19  and  _21
REMARK    3  A    between atoms: _22  and  _66
REMARK    4  A    between atoms: _27  and  _30
REMARK    5  A    between atoms: _32  and  _33
REMARK    6  A    between atoms: _38  and  _43
REMARK    7  A    between atoms: _43  and  _46
REMARK    8  A    between atoms: _53  and  _55
REMARK                            x       y       z     vdW  Elec       q    Type
REMARK                         _______ _______ _______ _____ _____    ______ ____
ROOT
ATOM     10  C   UNL     1       6.247  54.249  20.635  0.00  0.00    +0.038 A 
ATOM     11  C   UNL     1       6.605  52.913  20.325  0.00  0.00    +0.047 A 
ATOM     12  C   UNL     1       5.932  52.179  19.265  0.00  0.00    +0.035 A 
ATOM     32  C   UNL     1       4.898  52.839  18.538  0.00  0.00    +0.024 A 
ATOM     33  C   UNL     1       4.520  54.197  18.841  0.00  0.00    +0.007 A 
ATOM     34  C   UNL     1       5.179  54.925  19.888  0.00  0.00    -0.029 A 
ATOM     35  C   UNL     1       4.728  56.376  20.173  0.00  0.00    +0.045 C 
ENDROOT
BRANCH  10   9
ATOM      4  C   UNL     1      10.023  56.674  22.338  0.00  0.00    +0.077 A 
ATOM      5  C   UNL     1      10.710  56.604  21.081  0.00  0.00    +0.048 A 
ATOM      6  C   UNL     1      10.060  55.928  20.023  0.00  0.00    +0.116 A 
ATOM      7  N   UNL     1       8.816  55.369  20.220  0.00  0.00    -0.223 NA
ATOM      8  C   UNL     1       8.182  55.454  21.445  0.00  0.00    +0.220 A 
ATOM      9  N   UNL     1       6.927  54.906  21.663  0.00  0.00    -0.283 N 
ATOM     36  H   UNL     1       6.496  54.983  22.584  0.00  0.00    +0.155 HD
ATOM     37  N   UNL     1       8.782  56.092  22.472  0.00  0.00    -0.214 NA
BRANCH   4   3
ATOM      1  C   UNL     1      10.475  58.036  25.977  0.00  0.00    +0.020 A 
ATOM      2  C   UNL     1       9.896  57.362  24.838  0.00  0.00    +0.013 A 
ATOM      3  C   UNL     1      10.577  57.357  23.549  0.00  0.00    +0.019 A 
ATOM     38  C   UNL     1      11.854  58.048  23.447  0.00  0.00    +0.120 A 
ATOM     39  N   UNL     1      12.387  58.689  24.561  0.00  0.00    -0.263 NA
ATOM     40  C   UNL     1      11.739  58.703  25.805  0.00  0.00    +0.111 A 
ENDBRANCH   4   3
ENDBRANCH  10   9
BRANCH  12  13
ATOM     13  N   UNL     1       6.247  50.818  18.910  0.00  0.00    -0.281 N 
ATOM     14  C   UNL     1       7.404  50.338  18.318  0.00  0.00    +0.248 C 
ATOM     30  O   UNL     1       8.261  51.043  17.805  0.00  0.00    -0.270 OA
ATOM     31  H   UNL     1       5.531  50.123  19.122  0.00  0.00    +0.155 HD
BRANCH  14  15
ATOM     15  C   UNL     1       7.635  48.862  18.276  0.00  0.00    +0.037 A 
ATOM     16  C   UNL     1       6.759  47.935  18.996  0.00  0.00    +0.013 A 
ATOM     17  C   UNL     1       7.015  46.517  18.953  0.00  0.00    +0.005 A 
ATOM     18  C   UNL     1       8.153  46.018  18.185  0.00  0.00    -0.033 A 
ATOM     28  C   UNL     1       9.003  46.959  17.475  0.00  0.00    +0.005 A 
ATOM     29  C   UNL     1       8.756  48.350  17.516  0.00  0.00    +0.013 A 
BRANCH  18  19
ATOM     19  C   UNL     1       8.513  44.523  18.100  0.00  0.00    +0.119 C 
BRANCH  19  20
ATOM     20  N   UNL     1       9.959  44.161  18.203  0.00  0.00    -0.302 NA
ATOM     21  C   UNL     1      10.492  43.552  16.903  0.00  0.00    +0.066 C 
ATOM     22  C   UNL     1      12.011  43.201  17.021  0.00  0.00    -0.064 C 
ATOM     23  N   UNL     1      12.220  42.242  18.194  0.00  0.00    +0.379 N 
ATOM     24  C   UNL     1      13.639  41.864  18.271  0.00  0.00    -0.096 C 
ATOM     25  H   UNL     1      11.635  41.317  17.983  0.00  0.00    -0.082 HD
ATOM     26  C   UNL     1      11.690  42.838  19.490  0.00  0.00    -0.064 C 
ATOM     27  C   UNL     1      10.187  43.211  19.353  0.00  0.00    +0.066 C 
ENDBRANCH  19  20
ENDBRANCH  18  19
ENDBRANCH  14  15
ENDBRANCH  12  13
TORSDOF 6
ENDMDL
MODEL 3
REMARK VINA RESULT:      -7.8      6.141     16.020
REMARK  Name = C:\Users\Docking\Desktop\test protocol\1iep_ligandH.pdb
REMARK  8 active torsions:
REMARK  status: ('A' for Active; 'I' for Inactive)
REMARK    1  A    between atoms: _5  and  _11
REMARK    2  A    between atoms: _19  and  _21
REMARK    3  A    between atoms: _22  and  _66
REMARK    4  A    between atoms: _27  and  _30
REMARK    5  A    between atoms: _32  and  _33
REMARK    6  A    between atoms: _38  and  _43
REMARK    7  A    between atoms: _43  and  _46
REMARK    8  A    between atoms: _53  and  _55
REMARK                            x       y       z     vdW  Elec       q    Type
REMARK                         _______ _______ _______ _____ _____    ______ ____
ROOT
ATOM     10  C   UNL     1      13.985  44.128  18.572  0.00  0.00    +0.038 A 
ATOM     11  C   UNL     1      12.572  44.253  18.561  0.00  0.00    +0.047 A 
ATOM     12  C   UNL     1      11.770  43.632  17.519  0.00  0.00    +0.035 A 
ATOM     32  C   UNL     1      12.439  42.888  16.504  0.00  0.00    +0.024 A 
ATOM     33  C   UNL     1      13.874  42.751  16.499  0.00  0.00    +0.007 A 
ATOM     34  C   UNL     1      14.671  43.364  17.523  0.00  0.00    -0.029 A 
ATOM     35  C   UNL     1      16.207  43.189  17.464  0.00  0.00    +0.045 C 
ENDROOT
BRANCH  10   9
ATOM      4  C   UNL     1      16.047  47.971  20.576  0.00  0.00    +0.077 A 
ATOM      5  C   UNL     1      15.680  48.815  19.476  0.00  0.00    +0.048 A 
ATOM      6  C   UNL     1      14.967  48.220  18.411  0.00  0.00    +0.116 A 
ATOM      7  N   UNL     1      14.650  46.880  18.454  0.00  0.00    -0.223 NA
ATOM      8  C   UNL     1      15.021  46.093  19.529  0.00  0.00    +0.220 A 
ATOM      9  N   UNL     1      14.707  44.745  19.597  0.00  0.00    -0.283 N 
ATOM     36  H   UNL     1      15.005  44.197  20.403  0.00  0.00    +0.155 HD
ATOM     37  N   UNL     1      15.704  46.638  20.558  0.00  0.00    -0.214 NA
BRANCH   4   3
ATOM      1  C   UNL     1      17.215  48.555  24.263  0.00  0.00    +0.020 A 
ATOM      2  C   UNL     1      16.456  48.061  23.138  0.00  0.00    +0.013 A 
ATOM      3  C   UNL     1      16.800  48.454  21.777  0.00  0.00    +0.019 A 
ATOM     38  C   UNL     1      17.927  49.354  21.588  0.00  0.00    +0.120 A 
ATOM     39  N   UNL     1      18.639  49.815  22.690  0.00  0.00    -0.263 NA
ATOM     40  C   UNL     1      18.316  49.445  24.005  0.00  0.00    +0.111 A 
ENDBRANCH   4   3
ENDBRANCH  10   9
BRANCH  12  13
ATOM     13  N   UNL     1      10.333  43.732  17.452  0.00  0.00    -0.281 N 
ATOM     14  C   UNL     1       9.422  43.628  18.491  0.00  0.00    +0.248 C 
ATOM     30  O   UNL     1       9.694  43.218  19.609  0.00  0.00    -0.270 OA
ATOM     31  H   UNL     1       9.939  43.900  16.526  0.00  0.00    +0.155 HD
BRANCH  14  15
ATOM     15  C   UNL     1       8.001  44.022  18.248  0.00  0.00    +0.037 A 
ATOM     16  C   UNL     1       7.347  43.753  16.965  0.00  0.00    +0.013 A 
ATOM     17  C   UNL     1       5.980  44.159  16.751  0.00  0.00    +0.005 A 
ATOM     18  C   UNL     1       5.259  44.839  17.824  0.00  0.00    -0.033 A 
ATOM     28  C   UNL     1       5.931  45.088  19.089  0.00  0.00    +0.005 A 
ATOM     29  C   UNL     1       7.270  44.692  19.302  0.00  0.00    +0.013 A 
BRANCH  18  19
ATOM     19  C   UNL     1       3.805  45.326  17.677  0.00  0.00    +0.119 C 
BRANCH  19  20
ATOM     20  N   UNL     1       3.068  45.667  18.930  0.00  0.00    -0.302 NA
ATOM     21  C   UNL     1       1.880  44.731  19.170  0.00  0.00    +0.066 C 
ATOM     22  C   UNL     1       1.133  45.088  20.497  0.00  0.00    -0.064 C 
ATOM     23  N   UNL     1       0.672  46.546  20.443  0.00  0.00    +0.379 N 
ATOM     24  C   UNL     1      -0.080  46.867  21.664  0.00  0.00    -0.096 C 
ATOM     25  H   UNL     1      -0.025  46.648  19.579  0.00  0.00    -0.082 HD
ATOM     26  C   UNL     1       1.847  47.483  20.202  0.00  0.00    -0.064 C 
ATOM     27  C   UNL     1       2.600  47.101  18.896  0.00  0.00    +0.066 C 
ENDBRANCH  19  20
ENDBRANCH  18  19
ENDBRANCH  14  15
ENDBRANCH  12  13
TORSDOF 6
ENDMDL
MODEL 4
REMARK VINA RESULT:      -7.6      1.786      2.480
REMARK  Name = C:\Users\Docking\Desktop\test protocol\1iep_ligandH.pdb
REMARK  8 active torsions:
REMARK  status: ('A' for Active; 'I' for Inactive)
REMARK    1  A    between atoms: _5  and  _11
REMARK    2  A    between atoms: _19  and  _21
REMARK    3  A    between atoms: _22  and  _66
REMARK    4  A    between atoms: _27  and  _30
REMARK    5  A    between atoms: _32  and  _33
REMARK    6  A    between atoms: _38  and  _43
REMARK    7  A    between atoms: _43  and  _46
REMARK    8  A    between atoms: _53  and  _55
REMARK                            x       y       z     vdW  Elec       q    Type
REMARK                         _______ _______ _______ _____ _____    ______ ____
ROOT
ATOM     10  C   UNL     1      -3.094  47.666  24.500  0.00  0.00    +0.038 A 
ATOM     11  C   UNL     1      -1.849  47.684  23.821  0.00  0.00    +0.047 A 
ATOM     12  C   UNL     1      -1.656  46.946  22.583  0.00  0.00    +0.035 A 
ATOM     32  C   UNL     1      -2.754  46.202  22.062  0.00  0.00    +0.024 A 
ATOM     33  C   UNL     1      -4.027  46.172  22.739  0.00  0.00    +0.007 A 
ATOM     34  C   UNL     1      -4.222  46.896  23.962  0.00  0.00    -0.029 A 
ATOM     35  C   UNL     1      -5.606  46.823  24.649  0.00  0.00    +0.045 C 
ENDROOT
BRANCH  10   9
ATOM      4  C   UNL     1      -4.261  51.644  26.920  0.00  0.00    +0.077 A 
ATOM      5  C   UNL     1      -4.617  52.341  25.718  0.00  0.00    +0.048 A 
ATOM      6  C   UNL     1      -4.479  51.644  24.498  0.00  0.00    +0.116 A 
ATOM      7  N   UNL     1      -4.018  50.345  24.491  0.00  0.00    -0.223 NA
ATOM      8  C   UNL     1      -3.681  49.702  25.668  0.00  0.00    +0.220 A 
ATOM      9  N   UNL     1      -3.223  48.393  25.685  0.00  0.00    -0.283 N 
ATOM     36  H   UNL     1      -2.978  47.957  26.574  0.00  0.00    +0.155 HD
ATOM     37  N   UNL     1      -3.803  50.347  26.847  0.00  0.00    -0.214 NA
BRANCH   4   3
ATOM      1  C   UNL     1      -5.618  53.404  30.139  0.00  0.00    +0.020 A 
ATOM      2  C   UNL     1      -5.580  52.837  28.811  0.00  0.00    +0.013 A 
ATOM      3  C   UNL     1      -4.355  52.245  28.288  0.00  0.00    +0.019 A 
ATOM     38  C   UNL     1      -3.176  52.243  29.142  0.00  0.00    +0.120 A 
ATOM     39  N   UNL     1      -3.242  52.798  30.416  0.00  0.00    -0.263 NA
ATOM     40  C   UNL     1      -4.415  53.372  30.929  0.00  0.00    +0.111 A 
ENDBRANCH   4   3
ENDBRANCH  10   9
BRANCH  12  13
ATOM     13  N   UNL     1      -0.412  46.920  21.854  0.00  0.00    -0.281 N 
ATOM     14  C   UNL     1       0.273  45.814  21.377  0.00  0.00    +0.248 C 
ATOM     30  O   UNL     1       0.026  44.660  21.692  0.00  0.00    -0.270 OA
ATOM     31  H   UNL     1       0.016  47.827  21.667  0.00  0.00    +0.155 HD
BRANCH  14  15
ATOM     15  C   UNL     1       1.404  46.022  20.423  0.00  0.00    +0.037 A 
ATOM     16  C   UNL     1       2.091  44.888  19.799  0.00  0.00    +0.013 A 
ATOM     17  C   UNL     1       3.190  45.116  18.896  0.00  0.00    +0.005 A 
ATOM     18  C   UNL     1       3.609  46.485  18.609  0.00  0.00    -0.033 A 
ATOM     28  C   UNL     1       2.907  47.592  19.237  0.00  0.00    +0.005 A 
ATOM     29  C   UNL     1       1.830  47.373  20.124  0.00  0.00    +0.013 A 
BRANCH  18  19
ATOM     19  C   UNL     1       4.786  46.821  17.674  0.00  0.00    +0.119 C 
BRANCH  19  20
ATOM     20  N   UNL     1       5.406  48.173  17.813  0.00  0.00    -0.302 NA
ATOM     21  C   UNL     1       5.485  48.910  16.473  0.00  0.00    +0.066 C 
ATOM     22  C   UNL     1       6.116  50.331  16.642  0.00  0.00    -0.064 C 
ATOM     23  N   UNL     1       7.504  50.198  17.270  0.00  0.00    +0.379 N 
ATOM     24  C   UNL     1       8.124  51.527  17.376  0.00  0.00    -0.096 C 
ATOM     25  H   UNL     1       8.131  49.587  16.579  0.00  0.00    -0.082 HD
ATOM     26  C   UNL     1       7.435  49.464  18.601  0.00  0.00    -0.064 C 
ATOM     27  C   UNL     1       6.780  48.065  18.428  0.00  0.00    +0.066 C 
ENDBRANCH  19  20
ENDBRANCH  18  19
ENDBRANCH  14  15
ENDBRANCH  12  13
TORSDOF 6
ENDMDL
MODEL 5
REMARK VINA RESULT:      -7.6      8.569     11.992
REMARK  Name = C:\Users\Docking\Desktop\test protocol\1iep_ligandH.pdb
REMARK  8 active torsions:
REMARK  status: ('A' for Active; 'I' for Inactive)
REMARK    1  A    between atoms: _5  and  _11
REMARK    2  A    between atoms: _19  and  _21
REMARK    3  A    between atoms: _22  and  _66
REMARK    4  A    between atoms: _27  and  _30
REMARK    5  A    between atoms: _32  and  _33
REMARK    6  A    between atoms: _38  and  _43
REMARK    7  A    between atoms: _43  and  _46
REMARK    8  A    between atoms: _53  and  _55
REMARK                            x       y       z     vdW  Elec       q    Type
REMARK                         _______ _______ _______ _____ _____    ______ ____
ROOT
ATOM     10  C   UNL     1       4.952  45.127  18.296  0.00  0.00    +0.038 A 
ATOM     11  C   UNL     1       6.241  44.555  18.151  0.00  0.00    +0.047 A 
ATOM     12  C   UNL     1       7.444  45.348  18.353  0.00  0.00    +0.035 A 
ATOM     32  C   UNL     1       7.296  46.721  18.705  0.00  0.00    +0.024 A 
ATOM     33  C   UNL     1       5.993  47.319  18.856  0.00  0.00    +0.007 A 
ATOM     34  C   UNL     1       4.803  46.543  18.655  0.00  0.00    -0.029 A 
ATOM     35  C   UNL     1       3.432  47.238  18.824  0.00  0.00    +0.045 C 
ENDROOT
BRANCH  10   9
ATOM      4  C   UNL     1       1.749  41.875  19.780  0.00  0.00    +0.077 A 
ATOM      5  C   UNL     1       2.377  41.755  21.064  0.00  0.00    +0.048 A 
ATOM      6  C   UNL     1       3.526  42.542  21.300  0.00  0.00    +0.116 A 
ATOM      7  N   UNL     1       4.002  43.384  20.318  0.00  0.00    -0.223 NA
ATOM      8  C   UNL     1       3.374  43.474  19.090  0.00  0.00    +0.220 A 
ATOM      9  N   UNL     1       3.831  44.319  18.090  0.00  0.00    -0.283 N 
ATOM     36  H   UNL     1       3.343  44.352  17.195  0.00  0.00    +0.155 HD
ATOM     37  N   UNL     1       2.275  42.732  18.839  0.00  0.00    -0.214 NA
BRANCH   4   3
ATOM      1  C   UNL     1      -0.652  39.018  18.606  0.00  0.00    +0.020 A 
ATOM      2  C   UNL     1       0.560  39.710  18.982  0.00  0.00    +0.013 A 
ATOM      3  C   UNL     1       0.524  41.111  19.380  0.00  0.00    +0.019 A 
ATOM     38  C   UNL     1      -0.763  41.789  19.388  0.00  0.00    +0.120 A 
ATOM     39  N   UNL     1      -1.913  41.098  19.020  0.00  0.00    -0.263 NA
ATOM     40  C   UNL     1      -1.891  39.749  18.633  0.00  0.00    +0.111 A 
ENDBRANCH   4   3
ENDBRANCH  10   9
BRANCH  12  13
ATOM     13  N   UNL     1       8.779  44.823  18.211  0.00  0.00    -0.281 N 
ATOM     14  C   UNL     1       9.416  43.888  19.011  0.00  0.00    +0.248 C 
ATOM     30  O   UNL     1       9.007  43.518  20.101  0.00  0.00    -0.270 OA
ATOM     31  H   UNL     1       9.321  45.184  17.426  0.00  0.00    +0.155 HD
BRANCH  14  15
ATOM     15  C   UNL     1      10.701  43.289  18.538  0.00  0.00    +0.037 A 
ATOM     16  C   UNL     1      11.650  42.686  19.478  0.00  0.00    +0.013 A 
ATOM     17  C   UNL     1      12.890  42.130  18.997  0.00  0.00    +0.005 A 
ATOM     18  C   UNL     1      13.188  42.174  17.568  0.00  0.00    -0.033 A 
ATOM     28  C   UNL     1      12.227  42.774  16.657  0.00  0.00    +0.005 A 
ATOM     29  C   UNL     1      11.011  43.321  17.125  0.00  0.00    +0.013 A 
BRANCH  18  19
ATOM     19  C   UNL     1      14.496  41.625  16.969  0.00  0.00    +0.119 C 
BRANCH  19  20
ATOM     20  N   UNL     1      15.774  42.237  17.440  0.00  0.00    -0.302 NA
ATOM     21  C   UNL     1      15.756  43.764  17.326  0.00  0.00    +0.066 C 
ATOM     22  C   UNL     1      17.092  44.389  17.844  0.00  0.00    -0.064 C 
ATOM     23  N   UNL     1      18.265  43.801  17.059  0.00  0.00    +0.379 N 
ATOM     24  C   UNL     1      19.518  44.430  17.504  0.00  0.00    -0.096 C 
ATOM     25  H   UNL     1      18.118  44.063  15.985  0.00  0.00    -0.082 HD
ATOM     26  C   UNL     1      18.289  42.283  17.165  0.00  0.00    -0.064 C 
ATOM     27  C   UNL     1      16.946  41.673  16.675  0.00  0.00    +0.066 C 
ENDBRANCH  19  20
ENDBRANCH  18  19
ENDBRANCH  14  15
ENDBRANCH  12  13
TORSDOF 6
ENDMDL
