MODEL 1
REMARK VINA RESULT:      -8.3      0.000      0.000
REMARK  Name = C:\Users\Docking\Desktop\test protocol\1iep_ligandH.pdb
REMARK  8 active torsions:
REMARK  status: ('A' for Active; 'I' for Inactive)
REMARK    1  A    between atoms: _5  and  _11
REMARK    2  A    between atoms: _19  and  _21
REMARK    3  A    between atoms: _22  and  _66
REMARK    4  A    between atoms: _27  and  _30
REMARK    5  A    between atoms: _32  and  _33
REMARK    6  A    between atoms: _38  and  _43
REMARK    7  A    between atoms: _43  and  _46
REMARK    8  A    between atoms: _53  and  _55
REMARK                            x       y       z     vdW  Elec       q    Type
REMARK                         _______ _______ _______ _____ _____    ______ ____
ROOT
ATOM     10  C   UNL     1      17.519  30.822  45.369  0.00  0.00    +0.038 A 
ATOM     11  C   UNL     1      18.859  30.369  45.274  0.00  0.00    +0.047 A 
ATOM     12  C   UNL     1      19.438  29.511  46.297  0.00  0.00    +0.035 A 
ATOM     32  C   UNL     1      18.622  29.133  47.402  0.00  0.00    +0.024 A 
ATOM     33  C   UNL     1      17.257  29.585  47.515  0.00  0.00    +0.007 A 
ATOM     34  C   UNL     1      16.682  30.433  46.511  0.00  0.00    -0.029 A 
ATOM     35  C   UNL     1      15.216  30.893  46.687  0.00  0.00    +0.045 C 
ENDROOT
BRANCH  10   9
ATOM      4  C   UNL     1      17.043  35.090  43.225  0.00  0.00    +0.077 A 
ATOM      5  C   UNL     1      17.846  35.744  44.218  0.00  0.00    +0.048 A 
ATOM      6  C   UNL     1      18.356  34.948  45.268  0.00  0.00    +0.116 A 
ATOM      7  N   UNL     1      18.079  33.599  45.311  0.00  0.00    -0.223 NA
ATOM      8  C   UNL     1      17.299  33.000  44.339  0.00  0.00    +0.220 A 
ATOM      9  N   UNL     1      17.014  31.643  44.358  0.00  0.00    -0.283 N 
ATOM     36  H   UNL     1      16.429  31.240  43.626  0.00  0.00    +0.155 HD
ATOM     37  N   UNL     1      16.799  33.739  43.327  0.00  0.00    -0.214 NA
BRANCH   4   3
ATOM      1  C   UNL     1      14.467  36.487  40.634  0.00  0.00    +0.020 A 
ATOM      2  C   UNL     1      15.003  35.789  41.780  0.00  0.00    +0.013 A 
ATOM      3  C   UNL     1      16.435  35.795  42.053  0.00  0.00    +0.019 A 
ATOM     38  C   UNL     1      17.304  36.523  41.140  0.00  0.00    +0.120 A 
ATOM     39  N   UNL     1      16.759  37.185  40.044  0.00  0.00    -0.263 NA
ATOM     40  C   UNL     1      15.383  37.185  39.770  0.00  0.00    +0.111 A 
ENDBRANCH   4   3
ENDBRANCH  10   9
BRANCH  12  13
ATOM     13  N   UNL     1      20.795  29.027  46.258  0.00  0.00    -0.281 N 
ATOM     14  C   UNL     1      21.926  29.615  46.802  0.00  0.00    +0.248 C 
ATOM     30  O   UNL     1      21.974  30.761  47.222  0.00  0.00    -0.270 OA
ATOM     31  H   UNL     1      20.941  28.143  45.770  0.00  0.00    +0.155 HD
BRANCH  14  15
ATOM     15  C   UNL     1      23.189  28.820  46.875  0.00  0.00    +0.037 A 
ATOM     16  C   UNL     1      23.251  27.559  47.619  0.00  0.00    +0.013 A 
ATOM     17  C   UNL     1      24.487  26.820  47.688  0.00  0.00    +0.005 A 
ATOM     18  C   UNL     1      25.671  27.341  47.010  0.00  0.00    -0.033 A 
ATOM     28  C   UNL     1      25.581  28.592  46.276  0.00  0.00    +0.005 A 
ATOM     29  C   UNL     1      24.371  29.319  46.206  0.00  0.00    +0.013 A 
BRANCH  18  19
ATOM     19  C   UNL     1      27.037  26.630  47.049  0.00  0.00    +0.119 C 
BRANCH  19  20
ATOM     20  N   UNL     1      27.989  26.917  45.934  0.00  0.00    -0.302 NA
ATOM     21  C   UNL     1      28.360  25.652  45.156  0.00  0.00    +0.066 C 
ATOM     22  C   UNL     1      29.338  25.974  43.980  0.00  0.00    -0.064 C 
ATOM     23  N   UNL     1      30.591  26.655  44.534  0.00  0.00    +0.379 N 
ATOM     24  C   UNL     1      31.538  26.906  43.438  0.00  0.00    -0.096 C 
ATOM     25  H   UNL     1      31.075  25.945  45.244  0.00  0.00    -0.082 HD
ATOM     26  C   UNL     1      30.231  27.912  45.312  0.00  0.00    -0.064 C 
ATOM     27  C   UNL     1      29.235  27.586  46.460  0.00  0.00    +0.066 C 
ENDBRANCH  19  20
ENDBRANCH  18  19
ENDBRANCH  14  15
ENDBRANCH  12  13
TORSDOF 6
ENDMDL
MODEL 2
REMARK VINA RESULT:      -8.2      4.750     10.163
REMARK  Name = C:\Users\Docking\Desktop\test protocol\1iep_ligandH.pdb
REMARK  8 active torsions:
REMARK  status: ('A' for Active; 'I' for Inactive)
REMARK    1  A    between atoms: _5  and  _11
REMARK    2  A    between atoms: _19  and  _21
REMARK    3  A    between atoms: _22  and  _66
REMARK    4  A    between atoms: _27  and  _30
REMARK    5  A    between atoms: _32  and  _33
REMARK    6  A    between atoms: _38  and  _43
REMARK    7  A    between atoms: _43  and  _46
REMARK    8  A    between atoms: _53  and  _55
REMARK                            x       y       z     vdW  Elec       q    Type
REMARK                         _______ _______ _______ _____ _____    ______ ____
ROOT
ATOM     10  C   UNL     1      26.858  27.027  45.030  0.00  0.00    +0.038 A 
ATOM     11  C   UNL     1      27.918  27.301  44.129  0.00  0.00    +0.047 A 
ATOM     12  C   UNL     1      29.198  26.618  44.242  0.00  0.00    +0.035 A 
ATOM     32  C   UNL     1      29.362  25.660  45.284  0.00  0.00    +0.024 A 
ATOM     33  C   UNL     1      28.295  25.370  46.210  0.00  0.00    +0.007 A 
ATOM     34  C   UNL     1      27.032  26.042  46.104  0.00  0.00    -0.029 A 
ATOM     35  C   UNL     1      25.926  25.696  47.128  0.00  0.00    +0.045 C 
ENDROOT
BRANCH  10   9
ATOM      4  C   UNL     1      23.793  30.524  46.216  0.00  0.00    +0.077 A 
ATOM      5  C   UNL     1      24.658  31.013  47.250  0.00  0.00    +0.048 A 
ATOM      6  C   UNL     1      25.880  30.332  47.450  0.00  0.00    +0.116 A 
ATOM      7  N   UNL     1      26.202  29.244  46.667  0.00  0.00    -0.223 NA
ATOM      8  C   UNL     1      25.344  28.798  45.679  0.00  0.00    +0.220 A 
ATOM      9  N   UNL     1      25.650  27.711  44.875  0.00  0.00    -0.283 N 
ATOM     36  H   UNL     1      24.987  27.408  44.162  0.00  0.00    +0.155 HD
ATOM     37  N   UNL     1      24.170  29.431  45.470  0.00  0.00    -0.214 NA
BRANCH   4   3
ATOM      1  C   UNL     1      20.250  31.156  44.683  0.00  0.00    +0.020 A 
ATOM      2  C   UNL     1      21.515  30.520  44.971  0.00  0.00    +0.013 A 
ATOM      3  C   UNL     1      22.469  31.140  45.882  0.00  0.00    +0.019 A 
ATOM     38  C   UNL     1      22.110  32.412  46.489  0.00  0.00    +0.120 A 
ATOM     39  N   UNL     1      20.885  33.002  46.192  0.00  0.00    -0.263 NA
ATOM     40  C   UNL     1      19.960  32.416  45.315  0.00  0.00    +0.111 A 
ENDBRANCH   4   3
ENDBRANCH  10   9
BRANCH  12  13
ATOM     13  N   UNL     1      30.313  26.861  43.361  0.00  0.00    -0.281 N 
ATOM     14  C   UNL     1      31.610  27.207  43.705  0.00  0.00    +0.248 C 
ATOM     30  O   UNL     1      31.956  27.571  44.819  0.00  0.00    -0.270 OA
ATOM     31  H   UNL     1      30.124  26.766  42.363  0.00  0.00    +0.155 HD
BRANCH  14  15
ATOM     15  C   UNL     1      32.673  27.155  42.655  0.00  0.00    +0.037 A 
ATOM     16  C   UNL     1      33.844  26.288  42.803  0.00  0.00    +0.013 A 
ATOM     17  C   UNL     1      34.864  26.270  41.783  0.00  0.00    +0.005 A 
ATOM     18  C   UNL     1      34.714  27.122  40.606  0.00  0.00    -0.033 A 
ATOM     28  C   UNL     1      33.540  27.969  40.483  0.00  0.00    +0.005 A 
ATOM     29  C   UNL     1      32.539  27.990  41.481  0.00  0.00    +0.013 A 
BRANCH  18  19
ATOM     19  C   UNL     1      35.763  27.182  39.479  0.00  0.00    +0.119 C 
BRANCH  19  20
ATOM     20  N   UNL     1      35.389  26.580  38.165  0.00  0.00    -0.302 NA
ATOM     21  C   UNL     1      36.551  25.804  37.538  0.00  0.00    +0.066 C 
ATOM     22  C   UNL     1      36.136  25.162  36.174  0.00  0.00    -0.064 C 
ATOM     23  N   UNL     1      35.642  26.256  35.227  0.00  0.00    +0.379 N 
ATOM     24  C   UNL     1      35.306  25.663  33.925  0.00  0.00    -0.096 C 
ATOM     25  H   UNL     1      36.483  26.970  35.067  0.00  0.00    -0.082 HD
ATOM     26  C   UNL     1      34.488  27.034  35.844  0.00  0.00    -0.064 C 
ATOM     27  C   UNL     1      34.902  27.644  37.213  0.00  0.00    +0.066 C 
ENDBRANCH  19  20
ENDBRANCH  18  19
ENDBRANCH  14  15
ENDBRANCH  12  13
TORSDOF 6
ENDMDL
MODEL 3
REMARK VINA RESULT:      -8.1      3.475      5.635
REMARK  Name = C:\Users\Docking\Desktop\test protocol\1iep_ligandH.pdb
REMARK  8 active torsions:
REMARK  status: ('A' for Active; 'I' for Inactive)
REMARK    1  A    between atoms: _5  and  _11
REMARK    2  A    between atoms: _19  and  _21
REMARK    3  A    between atoms: _22  and  _66
REMARK    4  A    between atoms: _27  and  _30
REMARK    5  A    between atoms: _32  and  _33
REMARK    6  A    between atoms: _38  and  _43
REMARK    7  A    between atoms: _43  and  _46
REMARK    8  A    between atoms: _53  and  _55
REMARK                            x       y       z     vdW  Elec       q    Type
REMARK                         _______ _______ _______ _____ _____    ______ ____
ROOT
ATOM     10  C   UNL     1      19.845  31.512  45.265  0.00  0.00    +0.038 A 
ATOM     11  C   UNL     1      21.034  30.816  44.929  0.00  0.00    +0.047 A 
ATOM     12  C   UNL     1      22.339  31.320  45.327  0.00  0.00    +0.035 A 
ATOM     32  C   UNL     1      22.396  32.535  46.070  0.00  0.00    +0.024 A 
ATOM     33  C   UNL     1      21.197  33.256  46.420  0.00  0.00    +0.007 A 
ATOM     34  C   UNL     1      19.907  32.764  46.027  0.00  0.00    -0.029 A 
ATOM     35  C   UNL     1      18.655  33.582  46.424  0.00  0.00    +0.045 C 
ENDROOT
BRANCH  10   9
ATOM      4  C   UNL     1      16.177  28.456  45.764  0.00  0.00    +0.077 A 
ATOM      5  C   UNL     1      16.766  27.845  46.921  0.00  0.00    +0.048 A 
ATOM      6  C   UNL     1      18.017  28.342  47.350  0.00  0.00    +0.116 A 
ATOM      7  N   UNL     1      18.624  29.373  46.667  0.00  0.00    -0.223 NA
ATOM      8  C   UNL     1      18.029  29.939  45.554  0.00  0.00    +0.220 A 
ATOM      9  N   UNL     1      18.618  30.982  44.856  0.00  0.00    -0.283 N 
ATOM     36  H   UNL     1      18.151  31.367  44.036  0.00  0.00    +0.155 HD
ATOM     37  N   UNL     1      16.836  29.482  45.123  0.00  0.00    -0.214 NA
BRANCH   4   3
ATOM      1  C   UNL     1      12.903  28.359  43.624  0.00  0.00    +0.020 A 
ATOM      2  C   UNL     1      14.177  28.800  44.145  0.00  0.00    +0.013 A 
ATOM      3  C   UNL     1      14.857  28.045  45.190  0.00  0.00    +0.019 A 
ATOM     38  C   UNL     1      14.216  26.837  45.689  0.00  0.00    +0.120 A 
ATOM     39  N   UNL     1      12.989  26.437  45.170  0.00  0.00    -0.263 NA
ATOM     40  C   UNL     1      12.325  27.157  44.166  0.00  0.00    +0.111 A 
ENDBRANCH   4   3
ENDBRANCH  10   9
BRANCH  12  13
ATOM     13  N   UNL     1      23.581  30.661  45.008  0.00  0.00    -0.281 N 
ATOM     14  C   UNL     1      24.175  29.597  45.666  0.00  0.00    +0.248 C 
ATOM     30  O   UNL     1      23.831  29.185  46.764  0.00  0.00    -0.270 OA
ATOM     31  H   UNL     1      24.084  31.023  44.197  0.00  0.00    +0.155 HD
BRANCH  14  15
ATOM     15  C   UNL     1      25.326  28.898  45.018  0.00  0.00    +0.037 A 
ATOM     16  C   UNL     1      25.526  28.947  43.567  0.00  0.00    +0.013 A 
ATOM     17  C   UNL     1      26.635  28.250  42.966  0.00  0.00    +0.005 A 
ATOM     18  C   UNL     1      27.554  27.497  43.817  0.00  0.00    -0.033 A 
ATOM     28  C   UNL     1      27.335  27.469  45.253  0.00  0.00    +0.005 A 
ATOM     29  C   UNL     1      26.248  28.151  45.846  0.00  0.00    +0.013 A 
BRANCH  18  19
ATOM     19  C   UNL     1      28.751  26.706  43.259  0.00  0.00    +0.119 C 
BRANCH  19  20
ATOM     20  N   UNL     1      29.502  25.837  44.214  0.00  0.00    -0.302 NA
ATOM     21  C   UNL     1      31.015  26.052  44.119  0.00  0.00    +0.066 C 
ATOM     22  C   UNL     1      31.783  25.152  45.141  0.00  0.00    -0.064 C 
ATOM     23  N   UNL     1      31.427  23.685  44.892  0.00  0.00    +0.379 N 
ATOM     24  C   UNL     1      32.192  22.832  45.813  0.00  0.00    -0.096 C 
ATOM     25  H   UNL     1      31.745  23.432  43.854  0.00  0.00    -0.082 HD
ATOM     26  C   UNL     1      29.924  23.463  44.981  0.00  0.00    -0.064 C 
ATOM     27  C   UNL     1      29.169  24.384  43.983  0.00  0.00    +0.066 C 
ENDBRANCH  19  20
ENDBRANCH  18  19
ENDBRANCH  14  15
ENDBRANCH  12  13
TORSDOF 6
ENDMDL
MODEL 4
REMARK VINA RESULT:      -7.8      6.792     16.441
REMARK  Name = C:\Users\Docking\Desktop\test protocol\1iep_ligandH.pdb
REMARK  8 active torsions:
REMARK  status: ('A' for Active; 'I' for Inactive)
REMARK    1  A    between atoms: _5  and  _11
REMARK    2  A    between atoms: _19  and  _21
REMARK    3  A    between atoms: _22  and  _66
REMARK    4  A    between atoms: _27  and  _30
REMARK    5  A    between atoms: _32  and  _33
REMARK    6  A    between atoms: _38  and  _43
REMARK    7  A    between atoms: _43  and  _46
REMARK    8  A    between atoms: _53  and  _55
REMARK                            x       y       z     vdW  Elec       q    Type
REMARK                         _______ _______ _______ _____ _____    ______ ____
ROOT
ATOM     10  C   UNL     1      34.464  28.185  38.970  0.00  0.00    +0.038 A 
ATOM     11  C   UNL     1      33.374  27.876  39.824  0.00  0.00    +0.047 A 
ATOM     12  C   UNL     1      33.324  28.372  41.190  0.00  0.00    +0.035 A 
ATOM     32  C   UNL     1      34.401  29.183  41.654  0.00  0.00    +0.024 A 
ATOM     33  C   UNL     1      35.517  29.506  40.801  0.00  0.00    +0.007 A 
ATOM     34  C   UNL     1      35.573  29.017  39.453  0.00  0.00    -0.029 A 
ATOM     35  C   UNL     1      36.797  29.390  38.584  0.00  0.00    +0.045 C 
ENDROOT
BRANCH  10   9
ATOM      4  C   UNL     1      35.372  24.731  35.763  0.00  0.00    +0.077 A 
ATOM      5  C   UNL     1      35.924  23.865  36.765  0.00  0.00    +0.048 A 
ATOM      6  C   UNL     1      35.963  24.349  38.092  0.00  0.00    +0.116 A 
ATOM      7  N   UNL     1      35.482  25.607  38.384  0.00  0.00    -0.223 NA
ATOM      8  C   UNL     1      34.957  26.417  37.394  0.00  0.00    +0.220 A 
ATOM      9  N   UNL     1      34.460  27.683  37.667  0.00  0.00    -0.283 N 
ATOM     36  H   UNL     1      34.088  28.253  36.908  0.00  0.00    +0.155 HD
ATOM     37  N   UNL     1      34.910  25.979  36.119  0.00  0.00    -0.214 NA
BRANCH   4   3
ATOM      1  C   UNL     1      34.779  22.724  32.459  0.00  0.00    +0.020 A 
ATOM      2  C   UNL     1      34.874  23.029  33.868  0.00  0.00    +0.013 A 
ATOM      3  C   UNL     1      35.258  24.361  34.317  0.00  0.00    +0.019 A 
ATOM     38  C   UNL     1      35.542  25.370  33.307  0.00  0.00    +0.120 A 
ATOM     39  N   UNL     1      35.444  25.047  31.958  0.00  0.00    -0.263 NA
ATOM     40  C   UNL     1      35.076  23.768  31.513  0.00  0.00    +0.111 A 
ENDBRANCH   4   3
ENDBRANCH  10   9
BRANCH  12  13
ATOM     13  N   UNL     1      32.248  28.084  42.105  0.00  0.00    -0.281 N 
ATOM     14  C   UNL     1      32.234  27.165  43.142  0.00  0.00    +0.248 C 
ATOM     30  O   UNL     1      33.076  26.296  43.306  0.00  0.00    -0.270 OA
ATOM     31  H   UNL     1      31.392  28.623  41.972  0.00  0.00    +0.155 HD
BRANCH  14  15
ATOM     15  C   UNL     1      31.114  27.210  44.131  0.00  0.00    +0.037 A 
ATOM     16  C   UNL     1      30.187  26.086  44.282  0.00  0.00    +0.013 A 
ATOM     17  C   UNL     1      29.106  26.162  45.232  0.00  0.00    +0.005 A 
ATOM     18  C   UNL     1      28.946  27.368  46.040  0.00  0.00    -0.033 A 
ATOM     28  C   UNL     1      29.883  28.467  45.874  0.00  0.00    +0.005 A 
ATOM     29  C   UNL     1      30.944  28.396  44.944  0.00  0.00    +0.013 A 
BRANCH  18  19
ATOM     19  C   UNL     1      27.809  27.545  47.063  0.00  0.00    +0.119 C 
BRANCH  19  20
ATOM     20  N   UNL     1      26.669  28.427  46.673  0.00  0.00    -0.302 NA
ATOM     21  C   UNL     1      25.497  28.319  47.652  0.00  0.00    +0.066 C 
ATOM     22  C   UNL     1      24.323  29.266  47.241  0.00  0.00    -0.064 C 
ATOM     23  N   UNL     1      23.873  28.928  45.819  0.00  0.00    +0.379 N 
ATOM     24  C   UNL     1      22.731  29.777  45.451  0.00  0.00    -0.096 C 
ATOM     25  H   UNL     1      23.522  27.870  45.818  0.00  0.00    -0.082 HD
ATOM     26  C   UNL     1      25.033  29.030  44.839  0.00  0.00    -0.064 C 
ATOM     27  C   UNL     1      26.206  28.108  45.273  0.00  0.00    +0.066 C 
ENDBRANCH  19  20
ENDBRANCH  18  19
ENDBRANCH  14  15
ENDBRANCH  12  13
TORSDOF 6
ENDMDL
MODEL 5
REMARK VINA RESULT:      -7.7     26.769     31.784
REMARK  Name = C:\Users\Docking\Desktop\test protocol\1iep_ligandH.pdb
REMARK  8 active torsions:
REMARK  status: ('A' for Active; 'I' for Inactive)
REMARK    1  A    between atoms: _5  and  _11
REMARK    2  A    between atoms: _19  and  _21
REMARK    3  A    between atoms: _22  and  _66
REMARK    4  A    between atoms: _27  and  _30
REMARK    5  A    between atoms: _32  and  _33
REMARK    6  A    between atoms: _38  and  _43
REMARK    7  A    between atoms: _43  and  _46
REMARK    8  A    between atoms: _53  and  _55
REMARK                            x       y       z     vdW  Elec       q    Type
REMARK                         _______ _______ _______ _____ _____    ______ ____
ROOT
ATOM     10  C   UNL     1     -12.439  25.135  44.667  0.00  0.00    +0.038 A 
ATOM     11  C   UNL     1     -11.133  24.638  44.428  0.00  0.00    +0.047 A 
ATOM     12  C   UNL     1     -10.378  25.041  43.251  0.00  0.00    +0.035 A 
ATOM     32  C   UNL     1     -10.984  25.954  42.340  0.00  0.00    +0.024 A 
ATOM     33  C   UNL     1     -12.312  26.469  42.568  0.00  0.00    +0.007 A 
ATOM     34  C   UNL     1     -13.062  26.073  43.725  0.00  0.00    -0.029 A 
ATOM     35  C   UNL     1     -14.483  26.651  43.915  0.00  0.00    +0.045 C 
ENDROOT
BRANCH  10   9
ATOM      4  C   UNL     1     -13.791  25.710  49.236  0.00  0.00    +0.077 A 
ATOM      5  C   UNL     1     -13.061  26.939  49.360  0.00  0.00    +0.048 A 
ATOM      6  C   UNL     1     -12.345  27.385  48.226  0.00  0.00    +0.116 A 
ATOM      7  N   UNL     1     -12.365  26.649  47.061  0.00  0.00    -0.223 NA
ATOM      8  C   UNL     1     -13.078  25.467  46.977  0.00  0.00    +0.220 A 
ATOM      9  N   UNL     1     -13.118  24.714  45.813  0.00  0.00    -0.283 N 
ATOM     36  H   UNL     1     -13.650  23.844  45.793  0.00  0.00    +0.155 HD
ATOM     37  N   UNL     1     -13.769  25.019  48.046  0.00  0.00    -0.214 NA
BRANCH   4   3
ATOM      1  C   UNL     1     -16.528  25.133  51.971  0.00  0.00    +0.020 A 
ATOM      2  C   UNL     1     -15.782  25.755  50.901  0.00  0.00    +0.013 A 
ATOM      3  C   UNL     1     -14.599  25.111  50.345  0.00  0.00    +0.019 A 
ATOM     38  C   UNL     1     -14.194  23.827  50.898  0.00  0.00    +0.120 A 
ATOM     39  N   UNL     1     -14.931  23.253  51.929  0.00  0.00    -0.263 NA
ATOM     40  C   UNL     1     -16.070  23.864  52.473  0.00  0.00    +0.111 A 
ENDBRANCH   4   3
ENDBRANCH  10   9
BRANCH  12  13
ATOM     13  N   UNL     1      -9.051  24.563  42.951  0.00  0.00    -0.281 N 
ATOM     14  C   UNL     1      -7.891  24.757  43.682  0.00  0.00    +0.248 C 
ATOM     30  O   UNL     1      -7.777  25.555  44.600  0.00  0.00    -0.270 OA
ATOM     31  H   UNL     1      -8.956  24.016  42.096  0.00  0.00    +0.155 HD
BRANCH  14  15
ATOM     15  C   UNL     1      -6.676  23.958  43.334  0.00  0.00    +0.037 A 
ATOM     16  C   UNL     1      -5.407  24.159  44.039  0.00  0.00    +0.013 A 
ATOM     17  C   UNL     1      -4.247  23.387  43.672  0.00  0.00    +0.005 A 
ATOM     18  C   UNL     1      -4.350  22.405  42.595  0.00  0.00    -0.033 A 
ATOM     28  C   UNL     1      -5.623  22.223  41.916  0.00  0.00    +0.005 A 
ATOM     29  C   UNL     1      -6.762  22.978  42.272  0.00  0.00    +0.013 A 
BRANCH  18  19
ATOM     19  C   UNL     1      -3.158  21.552  42.122  0.00  0.00    +0.119 C 
BRANCH  19  20
ATOM     20  N   UNL     1      -2.528  21.920  40.819  0.00  0.00    -0.302 NA
ATOM     21  C   UNL     1      -2.666  20.805  39.779  0.00  0.00    +0.066 C 
ATOM     22  C   UNL     1      -2.021  21.215  38.416  0.00  0.00    -0.064 C 
ATOM     23  N   UNL     1      -0.550  21.570  38.637  0.00  0.00    +0.379 N 
ATOM     24  C   UNL     1       0.074  21.901  37.347  0.00  0.00    -0.096 C 
ATOM     25  H   UNL     1      -0.040  20.664  39.037  0.00  0.00    -0.082 HD
ATOM     26  C   UNL     1      -0.403  22.677  39.671  0.00  0.00    -0.064 C 
ATOM     27  C   UNL     1      -1.073  22.271  41.014  0.00  0.00    +0.066 C 
ENDBRANCH  19  20
ENDBRANCH  18  19
ENDBRANCH  14  15
ENDBRANCH  12  13
TORSDOF 6
ENDMDL
