MODEL 1
REMARK VINA RESULT:      -8.3      0.000      0.000
REMARK  Name = C:\Users\Docking\Desktop\test protocol\1iep_ligandH.pdb
REMARK  8 active torsions:
REMARK  status: ('A' for Active; 'I' for Inactive)
REMARK    1  A    between atoms: _5  and  _11
REMARK    2  A    between atoms: _19  and  _21
REMARK    3  A    between atoms: _22  and  _66
REMARK    4  A    between atoms: _27  and  _30
REMARK    5  A    between atoms: _32  and  _33
REMARK    6  A    between atoms: _38  and  _43
REMARK    7  A    between atoms: _43  and  _46
REMARK    8  A    between atoms: _53  and  _55
REMARK                            x       y       z     vdW  Elec       q    Type
REMARK                         _______ _______ _______ _____ _____    ______ ____
ROOT
ATOM     10  C   UNL     1      14.026 108.605  60.620  0.00  0.00    +0.038 A 
ATOM     11  C   UNL     1      13.356 109.109  59.476  0.00  0.00    +0.047 A 
ATOM     12  C   UNL     1      13.478 108.454  58.183  0.00  0.00    +0.035 A 
ATOM     32  C   UNL     1      14.289 107.285  58.092  0.00  0.00    +0.024 A 
ATOM     33  C   UNL     1      14.978 106.760  59.245  0.00  0.00    +0.007 A 
ATOM     34  C   UNL     1      14.864 107.403  60.522  0.00  0.00    -0.029 A 
ATOM     35  C   UNL     1      15.630 106.800  61.722  0.00  0.00    +0.045 C 
ENDROOT
BRANCH  10   9
ATOM      4  C   UNL     1      11.738 109.377  64.768  0.00  0.00    +0.077 A 
ATOM      5  C   UNL     1      10.747 108.383  64.475  0.00  0.00    +0.048 A 
ATOM      6  C   UNL     1      10.857 107.700  63.243  0.00  0.00    +0.116 A 
ATOM      7  N   UNL     1      11.887 107.998  62.376  0.00  0.00    -0.223 NA
ATOM      8  C   UNL     1      12.825 108.964  62.689  0.00  0.00    +0.220 A 
ATOM      9  N   UNL     1      13.874 109.274  61.837  0.00  0.00    -0.283 N 
ATOM     36  H   UNL     1      14.541 109.998  62.101  0.00  0.00    +0.155 HD
ATOM     37  N   UNL     1      12.741 109.631  63.859  0.00  0.00    -0.214 NA
BRANCH   4   3
ATOM      1  C   UNL     1      12.946 111.246  67.985  0.00  0.00    +0.020 A 
ATOM      2  C   UNL     1      12.981 110.463  66.771  0.00  0.00    +0.013 A 
ATOM      3  C   UNL     1      11.758 110.181  66.031  0.00  0.00    +0.019 A 
ATOM     38  C   UNL     1      10.506 110.710  66.550  0.00  0.00    +0.120 A 
ATOM     39  N   UNL     1      10.502 111.459  67.722  0.00  0.00    -0.263 NA
ATOM     40  C   UNL     1      11.673 111.736  68.444  0.00  0.00    +0.111 A 
ENDBRANCH   4   3
ENDBRANCH  10   9
BRANCH  12  13
ATOM     13  N   UNL     1      12.828 108.924  56.985  0.00  0.00    -0.281 N 
ATOM     14  C   UNL     1      13.350 109.746  56.000  0.00  0.00    +0.248 C 
ATOM     30  O   UNL     1      14.390 110.378  56.106  0.00  0.00    -0.270 OA
ATOM     31  H   UNL     1      11.866 108.613  56.847  0.00  0.00    +0.155 HD
BRANCH  14  15
ATOM     15  C   UNL     1      12.600 109.899  54.716  0.00  0.00    +0.037 A 
ATOM     16  C   UNL     1      12.985 109.149  53.517  0.00  0.00    +0.013 A 
ATOM     17  C   UNL     1      12.256 109.328  52.287  0.00  0.00    +0.005 A 
ATOM     18  C   UNL     1      11.132 110.261  52.250  0.00  0.00    -0.033 A 
ATOM     28  C   UNL     1      10.768 110.987  53.455  0.00  0.00    +0.005 A 
ATOM     29  C   UNL     1      11.481 110.815  54.662  0.00  0.00    +0.013 A 
BRANCH  18  19
ATOM     19  C   UNL     1      10.310 110.530  50.975  0.00  0.00    +0.119 C 
BRANCH  19  20
ATOM     20  N   UNL     1       9.335 111.660  51.017  0.00  0.00    -0.302 NA
ATOM     21  C   UNL     1       7.952 111.244  50.507  0.00  0.00    +0.066 C 
ATOM     22  C   UNL     1       6.938 112.431  50.578  0.00  0.00    -0.064 C 
ATOM     23  N   UNL     1       7.481 113.611  49.770  0.00  0.00    +0.379 N 
ATOM     24  C   UNL     1       6.503 114.709  49.787  0.00  0.00    -0.096 C 
ATOM     25  H   UNL     1       7.592 113.274  48.713  0.00  0.00    -0.082 HD
ATOM     26  C   UNL     1       8.856 114.030  50.269  0.00  0.00    -0.064 C 
ATOM     27  C   UNL     1       9.849 112.835  50.221  0.00  0.00    +0.066 C 
ENDBRANCH  19  20
ENDBRANCH  18  19
ENDBRANCH  14  15
ENDBRANCH  12  13
TORSDOF 6
ENDMDL
MODEL 2
REMARK VINA RESULT:      -7.6     12.904     19.913
REMARK  Name = C:\Users\Docking\Desktop\test protocol\1iep_ligandH.pdb
REMARK  8 active torsions:
REMARK  status: ('A' for Active; 'I' for Inactive)
REMARK    1  A    between atoms: _5  and  _11
REMARK    2  A    between atoms: _19  and  _21
REMARK    3  A    between atoms: _22  and  _66
REMARK    4  A    between atoms: _27  and  _30
REMARK    5  A    between atoms: _32  and  _33
REMARK    6  A    between atoms: _38  and  _43
REMARK    7  A    between atoms: _43  and  _46
REMARK    8  A    between atoms: _53  and  _55
REMARK                            x       y       z     vdW  Elec       q    Type
REMARK                         _______ _______ _______ _____ _____    ______ ____
ROOT
ATOM     10  C   UNL     1      18.392 124.377  47.830  0.00  0.00    +0.038 A 
ATOM     11  C   UNL     1      18.492 123.075  48.384  0.00  0.00    +0.047 A 
ATOM     12  C   UNL     1      19.743 122.588  48.943  0.00  0.00    +0.035 A 
ATOM     32  C   UNL     1      20.874 123.456  48.924  0.00  0.00    +0.024 A 
ATOM     33  C   UNL     1      20.791 124.782  48.364  0.00  0.00    +0.007 A 
ATOM     34  C   UNL     1      19.559 125.266  47.809  0.00  0.00    -0.029 A 
ATOM     35  C   UNL     1      19.530 126.695  47.216  0.00  0.00    +0.045 C 
ENDROOT
BRANCH  10   9
ATOM      4  C   UNL     1      15.126 124.538  44.317  0.00  0.00    +0.077 A 
ATOM      5  C   UNL     1      15.944 123.751  43.440  0.00  0.00    +0.048 A 
ATOM      6  C   UNL     1      17.201 123.330  43.928  0.00  0.00    +0.116 A 
ATOM      7  N   UNL     1      17.600 123.677  45.201  0.00  0.00    -0.223 NA
ATOM      8  C   UNL     1      16.788 124.438  46.020  0.00  0.00    +0.220 A 
ATOM      9  N   UNL     1      17.166 124.792  47.307  0.00  0.00    -0.283 N 
ATOM     36  H   UNL     1      16.541 125.361  47.877  0.00  0.00    +0.155 HD
ATOM     37  N   UNL     1      15.583 124.854  45.576  0.00  0.00    -0.214 NA
BRANCH   4   3
ATOM      1  C   UNL     1      11.999 125.677  42.261  0.00  0.00    +0.020 A 
ATOM      2  C   UNL     1      13.318 125.172  42.565  0.00  0.00    +0.013 A 
ATOM      3  C   UNL     1      13.771 125.055  43.946  0.00  0.00    +0.019 A 
ATOM     38  C   UNL     1      12.857 125.459  45.003  0.00  0.00    +0.120 A 
ATOM     39  N   UNL     1      11.593 125.943  44.680  0.00  0.00    -0.263 NA
ATOM     40  C   UNL     1      11.147 126.062  43.356  0.00  0.00    +0.111 A 
ENDBRANCH   4   3
ENDBRANCH  10   9
BRANCH  12  13
ATOM     13  N   UNL     1      19.907 121.273  49.511  0.00  0.00    -0.281 N 
ATOM     14  C   UNL     1      20.187 120.089  48.850  0.00  0.00    +0.248 C 
ATOM     30  O   UNL     1      20.130 119.943  47.638  0.00  0.00    -0.270 OA
ATOM     31  H   UNL     1      19.802 121.208  50.524  0.00  0.00    +0.155 HD
BRANCH  14  15
ATOM     15  C   UNL     1      20.574 118.888  49.652  0.00  0.00    +0.037 A 
ATOM     16  C   UNL     1      21.472 117.867  49.107  0.00  0.00    +0.013 A 
ATOM     17  C   UNL     1      21.816 116.710  49.896  0.00  0.00    +0.005 A 
ATOM     18  C   UNL     1      21.262 116.570  51.240  0.00  0.00    -0.033 A 
ATOM     28  C   UNL     1      20.378 117.601  51.759  0.00  0.00    +0.005 A 
ATOM     29  C   UNL     1      20.038 118.736  50.988  0.00  0.00    +0.013 A 
BRANCH  18  19
ATOM     19  C   UNL     1      21.558 115.359  52.144  0.00  0.00    +0.119 C 
BRANCH  19  20
ATOM     20  N   UNL     1      20.389 114.669  52.767  0.00  0.00    -0.302 NA
ATOM     21  C   UNL     1      20.575 114.470  54.274  0.00  0.00    +0.066 C 
ATOM     22  C   UNL     1      19.333 113.767  54.913  0.00  0.00    -0.064 C 
ATOM     23  N   UNL     1      19.094 112.427  54.215  0.00  0.00    +0.379 N 
ATOM     24  C   UNL     1      17.962 111.737  54.852  0.00  0.00    -0.096 C 
ATOM     25  H   UNL     1      20.002 111.800  54.368  0.00  0.00    -0.082 HD
ATOM     26  C   UNL     1      18.910 112.616  52.716  0.00  0.00    -0.064 C 
ATOM     27  C   UNL     1      20.137 113.341  52.096  0.00  0.00    +0.066 C 
ENDBRANCH  19  20
ENDBRANCH  18  19
ENDBRANCH  14  15
ENDBRANCH  12  13
TORSDOF 6
ENDMDL
MODEL 3
REMARK VINA RESULT:      -7.5     23.322     26.416
REMARK  Name = C:\Users\Docking\Desktop\test protocol\1iep_ligandH.pdb
REMARK  8 active torsions:
REMARK  status: ('A' for Active; 'I' for Inactive)
REMARK    1  A    between atoms: _5  and  _11
REMARK    2  A    between atoms: _19  and  _21
REMARK    3  A    between atoms: _22  and  _66
REMARK    4  A    between atoms: _27  and  _30
REMARK    5  A    between atoms: _32  and  _33
REMARK    6  A    between atoms: _38  and  _43
REMARK    7  A    between atoms: _43  and  _46
REMARK    8  A    between atoms: _53  and  _55
REMARK                            x       y       z     vdW  Elec       q    Type
REMARK                         _______ _______ _______ _____ _____    ______ ____
ROOT
ATOM     10  C   UNL     1       8.364 135.200  61.838  0.00  0.00    +0.038 A 
ATOM     11  C   UNL     1       7.150 134.848  61.194  0.00  0.00    +0.047 A 
ATOM     12  C   UNL     1       5.999 135.737  61.220  0.00  0.00    +0.035 A 
ATOM     32  C   UNL     1       6.120 136.978  61.909  0.00  0.00    +0.024 A 
ATOM     33  C   UNL     1       7.345 137.352  62.570  0.00  0.00    +0.007 A 
ATOM     34  C   UNL     1       8.483 136.478  62.550  0.00  0.00    -0.029 A 
ATOM     35  C   UNL     1       9.770 136.927  63.282  0.00  0.00    +0.045 C 
ENDROOT
BRANCH  10   9
ATOM      4  C   UNL     1      12.406 133.565  59.831  0.00  0.00    +0.077 A 
ATOM      5  C   UNL     1      12.359 134.553  58.792  0.00  0.00    +0.048 A 
ATOM      6  C   UNL     1      11.275 135.459  58.806  0.00  0.00    +0.116 A 
ATOM      7  N   UNL     1      10.315 135.374  59.790  0.00  0.00    -0.223 NA
ATOM      8  C   UNL     1      10.388 134.408  60.777  0.00  0.00    +0.220 A 
ATOM      9  N   UNL     1       9.438 134.309  61.781  0.00  0.00    -0.283 N 
ATOM     36  H   UNL     1       9.524 133.578  62.486  0.00  0.00    +0.155 HD
ATOM     37  N   UNL     1      11.413 133.530  60.785  0.00  0.00    -0.214 NA
BRANCH   4   3
ATOM      1  C   UNL     1      14.538 130.511  61.025  0.00  0.00    +0.020 A 
ATOM      2  C   UNL     1      13.465 131.476  60.949  0.00  0.00    +0.013 A 
ATOM      3  C   UNL     1      13.490 132.540  59.953  0.00  0.00    +0.019 A 
ATOM     38  C   UNL     1      14.622 132.599  59.042  0.00  0.00    +0.120 A 
ATOM     39  N   UNL     1      15.641 131.657  59.139  0.00  0.00    -0.263 NA
ATOM     40  C   UNL     1      15.629 130.629  60.095  0.00  0.00    +0.111 A 
ENDBRANCH   4   3
ENDBRANCH  10   9
BRANCH  12  13
ATOM     13  N   UNL     1       4.739 135.429  60.591  0.00  0.00    -0.281 N 
ATOM     14  C   UNL     1       3.550 135.063  61.200  0.00  0.00    +0.248 C 
ATOM     30  O   UNL     1       3.446 134.735  62.373  0.00  0.00    -0.270 OA
ATOM     31  H   UNL     1       4.721 135.489  59.572  0.00  0.00    +0.155 HD
BRANCH  14  15
ATOM     15  C   UNL     1       2.297 135.044  60.385  0.00  0.00    +0.037 A 
ATOM     16  C   UNL     1       2.281 134.492  59.028  0.00  0.00    +0.013 A 
ATOM     17  C   UNL     1       1.062 134.502  58.258  0.00  0.00    +0.005 A 
ATOM     18  C   UNL     1      -0.151 135.066  58.844  0.00  0.00    -0.033 A 
ATOM     28  C   UNL     1      -0.109 135.602  60.195  0.00  0.00    +0.005 A 
ATOM     29  C   UNL     1       1.084 135.595  60.952  0.00  0.00    +0.013 A 
BRANCH  18  19
ATOM     19  C   UNL     1      -1.491 135.137  58.087  0.00  0.00    +0.119 C 
BRANCH  19  20
ATOM     20  N   UNL     1      -2.382 133.941  58.159  0.00  0.00    -0.302 NA
ATOM     21  C   UNL     1      -2.923 133.543  56.783  0.00  0.00    +0.066 C 
ATOM     22  C   UNL     1      -3.834 132.277  56.874  0.00  0.00    -0.064 C 
ATOM     23  N   UNL     1      -4.981 132.546  57.849  0.00  0.00    +0.379 N 
ATOM     24  C   UNL     1      -5.873 131.378  57.893  0.00  0.00    -0.096 C 
ATOM     25  H   UNL     1      -5.569 133.406  57.451  0.00  0.00    -0.082 HD
ATOM     26  C   UNL     1      -4.452 132.944  59.220  0.00  0.00    -0.064 C 
ATOM     27  C   UNL     1      -3.524 134.186  59.114  0.00  0.00    +0.066 C 
ENDBRANCH  19  20
ENDBRANCH  18  19
ENDBRANCH  14  15
ENDBRANCH  12  13
TORSDOF 6
ENDMDL
MODEL 4
REMARK VINA RESULT:      -7.5     13.984     18.610
REMARK  Name = C:\Users\Docking\Desktop\test protocol\1iep_ligandH.pdb
REMARK  8 active torsions:
REMARK  status: ('A' for Active; 'I' for Inactive)
REMARK    1  A    between atoms: _5  and  _11
REMARK    2  A    between atoms: _19  and  _21
REMARK    3  A    between atoms: _22  and  _66
REMARK    4  A    between atoms: _27  and  _30
REMARK    5  A    between atoms: _32  and  _33
REMARK    6  A    between atoms: _38  and  _43
REMARK    7  A    between atoms: _43  and  _46
REMARK    8  A    between atoms: _53  and  _55
REMARK                            x       y       z     vdW  Elec       q    Type
REMARK                         _______ _______ _______ _____ _____    ______ ____
ROOT
ATOM     10  C   UNL     1      19.960 122.097  48.571  0.00  0.00    +0.038 A 
ATOM     11  C   UNL     1      18.662 122.557  48.232  0.00  0.00    +0.047 A 
ATOM     12  C   UNL     1      18.460 123.515  47.156  0.00  0.00    +0.035 A 
ATOM     32  C   UNL     1      19.602 123.982  46.444  0.00  0.00    +0.024 A 
ATOM     33  C   UNL     1      20.929 123.526  46.775  0.00  0.00    +0.007 A 
ATOM     34  C   UNL     1      21.135 122.583  47.837  0.00  0.00    -0.029 A 
ATOM     35  C   UNL     1      22.581 122.133  48.153  0.00  0.00    +0.045 C 
ENDROOT
BRANCH  10   9
ATOM      4  C   UNL     1      20.472 117.620  50.224  0.00  0.00    +0.077 A 
ATOM      5  C   UNL     1      20.438 117.065  48.902  0.00  0.00    +0.048 A 
ATOM      6  C   UNL     1      20.281 117.965  47.824  0.00  0.00    +0.116 A 
ATOM      7  N   UNL     1      20.167 119.317  48.062  0.00  0.00    -0.223 NA
ATOM      8  C   UNL     1      20.201 119.820  49.350  0.00  0.00    +0.220 A 
ATOM      9  N   UNL     1      20.096 121.177  49.613  0.00  0.00    -0.283 N 
ATOM     36  H   UNL     1      20.119 121.507  50.577  0.00  0.00    +0.155 HD
ATOM     37  N   UNL     1      20.349 118.981  50.397  0.00  0.00    -0.214 NA
BRANCH   4   3
ATOM      1  C   UNL     1      21.159 116.535  53.919  0.00  0.00    +0.020 A 
ATOM      2  C   UNL     1      21.014 117.373  52.751  0.00  0.00    +0.013 A 
ATOM      3  C   UNL     1      20.636 116.799  51.465  0.00  0.00    +0.019 A 
ATOM     38  C   UNL     1      20.409 115.363  51.396  0.00  0.00    +0.120 A 
ATOM     39  N   UNL     1      20.557 114.582  52.537  0.00  0.00    -0.263 NA
ATOM     40  C   UNL     1      20.922 115.122  53.779  0.00  0.00    +0.111 A 
ENDBRANCH   4   3
ENDBRANCH  10   9
BRANCH  12  13
ATOM     13  N   UNL     1      17.166 124.024  46.773  0.00  0.00    -0.281 N 
ATOM     14  C   UNL     1      16.765 125.347  46.680  0.00  0.00    +0.248 C 
ATOM     30  O   UNL     1      17.398 126.294  47.122  0.00  0.00    -0.270 OA
ATOM     31  H   UNL     1      16.461 123.324  46.542  0.00  0.00    +0.155 HD
BRANCH  14  15
ATOM     15  C   UNL     1      15.465 125.662  46.014  0.00  0.00    +0.037 A 
ATOM     16  C   UNL     1      15.085 127.042  45.703  0.00  0.00    +0.013 A 
ATOM     17  C   UNL     1      13.817 127.319  45.075  0.00  0.00    +0.005 A 
ATOM     18  C   UNL     1      12.920 126.212  44.752  0.00  0.00    -0.033 A 
ATOM     28  C   UNL     1      13.324 124.852  45.067  0.00  0.00    +0.005 A 
ATOM     29  C   UNL     1      14.566 124.576  45.683  0.00  0.00    +0.013 A 
BRANCH  18  19
ATOM     19  C   UNL     1      11.540 126.417  44.101  0.00  0.00    +0.119 C 
BRANCH  19  20
ATOM     20  N   UNL     1      11.511 126.708  42.637  0.00  0.00    -0.302 NA
ATOM     21  C   UNL     1      10.842 128.051  42.331  0.00  0.00    +0.066 C 
ATOM     22  C   UNL     1      10.840 128.350  40.796  0.00  0.00    -0.064 C 
ATOM     23  N   UNL     1      10.133 127.212  40.059  0.00  0.00    +0.379 N 
ATOM     24  C   UNL     1      10.079 127.518  38.622  0.00  0.00    -0.096 C 
ATOM     25  H   UNL     1       9.084 127.166  40.435  0.00  0.00    -0.082 HD
ATOM     26  C   UNL     1      10.790 125.873  40.359  0.00  0.00    -0.064 C 
ATOM     27  C   UNL     1      10.813 125.599  41.889  0.00  0.00    +0.066 C 
ENDBRANCH  19  20
ENDBRANCH  18  19
ENDBRANCH  14  15
ENDBRANCH  12  13
TORSDOF 6
ENDMDL
MODEL 5
REMARK VINA RESULT:      -7.4     24.546     27.311
REMARK  Name = C:\Users\Docking\Desktop\test protocol\1iep_ligandH.pdb
REMARK  8 active torsions:
REMARK  status: ('A' for Active; 'I' for Inactive)
REMARK    1  A    between atoms: _5  and  _11
REMARK    2  A    between atoms: _19  and  _21
REMARK    3  A    between atoms: _22  and  _66
REMARK    4  A    between atoms: _27  and  _30
REMARK    5  A    between atoms: _32  and  _33
REMARK    6  A    between atoms: _38  and  _43
REMARK    7  A    between atoms: _43  and  _46
REMARK    8  A    between atoms: _53  and  _55
REMARK                            x       y       z     vdW  Elec       q    Type
REMARK                         _______ _______ _______ _____ _____    ______ ____
ROOT
ATOM     10  C   UNL     1       3.373 135.225  62.107  0.00  0.00    +0.038 A 
ATOM     11  C   UNL     1       4.760 134.997  61.919  0.00  0.00    +0.047 A 
ATOM     12  C   UNL     1       5.290 134.611  60.620  0.00  0.00    +0.035 A 
ATOM     32  C   UNL     1       4.378 134.469  59.534  0.00  0.00    +0.024 A 
ATOM     33  C   UNL     1       2.965 134.695  59.707  0.00  0.00    +0.007 A 
ATOM     34  C   UNL     1       2.436 135.074  60.987  0.00  0.00    -0.029 A 
ATOM     35  C   UNL     1       0.912 135.297  61.116  0.00  0.00    +0.045 C 
ENDROOT
BRANCH  10   9
ATOM      4  C   UNL     1       2.577 138.490  65.534  0.00  0.00    +0.077 A 
ATOM      5  C   UNL     1       3.137 139.545  64.740  0.00  0.00    +0.048 A 
ATOM      6  C   UNL     1       3.626 139.205  63.459  0.00  0.00    +0.116 A 
ATOM      7  N   UNL     1       3.554 137.903  63.014  0.00  0.00    -0.223 NA
ATOM      8  C   UNL     1       3.009 136.908  63.805  0.00  0.00    +0.220 A 
ATOM      9  N   UNL     1       2.919 135.593  63.375  0.00  0.00    -0.283 N 
ATOM     36  H   UNL     1       2.516 134.888  63.991  0.00  0.00    +0.155 HD
ATOM     37  N   UNL     1       2.536 137.207  65.033  0.00  0.00    -0.214 NA
BRANCH   4   3
ATOM      1  C   UNL     1       2.123 139.615  69.252  0.00  0.00    +0.020 A 
ATOM      2  C   UNL     1       2.708 139.449  67.942  0.00  0.00    +0.013 A 
ATOM      3  C   UNL     1       2.016 138.692  66.907  0.00  0.00    +0.019 A 
ATOM     38  C   UNL     1       0.722 138.112  67.232  0.00  0.00    +0.120 A 
ATOM     39  N   UNL     1       0.183 138.287  68.503  0.00  0.00    -0.263 NA
ATOM     40  C   UNL     1       0.841 139.012  69.508  0.00  0.00    +0.111 A 
ENDBRANCH   4   3
ENDBRANCH  10   9
BRANCH  12  13
ATOM     13  N   UNL     1       6.688 134.359  60.371  0.00  0.00    -0.281 N 
ATOM     14  C   UNL     1       7.311 133.137  60.177  0.00  0.00    +0.248 C 
ATOM     30  O   UNL     1       6.793 132.053  60.402  0.00  0.00    -0.270 OA
ATOM     31  H   UNL     1       7.291 135.181  60.333  0.00  0.00    +0.155 HD
BRANCH  14  15
ATOM     15  C   UNL     1       8.719 133.116  59.675  0.00  0.00    +0.037 A 
ATOM     16  C   UNL     1       9.332 134.308  59.085  0.00  0.00    +0.013 A 
ATOM     17  C   UNL     1      10.686 134.256  58.592  0.00  0.00    +0.005 A 
ATOM     18  C   UNL     1      11.436 133.006  58.689  0.00  0.00    -0.033 A 
ATOM     28  C   UNL     1      10.804 131.840  59.284  0.00  0.00    +0.005 A 
ATOM     29  C   UNL     1       9.477 131.887  59.767  0.00  0.00    +0.013 A 
BRANCH  18  19
ATOM     19  C   UNL     1      12.878 132.854  58.170  0.00  0.00    +0.119 C 
BRANCH  19  20
ATOM     20  N   UNL     1      13.938 132.549  59.177  0.00  0.00    -0.302 NA
ATOM     21  C   UNL     1      14.051 133.643  60.242  0.00  0.00    +0.066 C 
ATOM     22  C   UNL     1      15.149 133.298  61.299  0.00  0.00    -0.064 C 
ATOM     23  N   UNL     1      16.489 133.091  60.590  0.00  0.00    +0.379 N 
ATOM     24  C   UNL     1      17.536 132.823  61.588  0.00  0.00    -0.096 C 
ATOM     25  H   UNL     1      16.749 134.045  60.075  0.00  0.00    -0.082 HD
ATOM     26  C   UNL     1      16.385 132.006  59.528  0.00  0.00    -0.064 C 
ATOM     27  C   UNL     1      15.271 132.345  58.499  0.00  0.00    +0.066 C 
ENDBRANCH  19  20
ENDBRANCH  18  19
ENDBRANCH  14  15
ENDBRANCH  12  13
TORSDOF 6
ENDMDL
