MODEL 1
REMARK VINA RESULT:      -9.7      0.000      0.000
REMARK  Name = C:\Users\Docking\Desktop\test protocol\1iep_ligandH.pdb
REMARK  8 active torsions:
REMARK  status: ('A' for Active; 'I' for Inactive)
REMARK    1  A    between atoms: _5  and  _11
REMARK    2  A    between atoms: _19  and  _21
REMARK    3  A    between atoms: _22  and  _66
REMARK    4  A    between atoms: _27  and  _30
REMARK    5  A    between atoms: _32  and  _33
REMARK    6  A    between atoms: _38  and  _43
REMARK    7  A    between atoms: _43  and  _46
REMARK    8  A    between atoms: _53  and  _55
REMARK                            x       y       z     vdW  Elec       q    Type
REMARK                         _______ _______ _______ _____ _____    ______ ____
ROOT
ATOM     10  C   UNL     1      18.789  17.466  20.142  0.00  0.00    +0.038 A 
ATOM     11  C   UNL     1      19.410  16.225  19.849  0.00  0.00    +0.047 A 
ATOM     12  C   UNL     1      20.477  15.700  20.686  0.00  0.00    +0.035 A 
ATOM     32  C   UNL     1      20.886  16.465  21.817  0.00  0.00    +0.024 A 
ATOM     33  C   UNL     1      20.267  17.729  22.130  0.00  0.00    +0.007 A 
ATOM     34  C   UNL     1      19.215  18.253  21.306  0.00  0.00    -0.029 A 
ATOM     35  C   UNL     1      18.592  19.617  21.685  0.00  0.00    +0.045 C 
ENDROOT
BRANCH  10   9
ATOM      4  C   UNL     1      17.099  20.405  16.745  0.00  0.00    +0.077 A 
ATOM      5  C   UNL     1      18.346  21.109  16.650  0.00  0.00    +0.048 A 
ATOM      6  C   UNL     1      19.395  20.688  17.498  0.00  0.00    +0.116 A 
ATOM      7  N   UNL     1      19.200  19.640  18.372  0.00  0.00    -0.223 NA
ATOM      8  C   UNL     1      17.985  18.984  18.439  0.00  0.00    +0.220 A 
ATOM      9  N   UNL     1      17.769  17.922  19.304  0.00  0.00    -0.283 N 
ATOM     36  H   UNL     1      16.856  17.469  19.329  0.00  0.00    +0.155 HD
ATOM     37  N   UNL     1      16.967  19.368  17.641  0.00  0.00    -0.214 NA
BRANCH   4   3
ATOM      1  C   UNL     1      14.768  21.870  13.966  0.00  0.00    +0.020 A 
ATOM      2  C   UNL     1      15.958  21.588  14.736  0.00  0.00    +0.013 A 
ATOM      3  C   UNL     1      15.898  20.730  15.912  0.00  0.00    +0.019 A 
ATOM     38  C   UNL     1      14.609  20.167  16.285  0.00  0.00    +0.120 A 
ATOM     39  N   UNL     1      13.480  20.458  15.526  0.00  0.00    -0.263 NA
ATOM     40  C   UNL     1      13.525  21.283  14.393  0.00  0.00    +0.111 A 
ENDBRANCH   4   3
ENDBRANCH  10   9
BRANCH  12  13
ATOM     13  N   UNL     1      21.150  14.450  20.433  0.00  0.00    -0.281 N 
ATOM     14  C   UNL     1      21.108  13.292  21.191  0.00  0.00    +0.248 C 
ATOM     30  O   UNL     1      20.652  13.223  22.323  0.00  0.00    -0.270 OA
ATOM     31  H   UNL     1      21.727  14.415  19.593  0.00  0.00    +0.155 HD
BRANCH  14  15
ATOM     15  C   UNL     1      21.665  12.031  20.614  0.00  0.00    +0.037 A 
ATOM     16  C   UNL     1      22.784  12.057  19.669  0.00  0.00    +0.013 A 
ATOM     17  C   UNL     1      23.292  10.828  19.115  0.00  0.00    +0.005 A 
ATOM     18  C   UNL     1      22.681   9.560  19.506  0.00  0.00    -0.033 A 
ATOM     28  C   UNL     1      21.576   9.562  20.450  0.00  0.00    +0.005 A 
ATOM     29  C   UNL     1      21.075  10.765  20.994  0.00  0.00    +0.013 A 
BRANCH  18  19
ATOM     19  C   UNL     1      23.145   8.201  18.948  0.00  0.00    +0.119 C 
BRANCH  19  20
ATOM     20  N   UNL     1      24.129   7.427  19.762  0.00  0.00    -0.302 NA
ATOM     21  C   UNL     1      23.547   6.100  20.259  0.00  0.00    +0.066 C 
ATOM     22  C   UNL     1      24.598   5.294  21.090  0.00  0.00    -0.064 C 
ATOM     23  N   UNL     1      25.079   6.148  22.264  0.00  0.00    +0.379 N 
ATOM     24  C   UNL     1      26.023   5.371  23.081  0.00  0.00    -0.096 C 
ATOM     25  H   UNL     1      24.193   6.379  22.900  0.00  0.00    -0.082 HD
ATOM     26  C   UNL     1      25.656   7.470  21.780  0.00  0.00    -0.064 C 
ATOM     27  C   UNL     1      24.614   8.250  20.930  0.00  0.00    +0.066 C 
ENDBRANCH  19  20
ENDBRANCH  18  19
ENDBRANCH  14  15
ENDBRANCH  12  13
TORSDOF 6
ENDMDL
MODEL 2
REMARK VINA RESULT:      -9.5      2.960     13.592
REMARK  Name = C:\Users\Docking\Desktop\test protocol\1iep_ligandH.pdb
REMARK  8 active torsions:
REMARK  status: ('A' for Active; 'I' for Inactive)
REMARK    1  A    between atoms: _5  and  _11
REMARK    2  A    between atoms: _19  and  _21
REMARK    3  A    between atoms: _22  and  _66
REMARK    4  A    between atoms: _27  and  _30
REMARK    5  A    between atoms: _32  and  _33
REMARK    6  A    between atoms: _38  and  _43
REMARK    7  A    between atoms: _43  and  _46
REMARK    8  A    between atoms: _53  and  _55
REMARK                            x       y       z     vdW  Elec       q    Type
REMARK                         _______ _______ _______ _____ _____    ______ ____
ROOT
ATOM     10  C   UNL     1      20.009  17.491  19.118  0.00  0.00    +0.038 A 
ATOM     11  C   UNL     1      18.751  17.659  18.486  0.00  0.00    +0.047 A 
ATOM     12  C   UNL     1      18.105  18.961  18.428  0.00  0.00    +0.035 A 
ATOM     32  C   UNL     1      18.772  20.072  19.023  0.00  0.00    +0.024 A 
ATOM     33  C   UNL     1      20.050  19.919  19.671  0.00  0.00    +0.007 A 
ATOM     34  C   UNL     1      20.690  18.636  19.733  0.00  0.00    -0.029 A 
ATOM     35  C   UNL     1      22.058  18.529  20.447  0.00  0.00    +0.045 C 
ENDROOT
BRANCH  10   9
ATOM      4  C   UNL     1      21.128  13.398  21.363  0.00  0.00    +0.077 A 
ATOM      5  C   UNL     1      20.544  13.845  22.594  0.00  0.00    +0.048 A 
ATOM      6  C   UNL     1      19.972  15.137  22.611  0.00  0.00    +0.116 A 
ATOM      7  N   UNL     1      19.989  15.915  21.474  0.00  0.00    -0.223 NA
ATOM      8  C   UNL     1      20.562  15.455  20.302  0.00  0.00    +0.220 A 
ATOM      9  N   UNL     1      20.582  16.218  19.145  0.00  0.00    -0.283 N 
ATOM     36  H   UNL     1      21.021  15.845  18.303  0.00  0.00    +0.155 HD
ATOM     37  N   UNL     1      21.115  14.225  20.262  0.00  0.00    -0.214 NA
BRANCH   4   3
ATOM      1  C   UNL     1      23.480  10.301  21.779  0.00  0.00    +0.020 A 
ATOM      2  C   UNL     1      22.899  11.607  21.989  0.00  0.00    +0.013 A 
ATOM      3  C   UNL     1      21.768  12.056  21.186  0.00  0.00    +0.019 A 
ATOM     38  C   UNL     1      21.245  11.153  20.173  0.00  0.00    +0.120 A 
ATOM     39  N   UNL     1      21.826   9.902  19.992  0.00  0.00    -0.263 NA
ATOM     40  C   UNL     1      22.915   9.459  20.757  0.00  0.00    +0.111 A 
ENDBRANCH   4   3
ENDBRANCH  10   9
BRANCH  12  13
ATOM     13  N   UNL     1      16.825  19.191  17.806  0.00  0.00    -0.281 N 
ATOM     14  C   UNL     1      15.623  19.501  18.421  0.00  0.00    +0.248 C 
ATOM     30  O   UNL     1      15.420  19.418  19.623  0.00  0.00    -0.270 OA
ATOM     31  H   UNL     1      16.802  19.116  16.789  0.00  0.00    +0.155 HD
BRANCH  14  15
ATOM     15  C   UNL     1      14.476  19.956  17.577  0.00  0.00    +0.037 A 
ATOM     16  C   UNL     1      14.622  20.136  16.130  0.00  0.00    +0.013 A 
ATOM     17  C   UNL     1      13.505  20.592  15.342  0.00  0.00    +0.005 A 
ATOM     18  C   UNL     1      12.230  20.871  16.000  0.00  0.00    -0.033 A 
ATOM     28  C   UNL     1      12.112  20.679  17.436  0.00  0.00    +0.005 A 
ATOM     29  C   UNL     1      13.206  20.233  18.212  0.00  0.00    +0.013 A 
BRANCH  18  19
ATOM     19  C   UNL     1      10.991  21.382  15.241  0.00  0.00    +0.119 C 
BRANCH  19  20
ATOM     20  N   UNL     1      10.894  21.050  13.788  0.00  0.00    -0.302 NA
ATOM     21  C   UNL     1      10.027  22.055  13.026  0.00  0.00    +0.066 C 
ATOM     22  C   UNL     1       9.955  21.705  11.504  0.00  0.00    -0.064 C 
ATOM     23  N   UNL     1       9.413  20.285  11.335  0.00  0.00    +0.379 N 
ATOM     24  C   UNL     1       9.289  19.974   9.903  0.00  0.00    -0.096 C 
ATOM     25  H   UNL     1       8.390  20.259  11.776  0.00  0.00    -0.082 HD
ATOM     26  C   UNL     1      10.268  19.279  12.092  0.00  0.00    -0.064 C 
ATOM     27  C   UNL     1      10.357  19.652  13.598  0.00  0.00    +0.066 C 
ENDBRANCH  19  20
ENDBRANCH  18  19
ENDBRANCH  14  15
ENDBRANCH  12  13
TORSDOF 6
ENDMDL
MODEL 3
REMARK VINA RESULT:      -9.5      3.455     12.818
REMARK  Name = C:\Users\Docking\Desktop\test protocol\1iep_ligandH.pdb
REMARK  8 active torsions:
REMARK  status: ('A' for Active; 'I' for Inactive)
REMARK    1  A    between atoms: _5  and  _11
REMARK    2  A    between atoms: _19  and  _21
REMARK    3  A    between atoms: _22  and  _66
REMARK    4  A    between atoms: _27  and  _30
REMARK    5  A    between atoms: _32  and  _33
REMARK    6  A    between atoms: _38  and  _43
REMARK    7  A    between atoms: _43  and  _46
REMARK    8  A    between atoms: _53  and  _55
REMARK                            x       y       z     vdW  Elec       q    Type
REMARK                         _______ _______ _______ _____ _____    ______ ____
ROOT
ATOM     10  C   UNL     1      19.935  17.629  19.286  0.00  0.00    +0.038 A 
ATOM     11  C   UNL     1      18.618  17.894  18.829  0.00  0.00    +0.047 A 
ATOM     12  C   UNL     1      18.048  19.229  18.909  0.00  0.00    +0.035 A 
ATOM     32  C   UNL     1      18.848  20.274  19.458  0.00  0.00    +0.024 A 
ATOM     33  C   UNL     1      20.188  20.022  19.928  0.00  0.00    +0.007 A 
ATOM     34  C   UNL     1      20.754  18.706  19.854  0.00  0.00    -0.029 A 
ATOM     35  C   UNL     1      22.193  18.493  20.380  0.00  0.00    +0.045 C 
ENDROOT
BRANCH  10   9
ATOM      4  C   UNL     1      21.032  13.359  21.182  0.00  0.00    +0.077 A 
ATOM      5  C   UNL     1      20.603  13.763  22.490  0.00  0.00    +0.048 A 
ATOM      6  C   UNL     1      20.114  15.080  22.634  0.00  0.00    +0.116 A 
ATOM      7  N   UNL     1      20.061  15.922  21.544  0.00  0.00    -0.223 NA
ATOM      8  C   UNL     1      20.484  15.501  20.297  0.00  0.00    +0.220 A 
ATOM      9  N   UNL     1      20.432  16.328  19.185  0.00  0.00    -0.283 N 
ATOM     36  H   UNL     1      20.760  15.982  18.284  0.00  0.00    +0.155 HD
ATOM     37  N   UNL     1      20.957  14.248  20.133  0.00  0.00    -0.214 NA
BRANCH   4   3
ATOM      1  C   UNL     1      21.610   9.862  19.525  0.00  0.00    +0.020 A 
ATOM      2  C   UNL     1      21.054  11.170  19.786  0.00  0.00    +0.013 A 
ATOM      3  C   UNL     1      21.571  11.997  20.869  0.00  0.00    +0.019 A 
ATOM     38  C   UNL     1      22.660  11.467  21.676  0.00  0.00    +0.120 A 
ATOM     39  N   UNL     1      23.174  10.204  21.403  0.00  0.00    -0.263 NA
ATOM     40  C   UNL     1      22.684   9.398  20.364  0.00  0.00    +0.111 A 
ENDBRANCH   4   3
ENDBRANCH  10   9
BRANCH  12  13
ATOM     13  N   UNL     1      16.715  19.556  18.468  0.00  0.00    -0.281 N 
ATOM     14  C   UNL     1      16.334  20.162  17.282  0.00  0.00    +0.248 C 
ATOM     30  O   UNL     1      17.105  20.711  16.508  0.00  0.00    -0.270 OA
ATOM     31  H   UNL     1      15.959  19.311  19.108  0.00  0.00    +0.155 HD
BRANCH  14  15
ATOM     15  C   UNL     1      14.887  20.172  16.907  0.00  0.00    +0.037 A 
ATOM     16  C   UNL     1      14.461  20.412  15.526  0.00  0.00    +0.013 A 
ATOM     17  C   UNL     1      13.059  20.433  15.195  0.00  0.00    +0.005 A 
ATOM     18  C   UNL     1      12.071  20.211  16.249  0.00  0.00    -0.033 A 
ATOM     28  C   UNL     1      12.521  19.969  17.609  0.00  0.00    +0.005 A 
ATOM     29  C   UNL     1      13.896  19.949  17.938  0.00  0.00    +0.013 A 
BRANCH  18  19
ATOM     19  C   UNL     1      10.553  20.236  15.990  0.00  0.00    +0.119 C 
BRANCH  19  20
ATOM     20  N   UNL     1       9.858  18.920  15.865  0.00  0.00    -0.302 NA
ATOM     21  C   UNL     1      10.793  17.825  15.345  0.00  0.00    +0.066 C 
ATOM     22  C   UNL     1      10.056  16.450  15.241  0.00  0.00    -0.064 C 
ATOM     23  N   UNL     1       8.835  16.596  14.331  0.00  0.00    +0.379 N 
ATOM     24  C   UNL     1       8.173  15.292  14.185  0.00  0.00    -0.096 C 
ATOM     25  H   UNL     1       9.200  16.906  13.324  0.00  0.00    -0.082 HD
ATOM     26  C   UNL     1       7.902  17.686  14.839  0.00  0.00    -0.064 C 
ATOM     27  C   UNL     1       8.651  19.041  14.967  0.00  0.00    +0.066 C 
ENDBRANCH  19  20
ENDBRANCH  18  19
ENDBRANCH  14  15
ENDBRANCH  12  13
TORSDOF 6
ENDMDL
MODEL 4
REMARK VINA RESULT:      -9.4      2.689      5.910
REMARK  Name = C:\Users\Docking\Desktop\test protocol\1iep_ligandH.pdb
REMARK  8 active torsions:
REMARK  status: ('A' for Active; 'I' for Inactive)
REMARK    1  A    between atoms: _5  and  _11
REMARK    2  A    between atoms: _19  and  _21
REMARK    3  A    between atoms: _22  and  _66
REMARK    4  A    between atoms: _27  and  _30
REMARK    5  A    between atoms: _32  and  _33
REMARK    6  A    between atoms: _38  and  _43
REMARK    7  A    between atoms: _43  and  _46
REMARK    8  A    between atoms: _53  and  _55
REMARK                            x       y       z     vdW  Elec       q    Type
REMARK                         _______ _______ _______ _____ _____    ______ ____
ROOT
ATOM     10  C   UNL     1      15.820  20.985  16.657  0.00  0.00    +0.038 A 
ATOM     11  C   UNL     1      16.433  19.763  17.036  0.00  0.00    +0.047 A 
ATOM     12  C   UNL     1      17.265  19.676  18.226  0.00  0.00    +0.035 A 
ATOM     32  C   UNL     1      17.448  20.852  19.010  0.00  0.00    +0.024 A 
ATOM     33  C   UNL     1      16.833  22.102  18.639  0.00  0.00    +0.007 A 
ATOM     34  C   UNL     1      16.014  22.195  17.464  0.00  0.00    -0.029 A 
ATOM     35  C   UNL     1      15.385  23.563  17.112  0.00  0.00    +0.045 C 
ENDROOT
BRANCH  10   9
ATOM      4  C   UNL     1      11.616  20.499  14.393  0.00  0.00    +0.077 A 
ATOM      5  C   UNL     1      10.938  20.134  15.603  0.00  0.00    +0.048 A 
ATOM      6  C   UNL     1      11.709  20.077  16.786  0.00  0.00    +0.116 A 
ATOM      7  N   UNL     1      13.056  20.364  16.749  0.00  0.00    -0.223 NA
ATOM      8  C   UNL     1      13.679  20.711  15.564  0.00  0.00    +0.220 A 
ATOM      9  N   UNL     1      15.031  21.012  15.505  0.00  0.00    -0.283 N 
ATOM     36  H   UNL     1      15.455  21.256  14.610  0.00  0.00    +0.155 HD
ATOM     37  N   UNL     1      12.965  20.772  14.421  0.00  0.00    -0.214 NA
BRANCH   4   3
ATOM      1  C   UNL     1       9.855  19.603  11.017  0.00  0.00    +0.020 A 
ATOM      2  C   UNL     1      10.506  19.444  12.296  0.00  0.00    +0.013 A 
ATOM      3  C   UNL     1      10.937  20.607  13.062  0.00  0.00    +0.019 A 
ATOM     38  C   UNL     1      10.691  21.926  12.501  0.00  0.00    +0.120 A 
ATOM     39  N   UNL     1      10.063  22.049  11.266  0.00  0.00    -0.263 NA
ATOM     40  C   UNL     1       9.645  20.937  10.519  0.00  0.00    +0.111 A 
ENDBRANCH   4   3
ENDBRANCH  10   9
BRANCH  12  13
ATOM     13  N   UNL     1      17.919  18.465  18.655  0.00  0.00    -0.281 N 
ATOM     14  C   UNL     1      19.267  18.271  18.913  0.00  0.00    +0.248 C 
ATOM     30  O   UNL     1      20.149  19.058  18.605  0.00  0.00    -0.270 OA
ATOM     31  H   UNL     1      17.316  17.653  18.785  0.00  0.00    +0.155 HD
BRANCH  14  15
ATOM     15  C   UNL     1      19.697  17.014  19.598  0.00  0.00    +0.037 A 
ATOM     16  C   UNL     1      18.750  15.926  19.855  0.00  0.00    +0.013 A 
ATOM     17  C   UNL     1      19.187  14.732  20.533  0.00  0.00    +0.005 A 
ATOM     18  C   UNL     1      20.580  14.619  20.958  0.00  0.00    -0.033 A 
ATOM     28  C   UNL     1      21.500  15.711  20.685  0.00  0.00    +0.005 A 
ATOM     29  C   UNL     1      21.075  16.883  20.022  0.00  0.00    +0.013 A 
BRANCH  18  19
ATOM     19  C   UNL     1      21.129  13.389  21.706  0.00  0.00    +0.119 C 
BRANCH  19  20
ATOM     20  N   UNL     1      21.946  12.418  20.919  0.00  0.00    -0.302 NA
ATOM     21  C   UNL     1      21.073  11.492  20.066  0.00  0.00    +0.066 C 
ATOM     22  C   UNL     1      21.944  10.498  19.232  0.00  0.00    -0.064 C 
ATOM     23  N   UNL     1      22.832   9.686  20.177  0.00  0.00    +0.379 N 
ATOM     24  C   UNL     1      23.610   8.709  19.401  0.00  0.00    -0.096 C 
ATOM     25  H   UNL     1      22.163   9.117  20.864  0.00  0.00    -0.082 HD
ATOM     26  C   UNL     1      23.701  10.599  21.030  0.00  0.00    -0.064 C 
ATOM     27  C   UNL     1      22.827  11.603  21.832  0.00  0.00    +0.066 C 
ENDBRANCH  19  20
ENDBRANCH  18  19
ENDBRANCH  14  15
ENDBRANCH  12  13
TORSDOF 6
ENDMDL
MODEL 5
REMARK VINA RESULT:      -9.4      5.234     10.412
REMARK  Name = C:\Users\Docking\Desktop\test protocol\1iep_ligandH.pdb
REMARK  8 active torsions:
REMARK  status: ('A' for Active; 'I' for Inactive)
REMARK    1  A    between atoms: _5  and  _11
REMARK    2  A    between atoms: _19  and  _21
REMARK    3  A    between atoms: _22  and  _66
REMARK    4  A    between atoms: _27  and  _30
REMARK    5  A    between atoms: _32  and  _33
REMARK    6  A    between atoms: _38  and  _43
REMARK    7  A    between atoms: _43  and  _46
REMARK    8  A    between atoms: _53  and  _55
REMARK                            x       y       z     vdW  Elec       q    Type
REMARK                         _______ _______ _______ _____ _____    ______ ____
ROOT
ATOM     10  C   UNL     1      11.442  20.469  15.047  0.00  0.00    +0.038 A 
ATOM     11  C   UNL     1      12.700  20.162  15.625  0.00  0.00    +0.047 A 
ATOM     12  C   UNL     1      13.937  20.655  15.040  0.00  0.00    +0.035 A 
ATOM     32  C   UNL     1      13.856  21.463  13.868  0.00  0.00    +0.024 A 
ATOM     33  C   UNL     1      12.585  21.784  13.267  0.00  0.00    +0.007 A 
ATOM     34  C   UNL     1      11.362  21.298  13.838  0.00  0.00    -0.029 A 
ATOM     35  C   UNL     1      10.028  21.669  13.147  0.00  0.00    +0.045 C 
ENDROOT
BRANCH  10   9
ATOM      4  C   UNL     1       8.188  17.010  15.741  0.00  0.00    +0.077 A 
ATOM      5  C   UNL     1       8.831  16.135  14.803  0.00  0.00    +0.048 A 
ATOM      6  C   UNL     1       9.992  16.616  14.158  0.00  0.00    +0.116 A 
ATOM      7  N   UNL     1      10.467  17.880  14.438  0.00  0.00    -0.223 NA
ATOM      8  C   UNL     1       9.821  18.698  15.347  0.00  0.00    +0.220 A 
ATOM      9  N   UNL     1      10.285  19.969  15.650  0.00  0.00    -0.283 N 
ATOM     36  H   UNL     1       9.777  20.545  16.320  0.00  0.00    +0.155 HD
ATOM     37  N   UNL     1       8.710  18.262  15.975  0.00  0.00    -0.214 NA
BRANCH   4   3
ATOM      1  C   UNL     1       4.536  15.935  16.641  0.00  0.00    +0.020 A 
ATOM      2  C   UNL     1       5.699  16.281  15.857  0.00  0.00    +0.013 A 
ATOM      3  C   UNL     1       6.953  16.644  16.505  0.00  0.00    +0.019 A 
ATOM     38  C   UNL     1       6.998  16.646  17.959  0.00  0.00    +0.120 A 
ATOM     39  N   UNL     1       5.861  16.310  18.688  0.00  0.00    -0.263 NA
ATOM     40  C   UNL     1       4.649  15.961  18.076  0.00  0.00    +0.111 A 
ENDBRANCH   4   3
ENDBRANCH  10   9
BRANCH  12  13
ATOM     13  N   UNL     1      15.244  20.369  15.578  0.00  0.00    -0.281 N 
ATOM     14  C   UNL     1      15.993  21.140  16.452  0.00  0.00    +0.248 C 
ATOM     30  O   UNL     1      15.741  22.301  16.740  0.00  0.00    -0.270 OA
ATOM     31  H   UNL     1      15.669  19.492  15.277  0.00  0.00    +0.155 HD
BRANCH  14  15
ATOM     15  C   UNL     1      17.204  20.539  17.089  0.00  0.00    +0.037 A 
ATOM     16  C   UNL     1      18.526  21.152  16.937  0.00  0.00    +0.013 A 
ATOM     17  C   UNL     1      19.681  20.542  17.547  0.00  0.00    +0.005 A 
ATOM     18  C   UNL     1      19.518  19.311  18.316  0.00  0.00    -0.033 A 
ATOM     28  C   UNL     1      18.195  18.727  18.455  0.00  0.00    +0.005 A 
ATOM     29  C   UNL     1      17.061  19.321  17.858  0.00  0.00    +0.013 A 
BRANCH  18  19
ATOM     19  C   UNL     1      20.698  18.580  18.984  0.00  0.00    +0.119 C 
BRANCH  19  20
ATOM     20  N   UNL     1      20.376  17.630  20.090  0.00  0.00    -0.302 NA
ATOM     21  C   UNL     1      21.415  17.681  21.213  0.00  0.00    +0.066 C 
ATOM     22  C   UNL     1      21.051  16.697  22.372  0.00  0.00    -0.064 C 
ATOM     23  N   UNL     1      20.927  15.278  21.812  0.00  0.00    +0.379 N 
ATOM     24  C   UNL     1      20.642  14.342  22.909  0.00  0.00    -0.096 C 
ATOM     25  H   UNL     1      21.915  14.999  21.378  0.00  0.00    -0.082 HD
ATOM     26  C   UNL     1      19.898  15.219  20.693  0.00  0.00    -0.064 C 
ATOM     27  C   UNL     1      20.253  16.222  19.560  0.00  0.00    +0.066 C 
ENDBRANCH  19  20
ENDBRANCH  18  19
ENDBRANCH  14  15
ENDBRANCH  12  13
TORSDOF 6
ENDMDL
