MODEL 1
REMARK VINA RESULT:      -8.0      0.000      0.000
REMARK  Name = C:\Users\Docking\Desktop\test protocol\1iep_ligandH.pdb
REMARK  8 active torsions:
REMARK  status: ('A' for Active; 'I' for Inactive)
REMARK    1  A    between atoms: _5  and  _11
REMARK    2  A    between atoms: _19  and  _21
REMARK    3  A    between atoms: _22  and  _66
REMARK    4  A    between atoms: _27  and  _30
REMARK    5  A    between atoms: _32  and  _33
REMARK    6  A    between atoms: _38  and  _43
REMARK    7  A    between atoms: _43  and  _46
REMARK    8  A    between atoms: _53  and  _55
REMARK                            x       y       z     vdW  Elec       q    Type
REMARK                         _______ _______ _______ _____ _____    ______ ____
ROOT
ATOM     10  C   UNL     1      14.975 -20.681   2.835  0.00  0.00    +0.038 A 
ATOM     11  C   UNL     1      14.072 -19.922   2.048  0.00  0.00    +0.047 A 
ATOM     12  C   UNL     1      13.154 -18.974   2.660  0.00  0.00    +0.035 A 
ATOM     32  C   UNL     1      13.184 -18.823   4.077  0.00  0.00    +0.024 A 
ATOM     33  C   UNL     1      14.095 -19.587   4.892  0.00  0.00    +0.007 A 
ATOM     34  C   UNL     1      15.001 -20.526   4.294  0.00  0.00    -0.029 A 
ATOM     35  C   UNL     1      15.951 -21.323   5.218  0.00  0.00    +0.045 C 
ENDROOT
BRANCH  10   9
ATOM      4  C   UNL     1      16.176 -25.100   1.395  0.00  0.00    +0.077 A 
ATOM      5  C   UNL     1      15.006 -25.676   1.991  0.00  0.00    +0.048 A 
ATOM      6  C   UNL     1      14.124 -24.802   2.665  0.00  0.00    +0.116 A 
ATOM      7  N   UNL     1      14.401 -23.454   2.732  0.00  0.00    -0.223 NA
ATOM      8  C   UNL     1      15.540 -22.931   2.147  0.00  0.00    +0.220 A 
ATOM      9  N   UNL     1      15.834 -21.577   2.195  0.00  0.00    -0.283 N 
ATOM     36  H   UNL     1      16.688 -21.231   1.757  0.00  0.00    +0.155 HD
ATOM     37  N   UNL     1      16.399 -23.745   1.499  0.00  0.00    -0.214 NA
BRANCH   4   3
ATOM      1  C   UNL     1      18.745 -27.870   0.382  0.00  0.00    +0.020 A 
ATOM      2  C   UNL     1      17.758 -27.143   1.146  0.00  0.00    +0.013 A 
ATOM      3  C   UNL     1      17.201 -25.892   0.645  0.00  0.00    +0.019 A 
ATOM     38  C   UNL     1      17.669 -25.401  -0.642  0.00  0.00    +0.120 A 
ATOM     39  N   UNL     1      18.623 -26.122  -1.355  0.00  0.00    -0.263 NA
ATOM     40  C   UNL     1      19.166 -27.326  -0.882  0.00  0.00    +0.111 A 
ENDBRANCH   4   3
ENDBRANCH  10   9
BRANCH  12  13
ATOM     13  N   UNL     1      12.209 -18.181   1.913  0.00  0.00    -0.281 N 
ATOM     14  C   UNL     1      12.254 -16.821   1.656  0.00  0.00    +0.248 C 
ATOM     30  O   UNL     1      13.007 -16.037   2.214  0.00  0.00    -0.270 OA
ATOM     31  H   UNL     1      11.410 -18.684   1.526  0.00  0.00    +0.155 HD
BRANCH  14  15
ATOM     15  C   UNL     1      11.317 -16.246   0.643  0.00  0.00    +0.037 A 
ATOM     16  C   UNL     1      10.196 -17.028   0.115  0.00  0.00    +0.013 A 
ATOM     17  C   UNL     1       9.317 -16.455  -0.874  0.00  0.00    +0.005 A 
ATOM     18  C   UNL     1       9.556 -15.091  -1.340  0.00  0.00    -0.033 A 
ATOM     28  C   UNL     1      10.672 -14.336  -0.795  0.00  0.00    +0.005 A 
ATOM     29  C   UNL     1      11.536 -14.895   0.173  0.00  0.00    +0.013 A 
BRANCH  18  19
ATOM     19  C   UNL     1       8.681 -14.407  -2.407  0.00  0.00    +0.119 C 
BRANCH  19  20
ATOM     20  N   UNL     1       9.207 -13.151  -3.020  0.00  0.00    -0.302 NA
ATOM     21  C   UNL     1       8.124 -12.077  -3.148  0.00  0.00    +0.066 C 
ATOM     22  C   UNL     1       8.697 -10.761  -3.769  0.00  0.00    -0.064 C 
ATOM     23  N   UNL     1       9.315 -11.072  -5.134  0.00  0.00    +0.379 N 
ATOM     24  C   UNL     1       9.802  -9.828  -5.746  0.00  0.00    -0.096 C 
ATOM     25  H   UNL     1       8.507 -11.477  -5.786  0.00  0.00    -0.082 HD
ATOM     26  C   UNL     1      10.391 -12.142  -5.016  0.00  0.00    -0.064 C 
ATOM     27  C   UNL     1       9.819 -13.434  -4.370  0.00  0.00    +0.066 C 
ENDBRANCH  19  20
ENDBRANCH  18  19
ENDBRANCH  14  15
ENDBRANCH  12  13
TORSDOF 6
ENDMDL
MODEL 2
REMARK VINA RESULT:      -7.6      1.797     12.676
REMARK  Name = C:\Users\Docking\Desktop\test protocol\1iep_ligandH.pdb
REMARK  8 active torsions:
REMARK  status: ('A' for Active; 'I' for Inactive)
REMARK    1  A    between atoms: _5  and  _11
REMARK    2  A    between atoms: _19  and  _21
REMARK    3  A    between atoms: _22  and  _66
REMARK    4  A    between atoms: _27  and  _30
REMARK    5  A    between atoms: _32  and  _33
REMARK    6  A    between atoms: _38  and  _43
REMARK    7  A    between atoms: _43  and  _46
REMARK    8  A    between atoms: _53  and  _55
REMARK                            x       y       z     vdW  Elec       q    Type
REMARK                         _______ _______ _______ _____ _____    ______ ____
ROOT
ATOM     10  C   UNL     1      11.915 -15.523   1.756  0.00  0.00    +0.038 A 
ATOM     11  C   UNL     1      12.561 -16.738   1.411  0.00  0.00    +0.047 A 
ATOM     12  C   UNL     1      12.705 -17.814   2.379  0.00  0.00    +0.035 A 
ATOM     32  C   UNL     1      12.177 -17.620   3.689  0.00  0.00    +0.024 A 
ATOM     33  C   UNL     1      11.519 -16.392   4.056  0.00  0.00    +0.007 A 
ATOM     34  C   UNL     1      11.375 -15.325   3.107  0.00  0.00    -0.029 A 
ATOM     35  C   UNL     1      10.666 -14.028   3.558  0.00  0.00    +0.045 C 
ENDROOT
BRANCH  10   9
ATOM      4  C   UNL     1       9.879 -13.625  -2.154  0.00  0.00    +0.077 A 
ATOM      5  C   UNL     1       8.978 -14.732  -2.295  0.00  0.00    +0.048 A 
ATOM      6  C   UNL     1       9.075 -15.773  -1.344  0.00  0.00    +0.116 A 
ATOM      7  N   UNL     1      10.008 -15.701  -0.332  0.00  0.00    -0.223 NA
ATOM      8  C   UNL     1      10.864 -14.620  -0.227  0.00  0.00    +0.220 A 
ATOM      9  N   UNL     1      11.804 -14.523   0.787  0.00  0.00    -0.283 N 
ATOM     36  H   UNL     1      12.422 -13.713   0.826  0.00  0.00    +0.155 HD
ATOM     37  N   UNL     1      10.791 -13.614  -1.123  0.00  0.00    -0.214 NA
BRANCH   4   3
ATOM      1  C   UNL     1      10.178 -11.393  -5.352  0.00  0.00    +0.020 A 
ATOM      2  C   UNL     1      10.174 -12.562  -4.504  0.00  0.00    +0.013 A 
ATOM      3  C   UNL     1       9.896 -12.447  -3.078  0.00  0.00    +0.019 A 
ATOM     38  C   UNL     1       9.624 -11.123  -2.537  0.00  0.00    +0.120 A 
ATOM     39  N   UNL     1       9.636 -10.015  -3.379  0.00  0.00    -0.263 NA
ATOM     40  C   UNL     1       9.903 -10.114  -4.752  0.00  0.00    +0.111 A 
ENDBRANCH   4   3
ENDBRANCH  10   9
BRANCH  12  13
ATOM     13  N   UNL     1      13.359 -19.066   2.089  0.00  0.00    -0.281 N 
ATOM     14  C   UNL     1      14.480 -19.603   2.700  0.00  0.00    +0.248 C 
ATOM     30  O   UNL     1      15.222 -18.985   3.448  0.00  0.00    -0.270 OA
ATOM     31  H   UNL     1      12.944 -19.625   1.343  0.00  0.00    +0.155 HD
BRANCH  14  15
ATOM     15  C   UNL     1      14.838 -21.029   2.428  0.00  0.00    +0.037 A 
ATOM     16  C   UNL     1      15.775 -21.755   3.289  0.00  0.00    +0.013 A 
ATOM     17  C   UNL     1      16.116 -23.124   2.994  0.00  0.00    +0.005 A 
ATOM     18  C   UNL     1      15.517 -23.777   1.833  0.00  0.00    -0.033 A 
ATOM     28  C   UNL     1      14.586 -23.035   0.999  0.00  0.00    +0.005 A 
ATOM     29  C   UNL     1      14.250 -21.693   1.284  0.00  0.00    +0.013 A 
BRANCH  18  19
ATOM     19  C   UNL     1      15.839 -25.228   1.431  0.00  0.00    +0.119 C 
BRANCH  19  20
ATOM     20  N   UNL     1      17.197 -25.498   0.872  0.00  0.00    -0.302 NA
ATOM     21  C   UNL     1      17.230 -25.357  -0.652  0.00  0.00    +0.066 C 
ATOM     22  C   UNL     1      18.663 -25.620  -1.218  0.00  0.00    -0.064 C 
ATOM     23  N   UNL     1      19.129 -27.014  -0.792  0.00  0.00    +0.379 N 
ATOM     24  C   UNL     1      20.452 -27.287  -1.371  0.00  0.00    -0.096 C 
ATOM     25  H   UNL     1      18.413 -27.754  -1.220  0.00  0.00    -0.082 HD
ATOM     26  C   UNL     1      19.097 -27.163   0.722  0.00  0.00    -0.064 C 
ATOM     27  C   UNL     1      17.675 -26.871   1.277  0.00  0.00    +0.066 C 
ENDBRANCH  19  20
ENDBRANCH  18  19
ENDBRANCH  14  15
ENDBRANCH  12  13
TORSDOF 6
ENDMDL
MODEL 3
REMARK VINA RESULT:      -7.5      7.140     11.438
REMARK  Name = C:\Users\Docking\Desktop\test protocol\1iep_ligandH.pdb
REMARK  8 active torsions:
REMARK  status: ('A' for Active; 'I' for Inactive)
REMARK    1  A    between atoms: _5  and  _11
REMARK    2  A    between atoms: _19  and  _21
REMARK    3  A    between atoms: _22  and  _66
REMARK    4  A    between atoms: _27  and  _30
REMARK    5  A    between atoms: _32  and  _33
REMARK    6  A    between atoms: _38  and  _43
REMARK    7  A    between atoms: _43  and  _46
REMARK    8  A    between atoms: _53  and  _55
REMARK                            x       y       z     vdW  Elec       q    Type
REMARK                         _______ _______ _______ _____ _____    ______ ____
ROOT
ATOM     10  C   UNL     1      20.543 -28.839  -1.301  0.00  0.00    +0.038 A 
ATOM     11  C   UNL     1      19.727 -27.774  -0.840  0.00  0.00    +0.047 A 
ATOM     12  C   UNL     1      19.131 -27.803   0.486  0.00  0.00    +0.035 A 
ATOM     32  C   UNL     1      19.388 -28.932   1.318  0.00  0.00    +0.024 A 
ATOM     33  C   UNL     1      20.214 -30.023   0.865  0.00  0.00    +0.007 A 
ATOM     34  C   UNL     1      20.803 -30.001  -0.443  0.00  0.00    -0.029 A 
ATOM     35  C   UNL     1      21.675 -31.202  -0.879  0.00  0.00    +0.045 C 
ENDROOT
BRANCH  10   9
ATOM      4  C   UNL     1      23.700 -27.067  -4.452  0.00  0.00    +0.077 A 
ATOM      5  C   UNL     1      24.292 -26.208  -3.467  0.00  0.00    +0.048 A 
ATOM      6  C   UNL     1      23.749 -26.247  -2.163  0.00  0.00    +0.116 A 
ATOM      7  N   UNL     1      22.695 -27.087  -1.877  0.00  0.00    -0.223 NA
ATOM      8  C   UNL     1      22.146 -27.901  -2.851  0.00  0.00    +0.220 A 
ATOM      9  N   UNL     1      21.091 -28.759  -2.584  0.00  0.00    -0.283 N 
ATOM     36  H   UNL     1      20.710 -29.338  -3.331  0.00  0.00    +0.155 HD
ATOM     37  N   UNL     1      22.645 -27.881  -4.104  0.00  0.00    -0.214 NA
BRANCH   4   3
ATOM      1  C   UNL     1      24.867 -26.085  -8.055  0.00  0.00    +0.020 A 
ATOM      2  C   UNL     1      24.420 -25.959  -6.687  0.00  0.00    +0.013 A 
ATOM      3  C   UNL     1      24.164 -27.141  -5.874  0.00  0.00    +0.019 A 
ATOM     38  C   UNL     1      24.373 -28.447  -6.480  0.00  0.00    +0.120 A 
ATOM     39  N   UNL     1      24.804 -28.539  -7.800  0.00  0.00    -0.263 NA
ATOM     40  C   UNL     1      25.051 -27.408  -8.592  0.00  0.00    +0.111 A 
ENDBRANCH   4   3
ENDBRANCH  10   9
BRANCH  12  13
ATOM     13  N   UNL     1      18.288 -26.755   1.006  0.00  0.00    -0.281 N 
ATOM     14  C   UNL     1      17.143 -26.222   0.436  0.00  0.00    +0.248 C 
ATOM     30  O   UNL     1      16.788 -26.420  -0.716  0.00  0.00    -0.270 OA
ATOM     31  H   UNL     1      18.569 -26.358   1.902  0.00  0.00    +0.155 HD
BRANCH  14  15
ATOM     15  C   UNL     1      16.274 -25.328   1.261  0.00  0.00    +0.037 A 
ATOM     16  C   UNL     1      16.510 -23.884   1.321  0.00  0.00    +0.013 A 
ATOM     17  C   UNL     1      15.668 -23.047   2.139  0.00  0.00    +0.005 A 
ATOM     18  C   UNL     1      14.581 -23.653   2.902  0.00  0.00    -0.033 A 
ATOM     28  C   UNL     1      14.366 -25.088   2.821  0.00  0.00    +0.005 A 
ATOM     29  C   UNL     1      15.190 -25.912   2.021  0.00  0.00    +0.013 A 
BRANCH  18  19
ATOM     19  C   UNL     1      13.646 -22.840   3.817  0.00  0.00    +0.119 C 
BRANCH  19  20
ATOM     20  N   UNL     1      14.221 -21.634   4.484  0.00  0.00    -0.302 NA
ATOM     21  C   UNL     1      14.528 -21.886   5.962  0.00  0.00    +0.066 C 
ATOM     22  C   UNL     1      15.151 -20.621   6.639  0.00  0.00    -0.064 C 
ATOM     23  N   UNL     1      14.194 -19.438   6.478  0.00  0.00    +0.379 N 
ATOM     24  C   UNL     1      14.750 -18.262   7.163  0.00  0.00    -0.096 C 
ATOM     25  H   UNL     1      13.238 -19.706   6.986  0.00  0.00    -0.082 HD
ATOM     26  C   UNL     1      13.881 -19.182   5.011  0.00  0.00    -0.064 C 
ATOM     27  C   UNL     1      13.291 -20.454   4.341  0.00  0.00    +0.066 C 
ENDBRANCH  19  20
ENDBRANCH  18  19
ENDBRANCH  14  15
ENDBRANCH  12  13
TORSDOF 6
ENDMDL
MODEL 4
REMARK VINA RESULT:      -7.4      4.050     15.284
REMARK  Name = C:\Users\Docking\Desktop\test protocol\1iep_ligandH.pdb
REMARK  8 active torsions:
REMARK  status: ('A' for Active; 'I' for Inactive)
REMARK    1  A    between atoms: _5  and  _11
REMARK    2  A    between atoms: _19  and  _21
REMARK    3  A    between atoms: _22  and  _66
REMARK    4  A    between atoms: _27  and  _30
REMARK    5  A    between atoms: _32  and  _33
REMARK    6  A    between atoms: _38  and  _43
REMARK    7  A    between atoms: _43  and  _46
REMARK    8  A    between atoms: _53  and  _55
REMARK                            x       y       z     vdW  Elec       q    Type
REMARK                         _______ _______ _______ _____ _____    ______ ____
ROOT
ATOM     10  C   UNL     1       7.541 -11.338  -2.751  0.00  0.00    +0.038 A 
ATOM     11  C   UNL     1       8.208 -12.276  -1.923  0.00  0.00    +0.047 A 
ATOM     12  C   UNL     1       9.090 -13.286  -2.488  0.00  0.00    +0.035 A 
ATOM     32  C   UNL     1       9.272 -13.309  -3.902  0.00  0.00    +0.024 A 
ATOM     33  C   UNL     1       8.601 -12.363  -4.759  0.00  0.00    +0.007 A 
ATOM     34  C   UNL     1       7.728 -11.367  -4.207  0.00  0.00    -0.029 A 
ATOM     35  C   UNL     1       7.030 -10.382  -5.174  0.00  0.00    +0.045 C 
ENDROOT
BRANCH  10   9
ATOM      4  C   UNL     1       6.745  -7.018  -0.816  0.00  0.00    +0.077 A 
ATOM      5  C   UNL     1       8.115  -6.626  -0.982  0.00  0.00    +0.048 A 
ATOM      6  C   UNL     1       8.994  -7.568  -1.563  0.00  0.00    +0.116 A 
ATOM      7  N   UNL     1       8.526  -8.806  -1.946  0.00  0.00    -0.223 NA
ATOM      8  C   UNL     1       7.199  -9.153  -1.770  0.00  0.00    +0.220 A 
ATOM      9  N   UNL     1       6.706 -10.390  -2.156  0.00  0.00    -0.283 N 
ATOM     36  H   UNL     1       5.722 -10.611  -2.002  0.00  0.00    +0.155 HD
ATOM     37  N   UNL     1       6.340  -8.272  -1.217  0.00  0.00    -0.214 NA
BRANCH   4   3
ATOM      1  C   UNL     1       4.346  -5.259   1.723  0.00  0.00    +0.020 A 
ATOM      2  C   UNL     1       5.369  -6.134   1.199  0.00  0.00    +0.013 A 
ATOM      3  C   UNL     1       5.694  -6.133  -0.221  0.00  0.00    +0.019 A 
ATOM     38  C   UNL     1       4.961  -5.226  -1.092  0.00  0.00    +0.120 A 
ATOM     39  N   UNL     1       3.980  -4.395  -0.559  0.00  0.00    -0.263 NA
ATOM     40  C   UNL     1       3.657  -4.389   0.806  0.00  0.00    +0.111 A 
ENDBRANCH   4   3
ENDBRANCH  10   9
BRANCH  12  13
ATOM     13  N   UNL     1       9.787 -14.270  -1.698  0.00  0.00    -0.281 N 
ATOM     14  C   UNL     1      10.784 -14.057  -0.760  0.00  0.00    +0.248 C 
ATOM     30  O   UNL     1      11.380 -13.001  -0.612  0.00  0.00    -0.270 OA
ATOM     31  H   UNL     1       9.512 -15.240  -1.848  0.00  0.00    +0.155 HD
BRANCH  14  15
ATOM     15  C   UNL     1      11.187 -15.186   0.133  0.00  0.00    +0.037 A 
ATOM     16  C   UNL     1      10.287 -16.314   0.386  0.00  0.00    +0.013 A 
ATOM     17  C   UNL     1      10.694 -17.381   1.265  0.00  0.00    +0.005 A 
ATOM     18  C   UNL     1      12.010 -17.326   1.897  0.00  0.00    -0.033 A 
ATOM     28  C   UNL     1      12.886 -16.198   1.625  0.00  0.00    +0.005 A 
ATOM     29  C   UNL     1      12.489 -15.149   0.765  0.00  0.00    +0.013 A 
BRANCH  18  19
ATOM     19  C   UNL     1      12.519 -18.410   2.866  0.00  0.00    +0.119 C 
BRANCH  19  20
ATOM     20  N   UNL     1      13.388 -19.483   2.296  0.00  0.00    -0.302 NA
ATOM     21  C   UNL     1      12.709 -20.855   2.338  0.00  0.00    +0.066 C 
ATOM     22  C   UNL     1      13.622 -21.961   1.717  0.00  0.00    -0.064 C 
ATOM     23  N   UNL     1      14.957 -21.995   2.464  0.00  0.00    +0.379 N 
ATOM     24  C   UNL     1      15.796 -23.073   1.921  0.00  0.00    -0.096 C 
ATOM     25  H   UNL     1      14.741 -22.238   3.530  0.00  0.00    -0.082 HD
ATOM     26  C   UNL     1      15.638 -20.634   2.429  0.00  0.00    -0.064 C 
ATOM     27  C   UNL     1      14.710 -19.536   3.021  0.00  0.00    +0.066 C 
ENDBRANCH  19  20
ENDBRANCH  18  19
ENDBRANCH  14  15
ENDBRANCH  12  13
TORSDOF 6
ENDMDL
MODEL 5
REMARK VINA RESULT:      -7.4      4.401     15.556
REMARK  Name = C:\Users\Docking\Desktop\test protocol\1iep_ligandH.pdb
REMARK  8 active torsions:
REMARK  status: ('A' for Active; 'I' for Inactive)
REMARK    1  A    between atoms: _5  and  _11
REMARK    2  A    between atoms: _19  and  _21
REMARK    3  A    between atoms: _22  and  _66
REMARK    4  A    between atoms: _27  and  _30
REMARK    5  A    between atoms: _32  and  _33
REMARK    6  A    between atoms: _38  and  _43
REMARK    7  A    between atoms: _43  and  _46
REMARK    8  A    between atoms: _53  and  _55
REMARK                            x       y       z     vdW  Elec       q    Type
REMARK                         _______ _______ _______ _____ _____    ______ ____
ROOT
ATOM     10  C   UNL     1       9.954  -9.827  -3.931  0.00  0.00    +0.038 A 
ATOM     11  C   UNL     1      10.025 -10.768  -2.873  0.00  0.00    +0.047 A 
ATOM     12  C   UNL     1      10.252 -12.181  -3.136  0.00  0.00    +0.035 A 
ATOM     32  C   UNL     1      10.405 -12.600  -4.490  0.00  0.00    +0.024 A 
ATOM     33  C   UNL     1      10.334 -11.656  -5.578  0.00  0.00    +0.007 A 
ATOM     34  C   UNL     1      10.108 -10.262  -5.325  0.00  0.00    -0.029 A 
ATOM     35  C   UNL     1      10.035  -9.297  -6.531  0.00  0.00    +0.045 C 
ENDROOT
BRANCH  10   9
ATOM      4  C   UNL     1       7.114  -6.210  -2.557  0.00  0.00    +0.077 A 
ATOM      5  C   UNL     1       5.965  -7.065  -2.476  0.00  0.00    +0.048 A 
ATOM      6  C   UNL     1       6.145  -8.427  -2.803  0.00  0.00    +0.116 A 
ATOM      7  N   UNL     1       7.387  -8.890  -3.181  0.00  0.00    -0.223 NA
ATOM      8  C   UNL     1       8.474  -8.038  -3.251  0.00  0.00    +0.220 A 
ATOM      9  N   UNL     1       9.734  -8.483  -3.621  0.00  0.00    -0.283 N 
ATOM     36  H   UNL     1      10.509  -7.822  -3.668  0.00  0.00    +0.155 HD
ATOM     37  N   UNL     1       8.328  -6.732  -2.945  0.00  0.00    -0.214 NA
BRANCH   4   3
ATOM      1  C   UNL     1       7.457  -2.323  -2.830  0.00  0.00    +0.020 A 
ATOM      2  C   UNL     1       7.506  -3.722  -3.186  0.00  0.00    +0.013 A 
ATOM      3  C   UNL     1       7.084  -4.747  -2.240  0.00  0.00    +0.019 A 
ATOM     38  C   UNL     1       6.612  -4.319  -0.932  0.00  0.00    +0.120 A 
ATOM     39  N   UNL     1       6.577  -2.964  -0.616  0.00  0.00    -0.263 NA
ATOM     40  C   UNL     1       6.983  -1.969  -1.518  0.00  0.00    +0.111 A 
ENDBRANCH   4   3
ENDBRANCH  10   9
BRANCH  12  13
ATOM     13  N   UNL     1      10.326 -13.184  -2.103  0.00  0.00    -0.281 N 
ATOM     14  C   UNL     1       9.545 -14.319  -1.960  0.00  0.00    +0.248 C 
ATOM     30  O   UNL     1       8.517 -14.533  -2.586  0.00  0.00    -0.270 OA
ATOM     31  H   UNL     1      11.041 -13.039  -1.390  0.00  0.00    +0.155 HD
BRANCH  14  15
ATOM     15  C   UNL     1       9.957 -15.360  -0.970  0.00  0.00    +0.037 A 
ATOM     16  C   UNL     1       9.317 -16.677  -0.942  0.00  0.00    +0.013 A 
ATOM     17  C   UNL     1       9.722 -17.657   0.035  0.00  0.00    +0.005 A 
ATOM     18  C   UNL     1      10.775 -17.322   0.991  0.00  0.00    -0.033 A 
ATOM     28  C   UNL     1      11.396 -16.010   0.937  0.00  0.00    +0.005 A 
ATOM     29  C   UNL     1      11.001 -15.046  -0.018  0.00  0.00    +0.013 A 
BRANCH  18  19
ATOM     19  C   UNL     1      11.256 -18.298   2.081  0.00  0.00    +0.119 C 
BRANCH  19  20
ATOM     20  N   UNL     1      12.703 -18.258   2.445  0.00  0.00    -0.302 NA
ATOM     21  C   UNL     1      13.337 -19.652   2.436  0.00  0.00    +0.066 C 
ATOM     22  C   UNL     1      14.857 -19.588   2.797  0.00  0.00    -0.064 C 
ATOM     23  N   UNL     1      15.026 -18.925   4.165  0.00  0.00    +0.379 N 
ATOM     24  C   UNL     1      16.450 -18.916   4.533  0.00  0.00    -0.096 C 
ATOM     25  H   UNL     1      14.487 -19.552   4.913  0.00  0.00    -0.082 HD
ATOM     26  C   UNL     1      14.396 -17.540   4.184  0.00  0.00    -0.064 C 
ATOM     27  C   UNL     1      12.893 -17.611   3.795  0.00  0.00    +0.066 C 
ENDBRANCH  19  20
ENDBRANCH  18  19
ENDBRANCH  14  15
ENDBRANCH  12  13
TORSDOF 6
ENDMDL
