MODEL 1
REMARK VINA RESULT:     -11.6      0.000      0.000
REMARK  Name = C:\Users\Docking\Desktop\test protocol\1iep_ligandH.pdb
REMARK  8 active torsions:
REMARK  status: ('A' for Active; 'I' for Inactive)
REMARK    1  A    between atoms: _5  and  _11
REMARK    2  A    between atoms: _19  and  _21
REMARK    3  A    between atoms: _22  and  _66
REMARK    4  A    between atoms: _27  and  _30
REMARK    5  A    between atoms: _32  and  _33
REMARK    6  A    between atoms: _38  and  _43
REMARK    7  A    between atoms: _43  and  _46
REMARK    8  A    between atoms: _53  and  _55
REMARK                            x       y       z     vdW  Elec       q    Type
REMARK                         _______ _______ _______ _____ _____    ______ ____
ROOT
ATOM     10  C   UNL     1       9.902  27.571  20.851  0.00  0.00    +0.038 A 
ATOM     11  C   UNL     1       9.321  28.683  20.190  0.00  0.00    +0.047 A 
ATOM     12  C   UNL     1       8.544  29.672  20.922  0.00  0.00    +0.035 A 
ATOM     32  C   UNL     1       8.381  29.498  22.327  0.00  0.00    +0.024 A 
ATOM     33  C   UNL     1       8.963  28.373  23.015  0.00  0.00    +0.007 A 
ATOM     34  C   UNL     1       9.729  27.393  22.298  0.00  0.00    -0.029 A 
ATOM     35  C   UNL     1      10.325  26.203  23.086  0.00  0.00    +0.045 C 
ENDROOT
BRANCH  10   9
ATOM      4  C   UNL     1      10.212  23.794  17.906  0.00  0.00    +0.077 A 
ATOM      5  C   UNL     1       8.788  23.619  17.884  0.00  0.00    +0.048 A 
ATOM      6  C   UNL     1       8.012  24.518  18.650  0.00  0.00    +0.116 A 
ATOM      7  N   UNL     1       8.625  25.514  19.379  0.00  0.00    -0.223 NA
ATOM      8  C   UNL     1      10.001  25.653  19.380  0.00  0.00    +0.220 A 
ATOM      9  N   UNL     1      10.638  26.652  20.100  0.00  0.00    -0.283 N 
ATOM     36  H   UNL     1      11.655  26.717  20.080  0.00  0.00    +0.155 HD
ATOM     37  N   UNL     1      10.764  24.807  18.658  0.00  0.00    -0.214 NA
BRANCH   4   3
ATOM      1  C   UNL     1      13.426  22.437  16.138  0.00  0.00    +0.020 A 
ATOM      2  C   UNL     1      12.545  23.312  16.876  0.00  0.00    +0.013 A 
ATOM      3  C   UNL     1      11.166  22.926  17.146  0.00  0.00    +0.019 A 
ATOM     38  C   UNL     1      10.706  21.637  16.652  0.00  0.00    +0.120 A 
ATOM     39  N   UNL     1      11.577  20.815  15.943  0.00  0.00    -0.263 NA
ATOM     40  C   UNL     1      12.905  21.177  15.675  0.00  0.00    +0.111 A 
ENDBRANCH   4   3
ENDBRANCH  10   9
BRANCH  12  13
ATOM     13  N   UNL     1       7.924  30.817  20.303  0.00  0.00    -0.281 N 
ATOM     14  C   UNL     1       7.029  31.710  20.869  0.00  0.00    +0.248 C 
ATOM     30  O   UNL     1       6.459  31.535  21.936  0.00  0.00    -0.270 OA
ATOM     31  H   UNL     1       8.175  30.990  19.330  0.00  0.00    +0.155 HD
BRANCH  14  15
ATOM     15  C   UNL     1       6.711  32.975  20.138  0.00  0.00    +0.037 A 
ATOM     16  C   UNL     1       7.770  33.805  19.560  0.00  0.00    +0.013 A 
ATOM     17  C   UNL     1       7.437  35.029  18.874  0.00  0.00    +0.005 A 
ATOM     18  C   UNL     1       6.036  35.428  18.762  0.00  0.00    -0.033 A 
ATOM     28  C   UNL     1       5.005  34.582  19.340  0.00  0.00    +0.005 A 
ATOM     29  C   UNL     1       5.328  33.383  20.014  0.00  0.00    +0.013 A 
BRANCH  18  19
ATOM     19  C   UNL     1       5.590  36.728  18.066  0.00  0.00    +0.119 C 
BRANCH  19  20
ATOM     20  N   UNL     1       4.999  37.796  18.927  0.00  0.00    -0.302 NA
ATOM     21  C   UNL     1       5.275  39.197  18.374  0.00  0.00    +0.066 C 
ATOM     22  C   UNL     1       4.631  40.301  19.274  0.00  0.00    -0.064 C 
ATOM     23  N   UNL     1       5.165  40.167  20.702  0.00  0.00    +0.379 N 
ATOM     24  C   UNL     1       4.605  41.239  21.537  0.00  0.00    -0.096 C 
ATOM     25  H   UNL     1       6.270  40.309  20.664  0.00  0.00    -0.082 HD
ATOM     26  C   UNL     1       4.897  38.776  21.258  0.00  0.00    -0.064 C 
ATOM     27  C   UNL     1       5.516  37.685  20.340  0.00  0.00    +0.066 C 
ENDBRANCH  19  20
ENDBRANCH  18  19
ENDBRANCH  14  15
ENDBRANCH  12  13
TORSDOF 6
ENDMDL
MODEL 2
REMARK VINA RESULT:     -11.4      1.680      2.301
REMARK  Name = C:\Users\Docking\Desktop\test protocol\1iep_ligandH.pdb
REMARK  8 active torsions:
REMARK  status: ('A' for Active; 'I' for Inactive)
REMARK    1  A    between atoms: _5  and  _11
REMARK    2  A    between atoms: _19  and  _21
REMARK    3  A    between atoms: _22  and  _66
REMARK    4  A    between atoms: _27  and  _30
REMARK    5  A    between atoms: _32  and  _33
REMARK    6  A    between atoms: _38  and  _43
REMARK    7  A    between atoms: _43  and  _46
REMARK    8  A    between atoms: _53  and  _55
REMARK                            x       y       z     vdW  Elec       q    Type
REMARK                         _______ _______ _______ _____ _____    ______ ____
ROOT
ATOM     10  C   UNL     1      10.123  26.186  20.169  0.00  0.00    +0.038 A 
ATOM     11  C   UNL     1       9.542  27.438  19.843  0.00  0.00    +0.047 A 
ATOM     12  C   UNL     1       8.417  27.965  20.599  0.00  0.00    +0.035 A 
ATOM     32  C   UNL     1       7.909  27.191  21.683  0.00  0.00    +0.024 A 
ATOM     33  C   UNL     1       8.487  25.915  22.027  0.00  0.00    +0.007 A 
ATOM     34  C   UNL     1       9.596  25.390  21.284  0.00  0.00    -0.029 A 
ATOM     35  C   UNL     1      10.172  24.014  21.693  0.00  0.00    +0.045 C 
ENDROOT
BRANCH  10   9
ATOM      4  C   UNL     1      12.070  23.216  16.940  0.00  0.00    +0.077 A 
ATOM      5  C   UNL     1      10.840  22.498  16.771  0.00  0.00    +0.048 A 
ATOM      6  C   UNL     1       9.731  22.920  17.539  0.00  0.00    +0.116 A 
ATOM      7  N   UNL     1       9.856  23.983  18.408  0.00  0.00    -0.223 NA
ATOM      8  C   UNL     1      11.057  24.653  18.548  0.00  0.00    +0.220 A 
ATOM      9  N   UNL     1      11.203  25.729  19.410  0.00  0.00    -0.283 N 
ATOM     36  H   UNL     1      12.108  26.192  19.490  0.00  0.00    +0.155 HD
ATOM     37  N   UNL     1      12.131  24.268  17.827  0.00  0.00    -0.214 NA
BRANCH   4   3
ATOM      1  C   UNL     1      14.576  22.034  14.179  0.00  0.00    +0.020 A 
ATOM      2  C   UNL     1      13.332  22.328  14.853  0.00  0.00    +0.013 A 
ATOM      3  C   UNL     1      13.329  22.892  16.197  0.00  0.00    +0.019 A 
ATOM     38  C   UNL     1      14.611  23.149  16.835  0.00  0.00    +0.120 A 
ATOM     39  N   UNL     1      15.792  22.854  16.162  0.00  0.00    -0.263 NA
ATOM     40  C   UNL     1      15.808  22.309  14.870  0.00  0.00    +0.111 A 
ENDBRANCH   4   3
ENDBRANCH  10   9
BRANCH  12  13
ATOM     13  N   UNL     1       7.780  29.226  20.310  0.00  0.00    -0.281 N 
ATOM     14  C   UNL     1       7.819  30.391  21.058  0.00  0.00    +0.248 C 
ATOM     30  O   UNL     1       8.234  30.462  22.206  0.00  0.00    -0.270 OA
ATOM     31  H   UNL     1       7.235  29.265  19.448  0.00  0.00    +0.155 HD
BRANCH  14  15
ATOM     15  C   UNL     1       7.310  31.658  20.450  0.00  0.00    +0.037 A 
ATOM     16  C   UNL     1       8.228  32.671  19.923  0.00  0.00    +0.013 A 
ATOM     17  C   UNL     1       7.710  33.891  19.357  0.00  0.00    +0.005 A 
ATOM     18  C   UNL     1       6.266  34.104  19.313  0.00  0.00    -0.033 A 
ATOM     28  C   UNL     1       5.377  33.080  19.838  0.00  0.00    +0.005 A 
ATOM     29  C   UNL     1       5.881  31.883  20.395  0.00  0.00    +0.013 A 
BRANCH  18  19
ATOM     19  C   UNL     1       5.626  35.386  18.746  0.00  0.00    +0.119 C 
BRANCH  19  20
ATOM     20  N   UNL     1       5.369  36.502  19.703  0.00  0.00    -0.302 NA
ATOM     21  C   UNL     1       4.121  36.253  20.555  0.00  0.00    +0.066 C 
ATOM     22  C   UNL     1       3.879  37.420  21.566  0.00  0.00    -0.064 C 
ATOM     23  N   UNL     1       3.756  38.738  20.800  0.00  0.00    +0.379 N 
ATOM     24  C   UNL     1       3.471  39.829  21.743  0.00  0.00    -0.096 C 
ATOM     25  H   UNL     1       2.884  38.649  20.112  0.00  0.00    -0.082 HD
ATOM     26  C   UNL     1       4.991  38.993  19.948  0.00  0.00    -0.064 C 
ATOM     27  C   UNL     1       5.240  37.813  18.967  0.00  0.00    +0.066 C 
ENDBRANCH  19  20
ENDBRANCH  18  19
ENDBRANCH  14  15
ENDBRANCH  12  13
TORSDOF 6
ENDMDL
MODEL 3
REMARK VINA RESULT:     -11.1      6.414      8.753
REMARK  Name = C:\Users\Docking\Desktop\test protocol\1iep_ligandH.pdb
REMARK  8 active torsions:
REMARK  status: ('A' for Active; 'I' for Inactive)
REMARK    1  A    between atoms: _5  and  _11
REMARK    2  A    between atoms: _19  and  _21
REMARK    3  A    between atoms: _22  and  _66
REMARK    4  A    between atoms: _27  and  _30
REMARK    5  A    between atoms: _32  and  _33
REMARK    6  A    between atoms: _38  and  _43
REMARK    7  A    between atoms: _43  and  _46
REMARK    8  A    between atoms: _53  and  _55
REMARK                            x       y       z     vdW  Elec       q    Type
REMARK                         _______ _______ _______ _____ _____    ______ ____
ROOT
ATOM     10  C   UNL     1       7.265  31.816  20.689  0.00  0.00    +0.038 A 
ATOM     11  C   UNL     1       6.227  31.537  21.615  0.00  0.00    +0.047 A 
ATOM     12  C   UNL     1       5.444  32.608  22.212  0.00  0.00    +0.035 A 
ATOM     32  C   UNL     1       5.743  33.951  21.842  0.00  0.00    +0.024 A 
ATOM     33  C   UNL     1       6.796  34.252  20.904  0.00  0.00    +0.007 A 
ATOM     34  C   UNL     1       7.573  33.201  20.313  0.00  0.00    -0.029 A 
ATOM     35  C   UNL     1       8.694  33.582  19.318  0.00  0.00    +0.045 C 
ENDROOT
BRANCH  10   9
ATOM      4  C   UNL     1       9.631  27.660  21.103  0.00  0.00    +0.077 A 
ATOM      5  C   UNL     1       9.440  27.625  22.524  0.00  0.00    +0.048 A 
ATOM      6  C   UNL     1       8.733  28.699  23.111  0.00  0.00    +0.116 A 
ATOM      7  N   UNL     1       8.258  29.726  22.325  0.00  0.00    -0.223 NA
ATOM      8  C   UNL     1       8.461  29.730  20.958  0.00  0.00    +0.220 A 
ATOM      9  N   UNL     1       7.985  30.749  20.147  0.00  0.00    -0.283 N 
ATOM     36  H   UNL     1       8.162  30.719  19.143  0.00  0.00    +0.155 HD
ATOM     37  N   UNL     1       9.134  28.717  20.373  0.00  0.00    -0.214 NA
BRANCH   4   3
ATOM      1  C   UNL     1      10.727  25.185  18.279  0.00  0.00    +0.020 A 
ATOM      2  C   UNL     1       9.995  26.218  18.976  0.00  0.00    +0.013 A 
ATOM      3  C   UNL     1      10.355  26.597  20.337  0.00  0.00    +0.019 A 
ATOM     38  C   UNL     1      11.468  25.906  20.969  0.00  0.00    +0.120 A 
ATOM     39  N   UNL     1      12.153  24.914  20.274  0.00  0.00    -0.263 NA
ATOM     40  C   UNL     1      11.815  24.540  18.965  0.00  0.00    +0.111 A 
ENDBRANCH   4   3
ENDBRANCH  10   9
BRANCH  12  13
ATOM     13  N   UNL     1       4.383  32.386  23.163  0.00  0.00    -0.281 N 
ATOM     14  C   UNL     1       4.048  33.162  24.261  0.00  0.00    +0.248 C 
ATOM     30  O   UNL     1       4.748  34.054  24.716  0.00  0.00    -0.270 OA
ATOM     31  H   UNL     1       3.809  31.557  23.008  0.00  0.00    +0.155 HD
BRANCH  14  15
ATOM     15  C   UNL     1       2.754  32.899  24.962  0.00  0.00    +0.037 A 
ATOM     16  C   UNL     1       1.952  33.995  25.512  0.00  0.00    +0.013 A 
ATOM     17  C   UNL     1       0.717  33.713  26.199  0.00  0.00    +0.005 A 
ATOM     18  C   UNL     1       0.275  32.327  26.339  0.00  0.00    -0.033 A 
ATOM     28  C   UNL     1       1.088  31.260  25.780  0.00  0.00    +0.005 A 
ATOM     29  C   UNL     1       2.300  31.533  25.106  0.00  0.00    +0.013 A 
BRANCH  18  19
ATOM     19  C   UNL     1      -1.018  31.932  27.075  0.00  0.00    +0.119 C 
BRANCH  19  20
ATOM     20  N   UNL     1      -1.165  30.502  27.481  0.00  0.00    -0.302 NA
ATOM     21  C   UNL     1      -2.607  30.009  27.337  0.00  0.00    +0.066 C 
ATOM     22  C   UNL     1      -2.738  28.505  27.743  0.00  0.00    -0.064 C 
ATOM     23  N   UNL     1      -2.244  28.323  29.180  0.00  0.00    +0.379 N 
ATOM     24  C   UNL     1      -2.420  26.921  29.585  0.00  0.00    -0.096 C 
ATOM     25  H   UNL     1      -2.888  28.949  29.840  0.00  0.00    -0.082 HD
ATOM     26  C   UNL     1      -0.812  28.814  29.333  0.00  0.00    -0.064 C 
ATOM     27  C   UNL     1      -0.687  30.301  28.898  0.00  0.00    +0.066 C 
ENDBRANCH  19  20
ENDBRANCH  18  19
ENDBRANCH  14  15
ENDBRANCH  12  13
TORSDOF 6
ENDMDL
MODEL 4
REMARK VINA RESULT:     -11.1      3.121      4.308
REMARK  Name = C:\Users\Docking\Desktop\test protocol\1iep_ligandH.pdb
REMARK  8 active torsions:
REMARK  status: ('A' for Active; 'I' for Inactive)
REMARK    1  A    between atoms: _5  and  _11
REMARK    2  A    between atoms: _19  and  _21
REMARK    3  A    between atoms: _22  and  _66
REMARK    4  A    between atoms: _27  and  _30
REMARK    5  A    between atoms: _32  and  _33
REMARK    6  A    between atoms: _38  and  _43
REMARK    7  A    between atoms: _43  and  _46
REMARK    8  A    between atoms: _53  and  _55
REMARK                            x       y       z     vdW  Elec       q    Type
REMARK                         _______ _______ _______ _____ _____    ______ ____
ROOT
ATOM     10  C   UNL     1       9.000  25.586  19.948  0.00  0.00    +0.038 A 
ATOM     11  C   UNL     1       8.291  26.805  19.800  0.00  0.00    +0.047 A 
ATOM     12  C   UNL     1       8.851  28.064  20.267  0.00  0.00    +0.035 A 
ATOM     32  C   UNL     1      10.138  28.044  20.879  0.00  0.00    +0.024 A 
ATOM     33  C   UNL     1      10.873  26.814  21.039  0.00  0.00    +0.007 A 
ATOM     34  C   UNL     1      10.325  25.569  20.582  0.00  0.00    -0.029 A 
ATOM     35  C   UNL     1      11.154  24.280  20.785  0.00  0.00    +0.045 C 
ENDROOT
BRANCH  10   9
ATOM      4  C   UNL     1       5.433  22.377  19.865  0.00  0.00    +0.077 A 
ATOM      5  C   UNL     1       4.684  23.095  20.855  0.00  0.00    +0.048 A 
ATOM      6  C   UNL     1       5.255  24.282  21.366  0.00  0.00    +0.116 A 
ATOM      7  N   UNL     1       6.484  24.710  20.912  0.00  0.00    -0.223 NA
ATOM      8  C   UNL     1       7.181  23.992  19.958  0.00  0.00    +0.220 A 
ATOM      9  N   UNL     1       8.415  24.407  19.481  0.00  0.00    -0.283 N 
ATOM     36  H   UNL     1       8.901  23.846  18.782  0.00  0.00    +0.155 HD
ATOM     37  N   UNL     1       6.658  22.854  19.455  0.00  0.00    -0.214 NA
BRANCH   4   3
ATOM      1  C   UNL     1       5.328  18.758  18.383  0.00  0.00    +0.020 A 
ATOM      2  C   UNL     1       5.834  19.962  19.002  0.00  0.00    +0.013 A 
ATOM      3  C   UNL     1       4.961  21.107  19.228  0.00  0.00    +0.019 A 
ATOM     38  C   UNL     1       3.570  21.000  18.813  0.00  0.00    +0.120 A 
ATOM     39  N   UNL     1       3.111  19.829  18.218  0.00  0.00    -0.263 NA
ATOM     40  C   UNL     1       3.943  18.722  17.994  0.00  0.00    +0.111 A 
ENDBRANCH   4   3
ENDBRANCH  10   9
BRANCH  12  13
ATOM     13  N   UNL     1       8.174  29.331  20.151  0.00  0.00    -0.281 N 
ATOM     14  C   UNL     1       7.896  30.243  21.156  0.00  0.00    +0.248 C 
ATOM     30  O   UNL     1       7.999  30.008  22.351  0.00  0.00    -0.270 OA
ATOM     31  H   UNL     1       7.861  29.587  19.215  0.00  0.00    +0.155 HD
BRANCH  14  15
ATOM     15  C   UNL     1       7.420  31.609  20.780  0.00  0.00    +0.037 A 
ATOM     16  C   UNL     1       7.924  32.804  21.461  0.00  0.00    +0.013 A 
ATOM     17  C   UNL     1       7.436  34.109  21.090  0.00  0.00    +0.005 A 
ATOM     18  C   UNL     1       6.437  34.225  20.031  0.00  0.00    -0.033 A 
ATOM     28  C   UNL     1       5.957  33.023  19.368  0.00  0.00    +0.005 A 
ATOM     29  C   UNL     1       6.433  31.743  19.730  0.00  0.00    +0.013 A 
BRANCH  18  19
ATOM     19  C   UNL     1       5.844  35.574  19.585  0.00  0.00    +0.119 C 
BRANCH  19  20
ATOM     20  N   UNL     1       5.198  36.418  20.634  0.00  0.00    -0.302 NA
ATOM     21  C   UNL     1       3.773  35.955  20.947  0.00  0.00    +0.066 C 
ATOM     22  C   UNL     1       3.120  36.835  22.062  0.00  0.00    -0.064 C 
ATOM     23  N   UNL     1       3.130  38.300  21.624  0.00  0.00    +0.379 N 
ATOM     24  C   UNL     1       2.466  39.123  22.645  0.00  0.00    -0.096 C 
ATOM     25  H   UNL     1       2.532  38.377  20.686  0.00  0.00    -0.082 HD
ATOM     26  C   UNL     1       4.544  38.768  21.309  0.00  0.00    -0.064 C 
ATOM     27  C   UNL     1       5.194  37.869  20.220  0.00  0.00    +0.066 C 
ENDBRANCH  19  20
ENDBRANCH  18  19
ENDBRANCH  14  15
ENDBRANCH  12  13
TORSDOF 6
ENDMDL
MODEL 5
REMARK VINA RESULT:     -10.8      1.177      1.932
REMARK  Name = C:\Users\Docking\Desktop\test protocol\1iep_ligandH.pdb
REMARK  8 active torsions:
REMARK  status: ('A' for Active; 'I' for Inactive)
REMARK    1  A    between atoms: _5  and  _11
REMARK    2  A    between atoms: _19  and  _21
REMARK    3  A    between atoms: _22  and  _66
REMARK    4  A    between atoms: _27  and  _30
REMARK    5  A    between atoms: _32  and  _33
REMARK    6  A    between atoms: _38  and  _43
REMARK    7  A    between atoms: _43  and  _46
REMARK    8  A    between atoms: _53  and  _55
REMARK                            x       y       z     vdW  Elec       q    Type
REMARK                         _______ _______ _______ _____ _____    ______ ____
ROOT
ATOM     10  C   UNL     1      10.006  27.355  20.965  0.00  0.00    +0.038 A 
ATOM     11  C   UNL     1       9.622  28.621  20.455  0.00  0.00    +0.047 A 
ATOM     12  C   UNL     1       8.870  29.563  21.268  0.00  0.00    +0.035 A 
ATOM     32  C   UNL     1       8.528  29.184  22.599  0.00  0.00    +0.024 A 
ATOM     33  C   UNL     1       8.909  27.900  23.133  0.00  0.00    +0.007 A 
ATOM     34  C   UNL     1       9.649  26.966  22.334  0.00  0.00    -0.029 A 
ATOM     35  C   UNL     1      10.026  25.601  22.956  0.00  0.00    +0.045 C 
ENDROOT
BRANCH  10   9
ATOM      4  C   UNL     1      10.264  23.746  17.811  0.00  0.00    +0.077 A 
ATOM      5  C   UNL     1       8.843  23.551  17.829  0.00  0.00    +0.048 A 
ATOM      6  C   UNL     1       8.082  24.395  18.668  0.00  0.00    +0.116 A 
ATOM      7  N   UNL     1       8.707  25.360  19.429  0.00  0.00    -0.223 NA
ATOM      8  C   UNL     1      10.080  25.521  19.389  0.00  0.00    +0.220 A 
ATOM      9  N   UNL     1      10.728  26.489  20.139  0.00  0.00    -0.283 N 
ATOM     36  H   UNL     1      11.743  26.571  20.088  0.00  0.00    +0.155 HD
ATOM     37  N   UNL     1      10.828  24.726  18.596  0.00  0.00    -0.214 NA
BRANCH   4   3
ATOM      1  C   UNL     1      13.464  22.479  15.952  0.00  0.00    +0.020 A 
ATOM      2  C   UNL     1      12.600  23.297  16.772  0.00  0.00    +0.013 A 
ATOM      3  C   UNL     1      11.202  22.935  16.972  0.00  0.00    +0.019 A 
ATOM     38  C   UNL     1      10.707  21.729  16.325  0.00  0.00    +0.120 A 
ATOM     39  N   UNL     1      11.562  20.962  15.541  0.00  0.00    -0.263 NA
ATOM     40  C   UNL     1      12.909  21.301  15.339  0.00  0.00    +0.111 A 
ENDBRANCH   4   3
ENDBRANCH  10   9
BRANCH  12  13
ATOM     13  N   UNL     1       8.445  30.860  20.802  0.00  0.00    -0.281 N 
ATOM     14  C   UNL     1       7.208  31.219  20.293  0.00  0.00    +0.248 C 
ATOM     30  O   UNL     1       6.340  30.425  19.961  0.00  0.00    -0.270 OA
ATOM     31  H   UNL     1       9.142  31.604  20.853  0.00  0.00    +0.155 HD
BRANCH  14  15
ATOM     15  C   UNL     1       6.894  32.669  20.113  0.00  0.00    +0.037 A 
ATOM     16  C   UNL     1       7.892  33.603  19.587  0.00  0.00    +0.013 A 
ATOM     17  C   UNL     1       7.569  35.000  19.439  0.00  0.00    +0.005 A 
ATOM     18  C   UNL     1       6.239  35.471  19.818  0.00  0.00    -0.033 A 
ATOM     28  C   UNL     1       5.266  34.522  20.333  0.00  0.00    +0.005 A 
ATOM     29  C   UNL     1       5.580  33.152  20.480  0.00  0.00    +0.013 A 
BRANCH  18  19
ATOM     19  C   UNL     1       5.814  36.948  19.714  0.00  0.00    +0.119 C 
BRANCH  19  20
ATOM     20  N   UNL     1       5.064  37.359  18.490  0.00  0.00    -0.302 NA
ATOM     21  C   UNL     1       5.798  36.962  17.206  0.00  0.00    +0.066 C 
ATOM     22  C   UNL     1       4.989  37.380  15.935  0.00  0.00    -0.064 C 
ATOM     23  N   UNL     1       4.734  38.888  15.969  0.00  0.00    +0.379 N 
ATOM     24  C   UNL     1       4.023  39.293  14.748  0.00  0.00    -0.096 C 
ATOM     25  H   UNL     1       5.725  39.398  15.970  0.00  0.00    -0.082 HD
ATOM     26  C   UNL     1       4.006  39.291  17.244  0.00  0.00    -0.064 C 
ATOM     27  C   UNL     1       4.805  38.846  18.501  0.00  0.00    +0.066 C 
ENDBRANCH  19  20
ENDBRANCH  18  19
ENDBRANCH  14  15
ENDBRANCH  12  13
TORSDOF 6
ENDMDL
