MODEL 1
REMARK VINA RESULT:      -9.8      0.000      0.000
REMARK  Name = C:\Users\Docking\Desktop\test protocol\1iep_ligandH.pdb
REMARK  8 active torsions:
REMARK  status: ('A' for Active; 'I' for Inactive)
REMARK    1  A    between atoms: _5  and  _11
REMARK    2  A    between atoms: _19  and  _21
REMARK    3  A    between atoms: _22  and  _66
REMARK    4  A    between atoms: _27  and  _30
REMARK    5  A    between atoms: _32  and  _33
REMARK    6  A    between atoms: _38  and  _43
REMARK    7  A    between atoms: _43  and  _46
REMARK    8  A    between atoms: _53  and  _55
REMARK                            x       y       z     vdW  Elec       q    Type
REMARK                         _______ _______ _______ _____ _____    ______ ____
ROOT
ATOM     10  C   UNL     1       2.190  31.318  26.294  0.00  0.00    +0.038 A 
ATOM     11  C   UNL     1       2.641  31.976  25.121  0.00  0.00    +0.047 A 
ATOM     12  C   UNL     1       2.310  33.370  24.866  0.00  0.00    +0.035 A 
ATOM     32  C   UNL     1       1.520  34.064  25.829  0.00  0.00    +0.024 A 
ATOM     33  C   UNL     1       1.054  33.410  27.026  0.00  0.00    +0.007 A 
ATOM     34  C   UNL     1       1.375  32.035  27.282  0.00  0.00    -0.029 A 
ATOM     35  C   UNL     1       0.842  31.383  28.579  0.00  0.00    +0.045 C 
ENDROOT
BRANCH  10   9
ATOM      4  C   UNL     1       1.151  26.632  26.288  0.00  0.00    +0.077 A 
ATOM      5  C   UNL     1      -0.206  26.873  25.891  0.00  0.00    +0.048 A 
ATOM      6  C   UNL     1      -0.599  28.218  25.705  0.00  0.00    +0.116 A 
ATOM      7  N   UNL     1       0.307  29.237  25.905  0.00  0.00    -0.223 NA
ATOM      8  C   UNL     1       1.608  28.970  26.290  0.00  0.00    +0.220 A 
ATOM      9  N   UNL     1       2.538  29.979  26.488  0.00  0.00    -0.283 N 
ATOM     36  H   UNL     1       3.486  29.741  26.779  0.00  0.00    +0.155 HD
ATOM     37  N   UNL     1       2.007  27.695  26.475  0.00  0.00    -0.214 NA
BRANCH   4   3
ATOM      1  C   UNL     1       2.002  22.832  25.922  0.00  0.00    +0.020 A 
ATOM      2  C   UNL     1       1.429  24.131  25.653  0.00  0.00    +0.013 A 
ATOM      3  C   UNL     1       1.717  25.266  26.521  0.00  0.00    +0.019 A 
ATOM     38  C   UNL     1       2.596  25.051  27.660  0.00  0.00    +0.120 A 
ATOM     39  N   UNL     1       3.132  23.789  27.895  0.00  0.00    -0.263 NA
ATOM     40  C   UNL     1       2.861  22.689  27.068  0.00  0.00    +0.111 A 
ENDBRANCH   4   3
ENDBRANCH  10   9
BRANCH  12  13
ATOM     13  N   UNL     1       2.732  34.088  23.689  0.00  0.00    -0.281 N 
ATOM     14  C   UNL     1       4.020  34.442  23.324  0.00  0.00    +0.248 C 
ATOM     30  O   UNL     1       4.990  34.381  24.065  0.00  0.00    -0.270 OA
ATOM     31  H   UNL     1       1.990  34.369  23.047  0.00  0.00    +0.155 HD
BRANCH  14  15
ATOM     15  C   UNL     1       4.264  34.952  21.940  0.00  0.00    +0.037 A 
ATOM     16  C   UNL     1       5.288  34.355  21.080  0.00  0.00    +0.013 A 
ATOM     17  C   UNL     1       5.515  34.877  19.756  0.00  0.00    +0.005 A 
ATOM     18  C   UNL     1       4.713  36.003  19.283  0.00  0.00    -0.033 A 
ATOM     28  C   UNL     1       3.700  36.573  20.155  0.00  0.00    +0.005 A 
ATOM     29  C   UNL     1       3.476  36.065  21.454  0.00  0.00    +0.013 A 
BRANCH  18  19
ATOM     19  C   UNL     1       4.901  36.638  17.892  0.00  0.00    +0.119 C 
BRANCH  19  20
ATOM     20  N   UNL     1       4.536  38.079  17.744  0.00  0.00    -0.302 NA
ATOM     21  C   UNL     1       4.643  38.551  16.291  0.00  0.00    +0.066 C 
ATOM     22  C   UNL     1       4.237  40.054  16.150  0.00  0.00    -0.064 C 
ATOM     23  N   UNL     1       5.121  40.906  17.063  0.00  0.00    +0.379 N 
ATOM     24  C   UNL     1       4.780  42.326  16.890  0.00  0.00    -0.096 C 
ATOM     25  H   UNL     1       6.177  40.769  16.735  0.00  0.00    -0.082 HD
ATOM     26  C   UNL     1       5.022  40.441  18.509  0.00  0.00    -0.064 C 
ATOM     27  C   UNL     1       5.400  38.939  18.634  0.00  0.00    +0.066 C 
ENDBRANCH  19  20
ENDBRANCH  18  19
ENDBRANCH  14  15
ENDBRANCH  12  13
TORSDOF 6
ENDMDL
MODEL 2
REMARK VINA RESULT:      -9.7      5.725     10.818
REMARK  Name = C:\Users\Docking\Desktop\test protocol\1iep_ligandH.pdb
REMARK  8 active torsions:
REMARK  status: ('A' for Active; 'I' for Inactive)
REMARK    1  A    between atoms: _5  and  _11
REMARK    2  A    between atoms: _19  and  _21
REMARK    3  A    between atoms: _22  and  _66
REMARK    4  A    between atoms: _27  and  _30
REMARK    5  A    between atoms: _32  and  _33
REMARK    6  A    between atoms: _38  and  _43
REMARK    7  A    between atoms: _43  and  _46
REMARK    8  A    between atoms: _53  and  _55
REMARK                            x       y       z     vdW  Elec       q    Type
REMARK                         _______ _______ _______ _____ _____    ______ ____
ROOT
ATOM     10  C   UNL     1       7.199  31.873  20.557  0.00  0.00    +0.038 A 
ATOM     11  C   UNL     1       6.163  31.607  21.489  0.00  0.00    +0.047 A 
ATOM     12  C   UNL     1       5.402  32.687  22.097  0.00  0.00    +0.035 A 
ATOM     32  C   UNL     1       5.721  34.027  21.731  0.00  0.00    +0.024 A 
ATOM     33  C   UNL     1       6.771  34.316  20.786  0.00  0.00    +0.007 A 
ATOM     34  C   UNL     1       7.527  33.254  20.185  0.00  0.00    -0.029 A 
ATOM     35  C   UNL     1       8.646  33.622  19.183  0.00  0.00    +0.045 C 
ENDROOT
BRANCH  10   9
ATOM      4  C   UNL     1       9.567  27.716  20.944  0.00  0.00    +0.077 A 
ATOM      5  C   UNL     1       9.424  27.699  22.371  0.00  0.00    +0.048 A 
ATOM      6  C   UNL     1       8.740  28.782  22.968  0.00  0.00    +0.116 A 
ATOM      7  N   UNL     1       8.241  29.801  22.185  0.00  0.00    -0.223 NA
ATOM      8  C   UNL     1       8.398  29.787  20.811  0.00  0.00    +0.220 A 
ATOM      9  N   UNL     1       7.897  30.797  20.004  0.00  0.00    -0.283 N 
ATOM     36  H   UNL     1       8.040  30.754  18.995  0.00  0.00    +0.155 HD
ATOM     37  N   UNL     1       9.048  28.764  20.218  0.00  0.00    -0.214 NA
BRANCH   4   3
ATOM      1  C   UNL     1      10.617  25.261  18.085  0.00  0.00    +0.020 A 
ATOM      2  C   UNL     1       9.915  26.308  18.791  0.00  0.00    +0.013 A 
ATOM      3  C   UNL     1      10.261  26.640  20.167  0.00  0.00    +0.019 A 
ATOM     38  C   UNL     1      11.331  25.888  20.805  0.00  0.00    +0.120 A 
ATOM     39  N   UNL     1      11.988  24.884  20.101  0.00  0.00    -0.263 NA
ATOM     40  C   UNL     1      11.663  24.555  18.777  0.00  0.00    +0.111 A 
ENDBRANCH   4   3
ENDBRANCH  10   9
BRANCH  12  13
ATOM     13  N   UNL     1       4.345  32.479  23.055  0.00  0.00    -0.281 N 
ATOM     14  C   UNL     1       4.091  33.197  24.212  0.00  0.00    +0.248 C 
ATOM     30  O   UNL     1       4.865  34.000  24.712  0.00  0.00    -0.270 OA
ATOM     31  H   UNL     1       3.708  31.708  22.857  0.00  0.00    +0.155 HD
BRANCH  14  15
ATOM     15  C   UNL     1       2.794  32.983  24.924  0.00  0.00    +0.037 A 
ATOM     16  C   UNL     1       2.039  34.108  25.482  0.00  0.00    +0.013 A 
ATOM     17  C   UNL     1       0.800  33.872  26.179  0.00  0.00    +0.005 A 
ATOM     18  C   UNL     1       0.307  32.504  26.321  0.00  0.00    -0.033 A 
ATOM     28  C   UNL     1       1.074  31.407  25.754  0.00  0.00    +0.005 A 
ATOM     29  C   UNL     1       2.290  31.634  25.071  0.00  0.00    +0.013 A 
BRANCH  18  19
ATOM     19  C   UNL     1      -0.995  32.156  27.068  0.00  0.00    +0.119 C 
BRANCH  19  20
ATOM     20  N   UNL     1      -1.192  30.733  27.473  0.00  0.00    -0.302 NA
ATOM     21  C   UNL     1      -2.648  30.287  27.314  0.00  0.00    +0.066 C 
ATOM     22  C   UNL     1      -2.832  28.788  27.721  0.00  0.00    -0.064 C 
ATOM     23  N   UNL     1      -2.359  28.592  29.163  0.00  0.00    +0.379 N 
ATOM     24  C   UNL     1      -2.585  27.197  29.567  0.00  0.00    -0.096 C 
ATOM     25  H   UNL     1      -2.989  29.240  29.816  0.00  0.00    -0.082 HD
ATOM     26  C   UNL     1      -0.913  29.036  29.330  0.00  0.00    -0.064 C 
ATOM     27  C   UNL     1      -0.735  30.517  28.895  0.00  0.00    +0.066 C 
ENDBRANCH  19  20
ENDBRANCH  18  19
ENDBRANCH  14  15
ENDBRANCH  12  13
TORSDOF 6
ENDMDL
MODEL 3
REMARK VINA RESULT:      -9.6      4.574      5.503
REMARK  Name = C:\Users\Docking\Desktop\test protocol\1iep_ligandH.pdb
REMARK  8 active torsions:
REMARK  status: ('A' for Active; 'I' for Inactive)
REMARK    1  A    between atoms: _5  and  _11
REMARK    2  A    between atoms: _19  and  _21
REMARK    3  A    between atoms: _22  and  _66
REMARK    4  A    between atoms: _27  and  _30
REMARK    5  A    between atoms: _32  and  _33
REMARK    6  A    between atoms: _38  and  _43
REMARK    7  A    between atoms: _43  and  _46
REMARK    8  A    between atoms: _53  and  _55
REMARK                            x       y       z     vdW  Elec       q    Type
REMARK                         _______ _______ _______ _____ _____    ______ ____
ROOT
ATOM     10  C   UNL     1       3.942  30.722  27.435  0.00  0.00    +0.038 A 
ATOM     11  C   UNL     1       4.206  31.537  26.304  0.00  0.00    +0.047 A 
ATOM     12  C   UNL     1       3.232  31.677  25.233  0.00  0.00    +0.035 A 
ATOM     32  C   UNL     1       1.997  30.975  25.347  0.00  0.00    +0.024 A 
ATOM     33  C   UNL     1       1.712  30.141  26.489  0.00  0.00    +0.007 A 
ATOM     34  C   UNL     1       2.670  29.997  27.547  0.00  0.00    -0.029 A 
ATOM     35  C   UNL     1       2.314  29.085  28.745  0.00  0.00    +0.045 C 
ENDROOT
BRANCH  10   9
ATOM      4  C   UNL     1       8.280  29.399  29.005  0.00  0.00    +0.077 A 
ATOM      5  C   UNL     1       8.631  28.831  27.736  0.00  0.00    +0.048 A 
ATOM      6  C   UNL     1       7.665  28.893  26.707  0.00  0.00    +0.116 A 
ATOM      7  N   UNL     1       6.442  29.483  26.941  0.00  0.00    -0.223 NA
ATOM      8  C   UNL     1       6.134  30.020  28.178  0.00  0.00    +0.220 A 
ATOM      9  N   UNL     1       4.913  30.624  28.434  0.00  0.00    -0.283 N 
ATOM     36  H   UNL     1       4.722  31.002  29.362  0.00  0.00    +0.155 HD
ATOM     37  N   UNL     1       7.039  29.971  29.177  0.00  0.00    -0.214 NA
BRANCH   4   3
ATOM      1  C   UNL     1       9.712  28.984  32.621  0.00  0.00    +0.020 A 
ATOM      2  C   UNL     1       8.789  28.950  31.511  0.00  0.00    +0.013 A 
ATOM      3  C   UNL     1       9.195  29.413  30.190  0.00  0.00    +0.019 A 
ATOM     38  C   UNL     1      10.554  29.908  30.025  0.00  0.00    +0.120 A 
ATOM     39  N   UNL     1      11.420  29.931  31.114  0.00  0.00    -0.263 NA
ATOM     40  C   UNL     1      11.040  29.489  32.390  0.00  0.00    +0.111 A 
ENDBRANCH   4   3
ENDBRANCH  10   9
BRANCH  12  13
ATOM     13  N   UNL     1       3.448  32.484  24.058  0.00  0.00    -0.281 N 
ATOM     14  C   UNL     1       3.818  33.817  23.996  0.00  0.00    +0.248 C 
ATOM     30  O   UNL     1       3.813  34.581  24.950  0.00  0.00    -0.270 OA
ATOM     31  H   UNL     1       3.311  32.015  23.162  0.00  0.00    +0.155 HD
BRANCH  14  15
ATOM     15  C   UNL     1       4.243  34.388  22.682  0.00  0.00    +0.037 A 
ATOM     16  C   UNL     1       3.475  35.455  22.034  0.00  0.00    +0.013 A 
ATOM     17  C   UNL     1       3.897  35.977  20.758  0.00  0.00    +0.005 A 
ATOM     18  C   UNL     1       5.095  35.432  20.122  0.00  0.00    -0.033 A 
ATOM     28  C   UNL     1       5.840  34.378  20.790  0.00  0.00    +0.005 A 
ATOM     29  C   UNL     1       5.429  33.863  22.040  0.00  0.00    +0.013 A 
BRANCH  18  19
ATOM     19  C   UNL     1       5.606  35.914  18.752  0.00  0.00    +0.119 C 
BRANCH  19  20
ATOM     20  N   UNL     1       4.972  37.138  18.177  0.00  0.00    -0.302 NA
ATOM     21  C   UNL     1       5.282  37.299  16.686  0.00  0.00    +0.066 C 
ATOM     22  C   UNL     1       4.593  38.572  16.095  0.00  0.00    -0.064 C 
ATOM     23  N   UNL     1       5.047  39.804  16.879  0.00  0.00    +0.379 N 
ATOM     24  C   UNL     1       4.445  41.009  16.289  0.00  0.00    -0.096 C 
ATOM     25  H   UNL     1       6.153  39.888  16.766  0.00  0.00    -0.082 HD
ATOM     26  C   UNL     1       4.745  39.651  18.363  0.00  0.00    -0.064 C 
ATOM     27  C   UNL     1       5.410  38.368  18.933  0.00  0.00    +0.066 C 
ENDBRANCH  19  20
ENDBRANCH  18  19
ENDBRANCH  14  15
ENDBRANCH  12  13
TORSDOF 6
ENDMDL
MODEL 4
REMARK VINA RESULT:      -9.6      1.211      1.892
REMARK  Name = C:\Users\Docking\Desktop\test protocol\1iep_ligandH.pdb
REMARK  8 active torsions:
REMARK  status: ('A' for Active; 'I' for Inactive)
REMARK    1  A    between atoms: _5  and  _11
REMARK    2  A    between atoms: _19  and  _21
REMARK    3  A    between atoms: _22  and  _66
REMARK    4  A    between atoms: _27  and  _30
REMARK    5  A    between atoms: _32  and  _33
REMARK    6  A    between atoms: _38  and  _43
REMARK    7  A    between atoms: _43  and  _46
REMARK    8  A    between atoms: _53  and  _55
REMARK                            x       y       z     vdW  Elec       q    Type
REMARK                         _______ _______ _______ _____ _____    ______ ____
ROOT
ATOM     10  C   UNL     1       0.740  30.593  26.110  0.00  0.00    +0.038 A 
ATOM     11  C   UNL     1       1.464  31.298  25.115  0.00  0.00    +0.047 A 
ATOM     12  C   UNL     1       1.593  32.746  25.162  0.00  0.00    +0.035 A 
ATOM     32  C   UNL     1       0.974  33.445  26.239  0.00  0.00    +0.024 A 
ATOM     33  C   UNL     1       0.233  32.744  27.258  0.00  0.00    +0.007 A 
ATOM     34  C   UNL     1       0.100  31.316  27.215  0.00  0.00    -0.029 A 
ATOM     35  C   UNL     1      -0.711  30.618  28.332  0.00  0.00    +0.045 C 
ENDROOT
BRANCH  10   9
ATOM      4  C   UNL     1       2.462  26.177  26.860  0.00  0.00    +0.077 A 
ATOM      5  C   UNL     1       3.659  26.683  27.468  0.00  0.00    +0.048 A 
ATOM      6  C   UNL     1       3.796  28.086  27.562  0.00  0.00    +0.116 A 
ATOM      7  N   UNL     1       2.803  28.912  27.081  0.00  0.00    -0.223 NA
ATOM      8  C   UNL     1       1.662  28.391  26.498  0.00  0.00    +0.220 A 
ATOM      9  N   UNL     1       0.648  29.203  26.015  0.00  0.00    -0.283 N 
ATOM     36  H   UNL     1      -0.175  28.780  25.586  0.00  0.00    +0.155 HD
ATOM     37  N   UNL     1       1.509  27.055  26.395  0.00  0.00    -0.214 NA
BRANCH   4   3
ATOM      1  C   UNL     1       1.589  22.702  25.291  0.00  0.00    +0.020 A 
ATOM      2  C   UNL     1       1.863  24.116  25.400  0.00  0.00    +0.013 A 
ATOM      3  C   UNL     1       2.171  24.718  26.691  0.00  0.00    +0.019 A 
ATOM     38  C   UNL     1       2.194  23.854  27.862  0.00  0.00    +0.120 A 
ATOM     39  N   UNL     1       1.925  22.496  27.727  0.00  0.00    -0.263 NA
ATOM     40  C   UNL     1       1.625  21.906  26.490  0.00  0.00    +0.111 A 
ENDBRANCH   4   3
ENDBRANCH  10   9
BRANCH  12  13
ATOM     13  N   UNL     1       2.309  33.517  24.176  0.00  0.00    -0.281 N 
ATOM     14  C   UNL     1       3.679  33.676  24.050  0.00  0.00    +0.248 C 
ATOM     30  O   UNL     1       4.494  33.350  24.900  0.00  0.00    -0.270 OA
ATOM     31  H   UNL     1       1.736  34.005  23.487  0.00  0.00    +0.155 HD
BRANCH  14  15
ATOM     15  C   UNL     1       4.223  34.301  22.805  0.00  0.00    +0.037 A 
ATOM     16  C   UNL     1       3.509  35.385  22.126  0.00  0.00    +0.013 A 
ATOM     17  C   UNL     1       4.047  35.958  20.917  0.00  0.00    +0.005 A 
ATOM     18  C   UNL     1       5.307  35.448  20.382  0.00  0.00    -0.033 A 
ATOM     28  C   UNL     1       5.996  34.375  21.079  0.00  0.00    +0.005 A 
ATOM     29  C   UNL     1       5.472  33.810  22.263  0.00  0.00    +0.013 A 
BRANCH  18  19
ATOM     19  C   UNL     1       5.943  35.986  19.086  0.00  0.00    +0.119 C 
BRANCH  19  20
ATOM     20  N   UNL     1       5.223  37.084  18.375  0.00  0.00    -0.302 NA
ATOM     21  C   UNL     1       5.625  37.174  16.900  0.00  0.00    +0.066 C 
ATOM     22  C   UNL     1       4.845  38.313  16.166  0.00  0.00    -0.064 C 
ATOM     23  N   UNL     1       5.099  39.642  16.879  0.00  0.00    +0.379 N 
ATOM     24  C   UNL     1       4.414  40.725  16.157  0.00  0.00    -0.096 C 
ATOM     25  H   UNL     1       6.194  39.846  16.834  0.00  0.00    -0.082 HD
ATOM     26  C   UNL     1       4.705  39.561  18.346  0.00  0.00    -0.064 C 
ATOM     27  C   UNL     1       5.463  38.407  19.060  0.00  0.00    +0.066 C 
ENDBRANCH  19  20
ENDBRANCH  18  19
ENDBRANCH  14  15
ENDBRANCH  12  13
TORSDOF 6
ENDMDL
MODEL 5
REMARK VINA RESULT:      -9.4      1.826     13.106
REMARK  Name = C:\Users\Docking\Desktop\test protocol\1iep_ligandH.pdb
REMARK  8 active torsions:
REMARK  status: ('A' for Active; 'I' for Inactive)
REMARK    1  A    between atoms: _5  and  _11
REMARK    2  A    between atoms: _19  and  _21
REMARK    3  A    between atoms: _22  and  _66
REMARK    4  A    between atoms: _27  and  _30
REMARK    5  A    between atoms: _32  and  _33
REMARK    6  A    between atoms: _38  and  _43
REMARK    7  A    between atoms: _43  and  _46
REMARK    8  A    between atoms: _53  and  _55
REMARK                            x       y       z     vdW  Elec       q    Type
REMARK                         _______ _______ _______ _____ _____    ______ ____
ROOT
ATOM     10  C   UNL     1       5.681  34.959  20.000  0.00  0.00    +0.038 A 
ATOM     11  C   UNL     1       4.851  34.489  21.050  0.00  0.00    +0.047 A 
ATOM     12  C   UNL     1       5.221  33.322  21.836  0.00  0.00    +0.035 A 
ATOM     32  C   UNL     1       6.445  32.660  21.528  0.00  0.00    +0.024 A 
ATOM     33  C   UNL     1       7.300  33.124  20.464  0.00  0.00    +0.007 A 
ATOM     34  C   UNL     1       6.939  34.273  19.683  0.00  0.00    -0.029 A 
ATOM     35  C   UNL     1       7.891  34.722  18.550  0.00  0.00    +0.045 C 
ENDROOT
BRANCH  10   9
ATOM      4  C   UNL     1       4.178  39.510  19.744  0.00  0.00    +0.077 A 
ATOM      5  C   UNL     1       4.171  39.651  21.171  0.00  0.00    +0.048 A 
ATOM      6  C   UNL     1       4.554  38.526  21.936  0.00  0.00    +0.116 A 
ATOM      7  N   UNL     1       4.915  37.353  21.309  0.00  0.00    -0.223 NA
ATOM      8  C   UNL     1       4.910  37.251  19.930  0.00  0.00    +0.220 A 
ATOM      9  N   UNL     1       5.277  36.084  19.278  0.00  0.00    -0.283 N 
ATOM     36  H   UNL     1       5.253  36.046  18.259  0.00  0.00    +0.155 HD
ATOM     37  N   UNL     1       4.546  38.310  19.177  0.00  0.00    -0.214 NA
BRANCH   4   3
ATOM      1  C   UNL     1       2.607  42.758  18.232  0.00  0.00    +0.020 A 
ATOM      2  C   UNL     1       2.939  41.721  19.182  0.00  0.00    +0.013 A 
ATOM      3  C   UNL     1       3.802  40.610  18.800  0.00  0.00    +0.019 A 
ATOM     38  C   UNL     1       4.316  40.578  17.439  0.00  0.00    +0.120 A 
ATOM     39  N   UNL     1       3.977  41.590  16.546  0.00  0.00    -0.263 NA
ATOM     40  C   UNL     1       3.147  42.663  16.901  0.00  0.00    +0.111 A 
ENDBRANCH   4   3
ENDBRANCH  10   9
BRANCH  12  13
ATOM     13  N   UNL     1       4.415  32.794  22.909  0.00  0.00    -0.281 N 
ATOM     14  C   UNL     1       4.065  33.414  24.097  0.00  0.00    +0.248 C 
ATOM     30  O   UNL     1       4.573  34.445  24.514  0.00  0.00    -0.270 OA
ATOM     31  H   UNL     1       4.059  31.847  22.776  0.00  0.00    +0.155 HD
BRANCH  14  15
ATOM     15  C   UNL     1       3.009  32.793  24.953  0.00  0.00    +0.037 A 
ATOM     16  C   UNL     1       3.316  31.672  25.845  0.00  0.00    +0.013 A 
ATOM     17  C   UNL     1       2.275  31.080  26.647  0.00  0.00    +0.005 A 
ATOM     18  C   UNL     1       0.916  31.609  26.561  0.00  0.00    -0.033 A 
ATOM     28  C   UNL     1       0.641  32.725  25.672  0.00  0.00    +0.005 A 
ATOM     29  C   UNL     1       1.658  33.308  24.883  0.00  0.00    +0.013 A 
BRANCH  18  19
ATOM     19  C   UNL     1      -0.261  31.026  27.364  0.00  0.00    +0.119 C 
BRANCH  19  20
ATOM     20  N   UNL     1      -0.419  29.541  27.365  0.00  0.00    -0.302 NA
ATOM     21  C   UNL     1       0.429  28.873  28.451  0.00  0.00    +0.066 C 
ATOM     22  C   UNL     1       0.234  27.322  28.452  0.00  0.00    -0.064 C 
ATOM     23  N   UNL     1       0.587  26.765  27.071  0.00  0.00    +0.379 N 
ATOM     24  C   UNL     1       0.461  25.301  27.086  0.00  0.00    -0.096 C 
ATOM     25  H   UNL     1       1.656  27.011  26.871  0.00  0.00    -0.082 HD
ATOM     26  C   UNL     1      -0.250  27.426  25.985  0.00  0.00    -0.064 C 
ATOM     27  C   UNL     1      -0.072  28.970  26.012  0.00  0.00    +0.066 C 
ENDBRANCH  19  20
ENDBRANCH  18  19
ENDBRANCH  14  15
ENDBRANCH  12  13
TORSDOF 6
ENDMDL
