MODEL 1
REMARK VINA RESULT:      -9.2      0.000      0.000
REMARK  Name = C:\Users\Docking\Desktop\test protocol\1iep_ligandH.pdb
REMARK  8 active torsions:
REMARK  status: ('A' for Active; 'I' for Inactive)
REMARK    1  A    between atoms: _5  and  _11
REMARK    2  A    between atoms: _19  and  _21
REMARK    3  A    between atoms: _22  and  _66
REMARK    4  A    between atoms: _27  and  _30
REMARK    5  A    between atoms: _32  and  _33
REMARK    6  A    between atoms: _38  and  _43
REMARK    7  A    between atoms: _43  and  _46
REMARK    8  A    between atoms: _53  and  _55
REMARK                            x       y       z     vdW  Elec       q    Type
REMARK                         _______ _______ _______ _____ _____    ______ ____
ROOT
ATOM     10  C   UNL     1      -5.167  17.184  24.200  0.00  0.00    +0.038 A 
ATOM     11  C   UNL     1      -6.198  16.436  24.822  0.00  0.00    +0.047 A 
ATOM     12  C   UNL     1      -6.937  16.970  25.956  0.00  0.00    +0.035 A 
ATOM     32  C   UNL     1      -6.600  18.272  26.429  0.00  0.00    +0.024 A 
ATOM     33  C   UNL     1      -5.553  19.046  25.809  0.00  0.00    +0.007 A 
ATOM     34  C   UNL     1      -4.820  18.523  24.692  0.00  0.00    -0.029 A 
ATOM     35  C   UNL     1      -3.704  19.395  24.071  0.00  0.00    +0.045 C 
ENDROOT
BRANCH  10   9
ATOM      4  C   UNL     1      -4.672  16.329  19.503  0.00  0.00    +0.077 A 
ATOM      5  C   UNL     1      -5.878  17.039  19.187  0.00  0.00    +0.048 A 
ATOM      6  C   UNL     1      -6.600  17.603  20.262  0.00  0.00    +0.116 A 
ATOM      7  N   UNL     1      -6.141  17.462  21.554  0.00  0.00    -0.223 NA
ATOM      8  C   UNL     1      -4.975  16.770  21.825  0.00  0.00    +0.220 A 
ATOM      9  N   UNL     1      -4.490  16.623  23.115  0.00  0.00    -0.283 N 
ATOM     36  H   UNL     1      -3.630  16.098  23.274  0.00  0.00    +0.155 HD
ATOM     37  N   UNL     1      -4.268  16.221  20.815  0.00  0.00    -0.214 NA
BRANCH   4   3
ATOM      1  C   UNL     1      -3.239  15.032  16.103  0.00  0.00    +0.020 A 
ATOM      2  C   UNL     1      -4.118  15.673  17.054  0.00  0.00    +0.013 A 
ATOM      3  C   UNL     1      -3.798  15.680  18.476  0.00  0.00    +0.019 A 
ATOM     38  C   UNL     1      -2.571  15.026  18.906  0.00  0.00    +0.120 A 
ATOM     39  N   UNL     1      -1.745  14.416  17.967  0.00  0.00    -0.263 NA
ATOM     40  C   UNL     1      -2.043  14.401  16.596  0.00  0.00    +0.111 A 
ENDBRANCH   4   3
ENDBRANCH  10   9
BRANCH  12  13
ATOM     13  N   UNL     1      -7.989  16.253  26.633  0.00  0.00    -0.281 N 
ATOM     14  C   UNL     1      -9.320  16.147  26.266  0.00  0.00    +0.248 C 
ATOM     30  O   UNL     1      -9.857  16.832  25.408  0.00  0.00    -0.270 OA
ATOM     31  H   UNL     1      -7.719  15.765  27.487  0.00  0.00    +0.155 HD
BRANCH  14  15
ATOM     15  C   UNL     1     -10.183  15.144  26.961  0.00  0.00    +0.037 A 
ATOM     16  C   UNL     1     -11.396  14.617  26.329  0.00  0.00    +0.013 A 
ATOM     17  C   UNL     1     -12.219  13.663  27.028  0.00  0.00    +0.005 A 
ATOM     18  C   UNL     1     -11.832  13.229  28.368  0.00  0.00    -0.033 A 
ATOM     28  C   UNL     1     -10.621  13.764  28.969  0.00  0.00    +0.005 A 
ATOM     29  C   UNL     1      -9.812  14.700  28.287  0.00  0.00    +0.013 A 
BRANCH  18  19
ATOM     19  C   UNL     1     -12.662  12.230  29.197  0.00  0.00    +0.119 C 
BRANCH  19  20
ATOM     20  N   UNL     1     -12.478  12.252  30.679  0.00  0.00    -0.302 NA
ATOM     21  C   UNL     1     -12.916  10.938  31.331  0.00  0.00    +0.066 C 
ATOM     22  C   UNL     1     -12.696  10.970  32.879  0.00  0.00    -0.064 C 
ATOM     23  N   UNL     1     -13.461  12.152  33.476  0.00  0.00    +0.379 N 
ATOM     24  C   UNL     1     -13.303  12.151  34.937  0.00  0.00    -0.096 C 
ATOM     25  H   UNL     1     -14.543  12.002  33.252  0.00  0.00    -0.082 HD
ATOM     26  C   UNL     1     -13.034  13.463  32.830  0.00  0.00    -0.064 C 
ATOM     27  C   UNL     1     -13.229  13.410  31.289  0.00  0.00    +0.066 C 
ENDBRANCH  19  20
ENDBRANCH  18  19
ENDBRANCH  14  15
ENDBRANCH  12  13
TORSDOF 6
ENDMDL
MODEL 2
REMARK VINA RESULT:      -9.0      5.216     12.783
REMARK  Name = C:\Users\Docking\Desktop\test protocol\1iep_ligandH.pdb
REMARK  8 active torsions:
REMARK  status: ('A' for Active; 'I' for Inactive)
REMARK    1  A    between atoms: _5  and  _11
REMARK    2  A    between atoms: _19  and  _21
REMARK    3  A    between atoms: _22  and  _66
REMARK    4  A    between atoms: _27  and  _30
REMARK    5  A    between atoms: _32  and  _33
REMARK    6  A    between atoms: _38  and  _43
REMARK    7  A    between atoms: _43  and  _46
REMARK    8  A    between atoms: _53  and  _55
REMARK                            x       y       z     vdW  Elec       q    Type
REMARK                         _______ _______ _______ _____ _____    ______ ____
ROOT
ATOM     10  C   UNL     1      -7.123  17.142  26.592  0.00  0.00    +0.038 A 
ATOM     11  C   UNL     1      -5.808  16.748  26.233  0.00  0.00    +0.047 A 
ATOM     12  C   UNL     1      -5.404  16.658  24.838  0.00  0.00    +0.035 A 
ATOM     32  C   UNL     1      -6.364  16.980  23.835  0.00  0.00    +0.024 A 
ATOM     33  C   UNL     1      -7.705  17.381  24.182  0.00  0.00    +0.007 A 
ATOM     34  C   UNL     1      -8.110  17.469  25.556  0.00  0.00    -0.029 A 
ATOM     35  C   UNL     1      -9.562  17.899  25.869  0.00  0.00    +0.045 C 
ENDROOT
BRANCH  10   9
ATOM      4  C   UNL     1      -9.271  15.404  30.516  0.00  0.00    +0.077 A 
ATOM      5  C   UNL     1      -9.795  14.276  29.802  0.00  0.00    +0.048 A 
ATOM      6  C   UNL     1      -9.495  14.184  28.424  0.00  0.00    +0.116 A 
ATOM      7  N   UNL     1      -8.726  15.153  27.817  0.00  0.00    -0.223 NA
ATOM      8  C   UNL     1      -8.238  16.230  28.535  0.00  0.00    +0.220 A 
ATOM      9  N   UNL     1      -7.457  17.212  27.946  0.00  0.00    -0.283 N 
ATOM     36  H   UNL     1      -7.122  17.994  28.509  0.00  0.00    +0.155 HD
ATOM     37  N   UNL     1      -8.512  16.341  29.851  0.00  0.00    -0.214 NA
BRANCH   4   3
ATOM      1  C   UNL     1      -8.732  16.343  34.275  0.00  0.00    +0.020 A 
ATOM      2  C   UNL     1      -8.459  16.132  32.872  0.00  0.00    +0.013 A 
ATOM      3  C   UNL     1      -9.499  15.640  31.977  0.00  0.00    +0.019 A 
ATOM     38  C   UNL     1     -10.815  15.370  32.538  0.00  0.00    +0.120 A 
ATOM     39  N   UNL     1     -11.047  15.581  33.893  0.00  0.00    -0.263 NA
ATOM     40  C   UNL     1     -10.054  16.053  34.764  0.00  0.00    +0.111 A 
ENDBRANCH   4   3
ENDBRANCH  10   9
BRANCH  12  13
ATOM     13  N   UNL     1      -4.086  16.256  24.413  0.00  0.00    -0.281 N 
ATOM     14  C   UNL     1      -3.066  17.059  23.931  0.00  0.00    +0.248 C 
ATOM     30  O   UNL     1      -3.205  18.224  23.589  0.00  0.00    -0.270 OA
ATOM     31  H   UNL     1      -3.881  15.259  24.476  0.00  0.00    +0.155 HD
BRANCH  14  15
ATOM     15  C   UNL     1      -1.695  16.479  23.795  0.00  0.00    +0.037 A 
ATOM     16  C   UNL     1      -0.512  17.339  23.701  0.00  0.00    +0.013 A 
ATOM     17  C   UNL     1       0.797  16.754  23.554  0.00  0.00    +0.005 A 
ATOM     18  C   UNL     1       0.931  15.301  23.500  0.00  0.00    -0.033 A 
ATOM     28  C   UNL     1      -0.259  14.471  23.600  0.00  0.00    +0.005 A 
ATOM     29  C   UNL     1      -1.544  15.041  23.744  0.00  0.00    +0.013 A 
BRANCH  18  19
ATOM     19  C   UNL     1       2.286  14.591  23.323  0.00  0.00    +0.119 C 
BRANCH  19  20
ATOM     20  N   UNL     1       2.531  13.369  24.145  0.00  0.00    -0.302 NA
ATOM     21  C   UNL     1       2.797  13.709  25.614  0.00  0.00    +0.066 C 
ATOM     22  C   UNL     1       3.029  12.417  26.464  0.00  0.00    -0.064 C 
ATOM     23  N   UNL     1       4.194  11.622  25.872  0.00  0.00    +0.379 N 
ATOM     24  C   UNL     1       4.452  10.437  26.703  0.00  0.00    -0.096 C 
ATOM     25  H   UNL     1       5.101  12.269  25.915  0.00  0.00    -0.082 HD
ATOM     26  C   UNL     1       3.938  11.282  24.411  0.00  0.00    -0.064 C 
ATOM     27  C   UNL     1       3.680  12.571  23.581  0.00  0.00    +0.066 C 
ENDBRANCH  19  20
ENDBRANCH  18  19
ENDBRANCH  14  15
ENDBRANCH  12  13
TORSDOF 6
ENDMDL
MODEL 3
REMARK VINA RESULT:      -9.0      1.436      1.983
REMARK  Name = C:\Users\Docking\Desktop\test protocol\1iep_ligandH.pdb
REMARK  8 active torsions:
REMARK  status: ('A' for Active; 'I' for Inactive)
REMARK    1  A    between atoms: _5  and  _11
REMARK    2  A    between atoms: _19  and  _21
REMARK    3  A    between atoms: _22  and  _66
REMARK    4  A    between atoms: _27  and  _30
REMARK    5  A    between atoms: _32  and  _33
REMARK    6  A    between atoms: _38  and  _43
REMARK    7  A    between atoms: _43  and  _46
REMARK    8  A    between atoms: _53  and  _55
REMARK                            x       y       z     vdW  Elec       q    Type
REMARK                         _______ _______ _______ _____ _____    ______ ____
ROOT
ATOM     10  C   UNL     1      -5.980  18.039  24.638  0.00  0.00    +0.038 A 
ATOM     11  C   UNL     1      -6.888  17.275  25.415  0.00  0.00    +0.047 A 
ATOM     12  C   UNL     1      -7.114  17.576  26.820  0.00  0.00    +0.035 A 
ATOM     32  C   UNL     1      -6.401  18.665  27.401  0.00  0.00    +0.024 A 
ATOM     33  C   UNL     1      -5.474  19.451  26.626  0.00  0.00    +0.007 A 
ATOM     34  C   UNL     1      -5.245  19.157  25.240  0.00  0.00    -0.029 A 
ATOM     35  C   UNL     1      -4.234  20.030  24.460  0.00  0.00    +0.045 C 
ENDROOT
BRANCH  10   9
ATOM      4  C   UNL     1      -3.469  16.038  21.070  0.00  0.00    +0.077 A 
ATOM      5  C   UNL     1      -2.410  15.647  21.956  0.00  0.00    +0.048 A 
ATOM      6  C   UNL     1      -2.548  15.986  23.321  0.00  0.00    +0.116 A 
ATOM      7  N   UNL     1      -3.664  16.665  23.756  0.00  0.00    -0.223 NA
ATOM      8  C   UNL     1      -4.666  17.029  22.876  0.00  0.00    +0.220 A 
ATOM      9  N   UNL     1      -5.802  17.706  23.293  0.00  0.00    -0.283 N 
ATOM     36  H   UNL     1      -6.515  17.964  22.611  0.00  0.00    +0.155 HD
ATOM     37  N   UNL     1      -4.558  16.719  21.567  0.00  0.00    -0.214 NA
BRANCH   4   3
ATOM      1  C   UNL     1      -4.470  15.919  17.291  0.00  0.00    +0.020 A 
ATOM      2  C   UNL     1      -4.515  16.225  18.702  0.00  0.00    +0.013 A 
ATOM      3  C   UNL     1      -3.471  15.750  19.601  0.00  0.00    +0.019 A 
ATOM     38  C   UNL     1      -2.387  14.961  19.036  0.00  0.00    +0.120 A 
ATOM     39  N   UNL     1      -2.370  14.681  17.674  0.00  0.00    -0.263 NA
ATOM     40  C   UNL     1      -3.370  15.131  16.799  0.00  0.00    +0.111 A 
ENDBRANCH   4   3
ENDBRANCH  10   9
BRANCH  12  13
ATOM     13  N   UNL     1      -8.018  16.830  27.661  0.00  0.00    -0.281 N 
ATOM     14  C   UNL     1      -9.392  16.968  27.767  0.00  0.00    +0.248 C 
ATOM     30  O   UNL     1     -10.030  17.904  27.309  0.00  0.00    -0.270 OA
ATOM     31  H   UNL     1      -7.592  16.114  28.250  0.00  0.00    +0.155 HD
BRANCH  14  15
ATOM     15  C   UNL     1     -10.168  15.922  28.501  0.00  0.00    +0.037 A 
ATOM     16  C   UNL     1     -11.554  15.612  28.141  0.00  0.00    +0.013 A 
ATOM     17  C   UNL     1     -12.285  14.611  28.876  0.00  0.00    +0.005 A 
ATOM     18  C   UNL     1     -11.630  13.910  29.978  0.00  0.00    -0.033 A 
ATOM     28  C   UNL     1     -10.252  14.233  30.310  0.00  0.00    +0.005 A 
ATOM     29  C   UNL     1      -9.533  15.215  29.592  0.00  0.00    +0.013 A 
BRANCH  18  19
ATOM     19  C   UNL     1     -12.340  12.842  30.830  0.00  0.00    +0.119 C 
BRANCH  19  20
ATOM     20  N   UNL     1     -12.116  12.884  32.306  0.00  0.00    -0.302 NA
ATOM     21  C   UNL     1     -12.744  11.682  33.017  0.00  0.00    +0.066 C 
ATOM     22  C   UNL     1     -12.480  11.731  34.558  0.00  0.00    -0.064 C 
ATOM     23  N   UNL     1     -13.028  13.042  35.125  0.00  0.00    +0.379 N 
ATOM     24  C   UNL     1     -12.833  13.065  36.582  0.00  0.00    -0.096 C 
ATOM     25  H   UNL     1     -14.125  13.062  34.929  0.00  0.00    -0.082 HD
ATOM     26  C   UNL     1     -12.411  14.242  34.421  0.00  0.00    -0.064 C 
ATOM     27  C   UNL     1     -12.653  14.169  32.888  0.00  0.00    +0.066 C 
ENDBRANCH  19  20
ENDBRANCH  18  19
ENDBRANCH  14  15
ENDBRANCH  12  13
TORSDOF 6
ENDMDL
MODEL 4
REMARK VINA RESULT:      -8.9      1.431      1.789
REMARK  Name = C:\Users\Docking\Desktop\test protocol\1iep_ligandH.pdb
REMARK  8 active torsions:
REMARK  status: ('A' for Active; 'I' for Inactive)
REMARK    1  A    between atoms: _5  and  _11
REMARK    2  A    between atoms: _19  and  _21
REMARK    3  A    between atoms: _22  and  _66
REMARK    4  A    between atoms: _27  and  _30
REMARK    5  A    between atoms: _32  and  _33
REMARK    6  A    between atoms: _38  and  _43
REMARK    7  A    between atoms: _43  and  _46
REMARK    8  A    between atoms: _53  and  _55
REMARK                            x       y       z     vdW  Elec       q    Type
REMARK                         _______ _______ _______ _____ _____    ______ ____
ROOT
ATOM     10  C   UNL     1      -4.323  17.025  23.452  0.00  0.00    +0.038 A 
ATOM     11  C   UNL     1      -5.480  16.457  24.044  0.00  0.00    +0.047 A 
ATOM     12  C   UNL     1      -6.214  17.159  25.085  0.00  0.00    +0.035 A 
ATOM     32  C   UNL     1      -5.743  18.439  25.498  0.00  0.00    +0.024 A 
ATOM     33  C   UNL     1      -4.568  19.031  24.907  0.00  0.00    +0.007 A 
ATOM     34  C   UNL     1      -3.838  18.342  23.881  0.00  0.00    -0.029 A 
ATOM     35  C   UNL     1      -2.582  19.021  23.288  0.00  0.00    +0.045 C 
ENDROOT
BRANCH  10   9
ATOM      4  C   UNL     1      -3.578  15.854  18.857  0.00  0.00    +0.077 A 
ATOM      5  C   UNL     1      -4.623  16.726  18.404  0.00  0.00    +0.048 A 
ATOM      6  C   UNL     1      -5.333  17.453  19.386  0.00  0.00    +0.116 A 
ATOM      7  N   UNL     1      -5.013  17.311  20.718  0.00  0.00    -0.223 NA
ATOM      8  C   UNL     1      -4.001  16.459  21.122  0.00  0.00    +0.220 A 
ATOM      9  N   UNL     1      -3.657  16.307  22.456  0.00  0.00    -0.283 N 
ATOM     36  H   UNL     1      -2.909  15.663  22.713  0.00  0.00    +0.155 HD
ATOM     37  N   UNL     1      -3.309  15.753  20.204  0.00  0.00    -0.214 NA
BRANCH   4   3
ATOM      1  C   UNL     1      -0.943  13.304  17.494  0.00  0.00    +0.020 A 
ATOM      2  C   UNL     1      -1.729  14.084  18.422  0.00  0.00    +0.013 A 
ATOM      3  C   UNL     1      -2.736  15.022  17.940  0.00  0.00    +0.019 A 
ATOM     38  C   UNL     1      -2.925  15.146  16.503  0.00  0.00    +0.120 A 
ATOM     39  N   UNL     1      -2.152  14.382  15.633  0.00  0.00    -0.263 NA
ATOM     40  C   UNL     1      -1.179  13.478  16.085  0.00  0.00    +0.111 A 
ENDBRANCH   4   3
ENDBRANCH  10   9
BRANCH  12  13
ATOM     13  N   UNL     1      -7.390  16.629  25.729  0.00  0.00    -0.281 N 
ATOM     14  C   UNL     1      -8.239  15.636  25.267  0.00  0.00    +0.248 C 
ATOM     30  O   UNL     1      -8.236  15.200  24.126  0.00  0.00    -0.270 OA
ATOM     31  H   UNL     1      -7.626  17.035  26.634  0.00  0.00    +0.155 HD
BRANCH  14  15
ATOM     15  C   UNL     1      -9.247  15.054  26.205  0.00  0.00    +0.037 A 
ATOM     16  C   UNL     1     -10.684  15.166  25.942  0.00  0.00    +0.013 A 
ATOM     17  C   UNL     1     -11.635  14.611  26.872  0.00  0.00    +0.005 A 
ATOM     18  C   UNL     1     -11.151  13.936  28.074  0.00  0.00    -0.033 A 
ATOM     28  C   UNL     1      -9.720  13.835  28.308  0.00  0.00    +0.005 A 
ATOM     29  C   UNL     1      -8.785  14.379  27.399  0.00  0.00    +0.013 A 
BRANCH  18  19
ATOM     19  C   UNL     1     -12.094  13.333  29.132  0.00  0.00    +0.119 C 
BRANCH  19  20
ATOM     20  N   UNL     1     -11.730  13.532  30.566  0.00  0.00    -0.302 NA
ATOM     21  C   UNL     1     -12.743  12.881  31.512  0.00  0.00    +0.066 C 
ATOM     22  C   UNL     1     -12.334  13.079  33.008  0.00  0.00    -0.064 C 
ATOM     23  N   UNL     1     -12.201  14.574  33.303  0.00  0.00    +0.379 N 
ATOM     24  C   UNL     1     -11.874  14.766  34.723  0.00  0.00    -0.096 C 
ATOM     25  H   UNL     1     -13.194  15.045  33.118  0.00  0.00    -0.082 HD
ATOM     26  C   UNL     1     -11.197  15.230  32.365  0.00  0.00    -0.064 C 
ATOM     27  C   UNL     1     -11.597  15.002  30.881  0.00  0.00    +0.066 C 
ENDBRANCH  19  20
ENDBRANCH  18  19
ENDBRANCH  14  15
ENDBRANCH  12  13
TORSDOF 6
ENDMDL
MODEL 5
REMARK VINA RESULT:      -8.9      2.363     13.882
REMARK  Name = C:\Users\Docking\Desktop\test protocol\1iep_ligandH.pdb
REMARK  8 active torsions:
REMARK  status: ('A' for Active; 'I' for Inactive)
REMARK    1  A    between atoms: _5  and  _11
REMARK    2  A    between atoms: _19  and  _21
REMARK    3  A    between atoms: _22  and  _66
REMARK    4  A    between atoms: _27  and  _30
REMARK    5  A    between atoms: _32  and  _33
REMARK    6  A    between atoms: _38  and  _43
REMARK    7  A    between atoms: _43  and  _46
REMARK    8  A    between atoms: _53  and  _55
REMARK                            x       y       z     vdW  Elec       q    Type
REMARK                         _______ _______ _______ _____ _____    ______ ____
ROOT
ATOM     10  C   UNL     1     -12.096  13.608  30.448  0.00  0.00    +0.038 A 
ATOM     11  C   UNL     1     -10.912  14.090  29.834  0.00  0.00    +0.047 A 
ATOM     12  C   UNL     1     -10.969  14.979  28.684  0.00  0.00    +0.035 A 
ATOM     32  C   UNL     1     -12.249  15.359  28.186  0.00  0.00    +0.024 A 
ATOM     33  C   UNL     1     -13.463  14.877  28.797  0.00  0.00    +0.007 A 
ATOM     34  C   UNL     1     -13.413  13.998  29.930  0.00  0.00    -0.029 A 
ATOM     35  C   UNL     1     -14.747  13.508  30.541  0.00  0.00    +0.045 C 
ENDROOT
BRANCH  10   9
ATOM      4  C   UNL     1     -11.811  12.816  35.173  0.00  0.00    +0.077 A 
ATOM      5  C   UNL     1     -11.865  14.218  35.471  0.00  0.00    +0.048 A 
ATOM      6  C   UNL     1     -11.958  15.111  34.379  0.00  0.00    +0.116 A 
ATOM      7  N   UNL     1     -11.995  14.625  33.090  0.00  0.00    -0.223 NA
ATOM      8  C   UNL     1     -11.940  13.267  32.838  0.00  0.00    +0.220 A 
ATOM      9  N   UNL     1     -11.983  12.757  31.549  0.00  0.00    -0.283 N 
ATOM     36  H   UNL     1     -11.933  11.748  31.404  0.00  0.00    +0.155 HD
ATOM     37  N   UNL     1     -11.849  12.394  33.863  0.00  0.00    -0.214 NA
BRANCH   4   3
ATOM      1  C   UNL     1     -11.060  10.913  38.507  0.00  0.00    +0.020 A 
ATOM      2  C   UNL     1     -11.128  11.978  37.533  0.00  0.00    +0.013 A 
ATOM      3  C   UNL     1     -11.714  11.749  36.219  0.00  0.00    +0.019 A 
ATOM     38  C   UNL     1     -12.227  10.420  35.919  0.00  0.00    +0.120 A 
ATOM     39  N   UNL     1     -12.146   9.414  36.877  0.00  0.00    -0.263 NA
ATOM     40  C   UNL     1     -11.583   9.622  38.144  0.00  0.00    +0.111 A 
ENDBRANCH   4   3
ENDBRANCH  10   9
BRANCH  12  13
ATOM     13  N   UNL     1      -9.800  15.494  28.015  0.00  0.00    -0.281 N 
ATOM     14  C   UNL     1      -8.824  16.332  28.528  0.00  0.00    +0.248 C 
ATOM     30  O   UNL     1      -8.922  16.941  29.583  0.00  0.00    -0.270 OA
ATOM     31  H   UNL     1      -9.677  15.205  27.044  0.00  0.00    +0.155 HD
BRANCH  14  15
ATOM     15  C   UNL     1      -7.564  16.534  27.751  0.00  0.00    +0.037 A 
ATOM     16  C   UNL     1      -6.490  17.394  28.256  0.00  0.00    +0.013 A 
ATOM     17  C   UNL     1      -5.291  17.585  27.479  0.00  0.00    +0.005 A 
ATOM     18  C   UNL     1      -5.160  16.914  26.188  0.00  0.00    -0.033 A 
ATOM     28  C   UNL     1      -6.239  16.063  25.714  0.00  0.00    +0.005 A 
ATOM     29  C   UNL     1      -7.415  15.874  26.472  0.00  0.00    +0.013 A 
BRANCH  18  19
ATOM     19  C   UNL     1      -3.925  17.077  25.281  0.00  0.00    +0.119 C 
BRANCH  19  20
ATOM     20  N   UNL     1      -4.147  17.013  23.806  0.00  0.00    -0.302 NA
ATOM     21  C   UNL     1      -2.981  16.337  23.079  0.00  0.00    +0.066 C 
ATOM     22  C   UNL     1      -3.240  16.258  21.539  0.00  0.00    -0.064 C 
ATOM     23  N   UNL     1      -3.475  17.667  20.992  0.00  0.00    +0.379 N 
ATOM     24  C   UNL     1      -3.661  17.602  19.535  0.00  0.00    -0.096 C 
ATOM     25  H   UNL     1      -2.555  18.264  21.189  0.00  0.00    -0.082 HD
ATOM     26  C   UNL     1      -4.631  18.348  21.711  0.00  0.00    -0.064 C 
ATOM     27  C   UNL     1      -4.377  18.394  23.244  0.00  0.00    +0.066 C 
ENDBRANCH  19  20
ENDBRANCH  18  19
ENDBRANCH  14  15
ENDBRANCH  12  13
TORSDOF 6
ENDMDL
