MODEL 1
REMARK VINA RESULT:      -8.3      0.000      0.000
REMARK  Name = C:\Users\Docking\Desktop\test protocol\1iep_ligandH.pdb
REMARK  8 active torsions:
REMARK  status: ('A' for Active; 'I' for Inactive)
REMARK    1  A    between atoms: _5  and  _11
REMARK    2  A    between atoms: _19  and  _21
REMARK    3  A    between atoms: _22  and  _66
REMARK    4  A    between atoms: _27  and  _30
REMARK    5  A    between atoms: _32  and  _33
REMARK    6  A    between atoms: _38  and  _43
REMARK    7  A    between atoms: _43  and  _46
REMARK    8  A    between atoms: _53  and  _55
REMARK                            x       y       z     vdW  Elec       q    Type
REMARK                         _______ _______ _______ _____ _____    ______ ____
ROOT
ATOM     10  C   UNL     1      22.400   9.654  10.728  0.00  0.00    +0.038 A 
ATOM     11  C   UNL     1      21.806   9.533  12.011  0.00  0.00    +0.047 A 
ATOM     12  C   UNL     1      22.225  10.379  13.117  0.00  0.00    +0.035 A 
ATOM     32  C   UNL     1      23.251  11.341  12.881  0.00  0.00    +0.024 A 
ATOM     33  C   UNL     1      23.866  11.476  11.585  0.00  0.00    +0.007 A 
ATOM     34  C   UNL     1      23.459  10.643  10.490  0.00  0.00    -0.029 A 
ATOM     35  C   UNL     1      24.158  10.828   9.123  0.00  0.00    +0.045 C 
ENDROOT
BRANCH  10   9
ATOM      4  C   UNL     1      22.616   5.576   8.206  0.00  0.00    +0.077 A 
ATOM      5  C   UNL     1      23.719   5.086   8.981  0.00  0.00    +0.048 A 
ATOM      6  C   UNL     1      24.206   5.917  10.015  0.00  0.00    +0.116 A 
ATOM      7  N   UNL     1      23.625   7.144  10.248  0.00  0.00    -0.223 NA
ATOM      8  C   UNL     1      22.563   7.588   9.481  0.00  0.00    +0.220 A 
ATOM      9  N   UNL     1      21.959   8.816   9.702  0.00  0.00    -0.283 N 
ATOM     36  H   UNL     1      21.183   9.110   9.109  0.00  0.00    +0.155 HD
ATOM     37  N   UNL     1      22.082   6.814   8.486  0.00  0.00    -0.214 NA
BRANCH   4   3
ATOM      1  C   UNL     1      20.340   4.575   5.187  0.00  0.00    +0.020 A 
ATOM      2  C   UNL     1      20.911   5.354   6.262  0.00  0.00    +0.013 A 
ATOM      3  C   UNL     1      21.989   4.814   7.081  0.00  0.00    +0.019 A 
ATOM     38  C   UNL     1      22.470   3.473   6.783  0.00  0.00    +0.120 A 
ATOM     39  N   UNL     1      21.899   2.747   5.743  0.00  0.00    -0.263 NA
ATOM     40  C   UNL     1      20.861   3.255   4.949  0.00  0.00    +0.111 A 
ENDBRANCH   4   3
ENDBRANCH  10   9
BRANCH  12  13
ATOM     13  N   UNL     1      21.664  10.296  14.443  0.00  0.00    -0.281 N 
ATOM     14  C   UNL     1      20.952  11.267  15.128  0.00  0.00    +0.248 C 
ATOM     30  O   UNL     1      20.872  12.437  14.785  0.00  0.00    -0.270 OA
ATOM     31  H   UNL     1      21.810   9.415  14.936  0.00  0.00    +0.155 HD
BRANCH  14  15
ATOM     15  C   UNL     1      20.237  10.885  16.384  0.00  0.00    +0.037 A 
ATOM     16  C   UNL     1      20.413   9.562  16.987  0.00  0.00    +0.013 A 
ATOM     17  C   UNL     1      19.698   9.213  18.189  0.00  0.00    +0.005 A 
ATOM     18  C   UNL     1      18.800  10.192  18.797  0.00  0.00    -0.033 A 
ATOM     28  C   UNL     1      18.648  11.500  18.181  0.00  0.00    +0.005 A 
ATOM     29  C   UNL     1      19.346  11.844  17.002  0.00  0.00    +0.013 A 
BRANCH  18  19
ATOM     19  C   UNL     1      17.981   9.899  20.068  0.00  0.00    +0.119 C 
BRANCH  19  20
ATOM     20  N   UNL     1      17.193   8.631  20.097  0.00  0.00    -0.302 NA
ATOM     21  C   UNL     1      16.138   8.584  18.989  0.00  0.00    +0.066 C 
ATOM     22  C   UNL     1      15.339   7.241  19.019  0.00  0.00    -0.064 C 
ATOM     23  N   UNL     1      14.689   7.068  20.394  0.00  0.00    +0.379 N 
ATOM     24  C   UNL     1      13.890   5.835  20.407  0.00  0.00    -0.096 C 
ATOM     25  H   UNL     1      13.993   7.925  20.548  0.00  0.00    -0.082 HD
ATOM     26  C   UNL     1      15.732   7.116  21.502  0.00  0.00    -0.064 C 
ATOM     27  C   UNL     1      16.540   8.442  21.444  0.00  0.00    +0.066 C 
ENDBRANCH  19  20
ENDBRANCH  18  19
ENDBRANCH  14  15
ENDBRANCH  12  13
TORSDOF 6
ENDMDL
MODEL 2
REMARK VINA RESULT:      -8.0      2.501      3.387
REMARK  Name = C:\Users\Docking\Desktop\test protocol\1iep_ligandH.pdb
REMARK  8 active torsions:
REMARK  status: ('A' for Active; 'I' for Inactive)
REMARK    1  A    between atoms: _5  and  _11
REMARK    2  A    between atoms: _19  and  _21
REMARK    3  A    between atoms: _22  and  _66
REMARK    4  A    between atoms: _27  and  _30
REMARK    5  A    between atoms: _32  and  _33
REMARK    6  A    between atoms: _38  and  _43
REMARK    7  A    between atoms: _43  and  _46
REMARK    8  A    between atoms: _53  and  _55
REMARK                            x       y       z     vdW  Elec       q    Type
REMARK                         _______ _______ _______ _____ _____    ______ ____
ROOT
ATOM     10  C   UNL     1      22.319   9.623  10.635  0.00  0.00    +0.038 A 
ATOM     11  C   UNL     1      21.631   9.566  11.874  0.00  0.00    +0.047 A 
ATOM     12  C   UNL     1      22.016  10.417  12.989  0.00  0.00    +0.035 A 
ATOM     32  C   UNL     1      23.106  11.318  12.807  0.00  0.00    +0.024 A 
ATOM     33  C   UNL     1      23.817  11.388  11.555  0.00  0.00    +0.007 A 
ATOM     34  C   UNL     1      23.443  10.549  10.452  0.00  0.00    -0.029 A 
ATOM     35  C   UNL     1      24.246  10.663   9.135  0.00  0.00    +0.045 C 
ENDROOT
BRANCH  10   9
ATOM      4  C   UNL     1      22.606   5.541   8.128  0.00  0.00    +0.077 A 
ATOM      5  C   UNL     1      23.686   5.051   8.935  0.00  0.00    +0.048 A 
ATOM      6  C   UNL     1      24.143   5.884   9.981  0.00  0.00    +0.116 A 
ATOM      7  N   UNL     1      23.556   7.112  10.195  0.00  0.00    -0.223 NA
ATOM      8  C   UNL     1      22.517   7.555   9.397  0.00  0.00    +0.220 A 
ATOM      9  N   UNL     1      21.907   8.783   9.599  0.00  0.00    -0.283 N 
ATOM     36  H   UNL     1      21.149   9.076   8.983  0.00  0.00    +0.155 HD
ATOM     37  N   UNL     1      22.064   6.779   8.391  0.00  0.00    -0.214 NA
BRANCH   4   3
ATOM      1  C   UNL     1      20.333   4.481   5.126  0.00  0.00    +0.020 A 
ATOM      2  C   UNL     1      20.870   5.259   6.219  0.00  0.00    +0.013 A 
ATOM      3  C   UNL     1      22.010   4.776   6.987  0.00  0.00    +0.019 A 
ATOM     38  C   UNL     1      22.589   3.492   6.621  0.00  0.00    +0.120 A 
ATOM     39  N   UNL     1      22.050   2.764   5.564  0.00  0.00    -0.263 NA
ATOM     40  C   UNL     1      20.952   3.219   4.819  0.00  0.00    +0.111 A 
ENDBRANCH   4   3
ENDBRANCH  10   9
BRANCH  12  13
ATOM     13  N   UNL     1      21.359  10.397  14.273  0.00  0.00    -0.281 N 
ATOM     14  C   UNL     1      21.913  10.103  15.508  0.00  0.00    +0.248 C 
ATOM     30  O   UNL     1      23.016   9.602  15.669  0.00  0.00    -0.270 OA
ATOM     31  H   UNL     1      20.366  10.628  14.271  0.00  0.00    +0.155 HD
BRANCH  14  15
ATOM     15  C   UNL     1      21.122  10.396  16.742  0.00  0.00    +0.037 A 
ATOM     16  C   UNL     1      19.835  11.093  16.672  0.00  0.00    +0.013 A 
ATOM     17  C   UNL     1      19.101  11.377  17.880  0.00  0.00    +0.005 A 
ATOM     18  C   UNL     1      19.651  10.962  19.168  0.00  0.00    -0.033 A 
ATOM     28  C   UNL     1      20.927  10.267  19.207  0.00  0.00    +0.005 A 
ATOM     29  C   UNL     1      21.651   9.988  18.026  0.00  0.00    +0.013 A 
BRANCH  18  19
ATOM     19  C   UNL     1      18.946  11.243  20.508  0.00  0.00    +0.119 C 
BRANCH  19  20
ATOM     20  N   UNL     1      18.161  12.509  20.616  0.00  0.00    -0.302 NA
ATOM     21  C   UNL     1      19.066  13.735  20.763  0.00  0.00    +0.066 C 
ATOM     22  C   UNL     1      18.228  15.053  20.852  0.00  0.00    -0.064 C 
ATOM     23  N   UNL     1      17.252  14.955  22.026  0.00  0.00    +0.379 N 
ATOM     24  C   UNL     1      16.504  16.215  22.147  0.00  0.00    -0.096 C 
ATOM     25  H   UNL     1      17.854  14.828  22.955  0.00  0.00    -0.082 HD
ATOM     26  C   UNL     1      16.351  13.737  21.889  0.00  0.00    -0.064 C 
ATOM     27  C   UNL     1      17.194  12.436  21.771  0.00  0.00    +0.066 C 
ENDBRANCH  19  20
ENDBRANCH  18  19
ENDBRANCH  14  15
ENDBRANCH  12  13
TORSDOF 6
ENDMDL
MODEL 3
REMARK VINA RESULT:      -7.8      2.304     12.139
REMARK  Name = C:\Users\Docking\Desktop\test protocol\1iep_ligandH.pdb
REMARK  8 active torsions:
REMARK  status: ('A' for Active; 'I' for Inactive)
REMARK    1  A    between atoms: _5  and  _11
REMARK    2  A    between atoms: _19  and  _21
REMARK    3  A    between atoms: _22  and  _66
REMARK    4  A    between atoms: _27  and  _30
REMARK    5  A    between atoms: _32  and  _33
REMARK    6  A    between atoms: _38  and  _43
REMARK    7  A    between atoms: _43  and  _46
REMARK    8  A    between atoms: _53  and  _55
REMARK                            x       y       z     vdW  Elec       q    Type
REMARK                         _______ _______ _______ _____ _____    ______ ____
ROOT
ATOM     10  C   UNL     1      17.299  11.150  20.217  0.00  0.00    +0.038 A 
ATOM     11  C   UNL     1      18.169  10.942  19.117  0.00  0.00    +0.047 A 
ATOM     12  C   UNL     1      18.504  12.027  18.207  0.00  0.00    +0.035 A 
ATOM     32  C   UNL     1      17.937  13.312  18.449  0.00  0.00    +0.024 A 
ATOM     33  C   UNL     1      17.049  13.540  19.562  0.00  0.00    +0.007 A 
ATOM     34  C   UNL     1      16.713  12.474  20.461  0.00  0.00    -0.029 A 
ATOM     35  C   UNL     1      15.751  12.775  21.634  0.00  0.00    +0.045 C 
ENDROOT
BRANCH  10   9
ATOM      4  C   UNL     1      15.491   6.779  21.031  0.00  0.00    +0.077 A 
ATOM      5  C   UNL     1      15.059   6.640  19.670  0.00  0.00    +0.048 A 
ATOM      6  C   UNL     1      15.315   7.719  18.794  0.00  0.00    +0.116 A 
ATOM      7  N   UNL     1      15.956   8.848  19.256  0.00  0.00    -0.223 NA
ATOM      8  C   UNL     1      16.358   8.950  20.575  0.00  0.00    +0.220 A 
ATOM      9  N   UNL     1      17.011  10.073  21.059  0.00  0.00    -0.283 N 
ATOM     36  H   UNL     1      17.285  10.113  22.040  0.00  0.00    +0.155 HD
ATOM     37  N   UNL     1      16.124   7.934  21.431  0.00  0.00    -0.214 NA
BRANCH   4   3
ATOM      1  C   UNL     1      14.310   3.557  22.907  0.00  0.00    +0.020 A 
ATOM      2  C   UNL     1      14.464   4.546  21.866  0.00  0.00    +0.013 A 
ATOM      3  C   UNL     1      15.296   5.724  22.075  0.00  0.00    +0.019 A 
ATOM     38  C   UNL     1      15.964   5.872  23.360  0.00  0.00    +0.120 A 
ATOM     39  N   UNL     1      15.795   4.904  24.344  0.00  0.00    -0.263 NA
ATOM     40  C   UNL     1      14.996   3.767  24.155  0.00  0.00    +0.111 A 
ENDBRANCH   4   3
ENDBRANCH  10   9
BRANCH  12  13
ATOM     13  N   UNL     1      19.376  11.874  17.068  0.00  0.00    -0.281 N 
ATOM     14  C   UNL     1      20.703  11.476  17.059  0.00  0.00    +0.248 C 
ATOM     30  O   UNL     1      21.407  11.397  18.054  0.00  0.00    -0.270 OA
ATOM     31  H   UNL     1      18.964  12.084  16.159  0.00  0.00    +0.155 HD
BRANCH  14  15
ATOM     15  C   UNL     1      21.344  11.130  15.754  0.00  0.00    +0.037 A 
ATOM     16  C   UNL     1      21.963   9.821  15.535  0.00  0.00    +0.013 A 
ATOM     17  C   UNL     1      22.590   9.519  14.272  0.00  0.00    +0.005 A 
ATOM     18  C   UNL     1      22.598  10.530  13.217  0.00  0.00    -0.033 A 
ATOM     28  C   UNL     1      21.972  11.819  13.460  0.00  0.00    +0.005 A 
ATOM     29  C   UNL     1      21.358  12.119  14.697  0.00  0.00    +0.013 A 
BRANCH  18  19
ATOM     19  C   UNL     1      23.262  10.303  11.846  0.00  0.00    +0.119 C 
BRANCH  19  20
ATOM     20  N   UNL     1      23.422   8.890  11.390  0.00  0.00    -0.302 NA
ATOM     21  C   UNL     1      24.562   8.739  10.379  0.00  0.00    +0.066 C 
ATOM     22  C   UNL     1      24.730   7.251   9.929  0.00  0.00    -0.064 C 
ATOM     23  N   UNL     1      23.411   6.748   9.338  0.00  0.00    +0.379 N 
ATOM     24  C   UNL     1      23.582   5.368   8.861  0.00  0.00    -0.096 C 
ATOM     25  H   UNL     1      23.173   7.384   8.454  0.00  0.00    -0.082 HD
ATOM     26  C   UNL     1      22.272   6.898  10.336  0.00  0.00    -0.064 C 
ATOM     27  C   UNL     1      22.133   8.375  10.799  0.00  0.00    +0.066 C 
ENDBRANCH  19  20
ENDBRANCH  18  19
ENDBRANCH  14  15
ENDBRANCH  12  13
TORSDOF 6
ENDMDL
MODEL 4
REMARK VINA RESULT:      -7.7     10.022     14.157
REMARK  Name = C:\Users\Docking\Desktop\test protocol\1iep_ligandH.pdb
REMARK  8 active torsions:
REMARK  status: ('A' for Active; 'I' for Inactive)
REMARK    1  A    between atoms: _5  and  _11
REMARK    2  A    between atoms: _19  and  _21
REMARK    3  A    between atoms: _22  and  _66
REMARK    4  A    between atoms: _27  and  _30
REMARK    5  A    between atoms: _32  and  _33
REMARK    6  A    between atoms: _38  and  _43
REMARK    7  A    between atoms: _43  and  _46
REMARK    8  A    between atoms: _53  and  _55
REMARK                            x       y       z     vdW  Elec       q    Type
REMARK                         _______ _______ _______ _____ _____    ______ ____
ROOT
ATOM     10  C   UNL     1      17.647  13.148  20.730  0.00  0.00    +0.038 A 
ATOM     11  C   UNL     1      16.871  12.012  21.072  0.00  0.00    +0.047 A 
ATOM     12  C   UNL     1      17.439  10.673  21.035  0.00  0.00    +0.035 A 
ATOM     32  C   UNL     1      18.803  10.529  20.649  0.00  0.00    +0.024 A 
ATOM     33  C   UNL     1      19.607  11.673  20.297  0.00  0.00    +0.007 A 
ATOM     34  C   UNL     1      19.051  12.995  20.328  0.00  0.00    -0.029 A 
ATOM     35  C   UNL     1      19.958  14.185  19.935  0.00  0.00    +0.045 C 
ENDROOT
BRANCH  10   9
ATOM      4  C   UNL     1      16.342  17.118  23.090  0.00  0.00    +0.077 A 
ATOM      5  C   UNL     1      16.869  16.625  24.330  0.00  0.00    +0.048 A 
ATOM      6  C   UNL     1      17.461  15.343  24.319  0.00  0.00    +0.116 A 
ATOM      7  N   UNL     1      17.518  14.616  23.150  0.00  0.00    -0.223 NA
ATOM      8  C   UNL     1      16.998  15.120  21.972  0.00  0.00    +0.220 A 
ATOM      9  N   UNL     1      17.051  14.410  20.782  0.00  0.00    -0.283 N 
ATOM     36  H   UNL     1      16.650  14.813  19.936  0.00  0.00    +0.155 HD
ATOM     37  N   UNL     1      16.426  16.342  21.956  0.00  0.00    -0.214 NA
BRANCH   4   3
ATOM      1  C   UNL     1      15.265  20.611  21.698  0.00  0.00    +0.020 A 
ATOM      2  C   UNL     1      15.921  19.328  21.795  0.00  0.00    +0.013 A 
ATOM      3  C   UNL     1      15.688  18.457  22.940  0.00  0.00    +0.019 A 
ATOM     38  C   UNL     1      14.777  18.917  23.977  0.00  0.00    +0.120 A 
ATOM     39  N   UNL     1      14.160  20.158  23.857  0.00  0.00    -0.263 NA
ATOM     40  C   UNL     1      14.378  21.006  22.761  0.00  0.00    +0.111 A 
ENDBRANCH   4   3
ENDBRANCH  10   9
BRANCH  12  13
ATOM     13  N   UNL     1      16.697   9.481  21.364  0.00  0.00    -0.281 N 
ATOM     14  C   UNL     1      16.082   8.595  20.495  0.00  0.00    +0.248 C 
ATOM     30  O   UNL     1      15.894   8.809  19.307  0.00  0.00    -0.270 OA
ATOM     31  H   UNL     1      16.615   9.265  22.357  0.00  0.00    +0.155 HD
BRANCH  14  15
ATOM     15  C   UNL     1      15.591   7.287  21.027  0.00  0.00    +0.037 A 
ATOM     16  C   UNL     1      14.573   6.511  20.314  0.00  0.00    +0.013 A 
ATOM     17  C   UNL     1      14.105   5.260  20.857  0.00  0.00    +0.005 A 
ATOM     18  C   UNL     1      14.657   4.777  22.121  0.00  0.00    -0.033 A 
ATOM     28  C   UNL     1      15.669   5.564  22.804  0.00  0.00    +0.005 A 
ATOM     29  C   UNL     1      16.130   6.791  22.275  0.00  0.00    +0.013 A 
BRANCH  18  19
ATOM     19  C   UNL     1      14.201   3.464  22.785  0.00  0.00    +0.119 C 
BRANCH  19  20
ATOM     20  N   UNL     1      14.507   3.290  24.236  0.00  0.00    -0.302 NA
ATOM     21  C   UNL     1      14.882   1.844  24.574  0.00  0.00    +0.066 C 
ATOM     22  C   UNL     1      15.222   1.684  26.092  0.00  0.00    -0.064 C 
ATOM     23  N   UNL     1      14.027   2.144  26.930  0.00  0.00    +0.379 N 
ATOM     24  C   UNL     1      14.321   1.941  28.356  0.00  0.00    -0.096 C 
ATOM     25  H   UNL     1      13.160   1.495  26.667  0.00  0.00    -0.082 HD
ATOM     26  C   UNL     1      13.646   3.580  26.598  0.00  0.00    -0.064 C 
ATOM     27  C   UNL     1      13.339   3.734  25.082  0.00  0.00    +0.066 C 
ENDBRANCH  19  20
ENDBRANCH  18  19
ENDBRANCH  14  15
ENDBRANCH  12  13
TORSDOF 6
ENDMDL
MODEL 5
REMARK VINA RESULT:      -7.6      4.407     13.131
REMARK  Name = C:\Users\Docking\Desktop\test protocol\1iep_ligandH.pdb
REMARK  8 active torsions:
REMARK  status: ('A' for Active; 'I' for Inactive)
REMARK    1  A    between atoms: _5  and  _11
REMARK    2  A    between atoms: _19  and  _21
REMARK    3  A    between atoms: _22  and  _66
REMARK    4  A    between atoms: _27  and  _30
REMARK    5  A    between atoms: _32  and  _33
REMARK    6  A    between atoms: _38  and  _43
REMARK    7  A    between atoms: _43  and  _46
REMARK    8  A    between atoms: _53  and  _55
REMARK                            x       y       z     vdW  Elec       q    Type
REMARK                         _______ _______ _______ _____ _____    ______ ____
ROOT
ATOM     10  C   UNL     1      24.311   7.237  11.647  0.00  0.00    +0.038 A 
ATOM     11  C   UNL     1      23.626   6.564  10.604  0.00  0.00    +0.047 A 
ATOM     12  C   UNL     1      24.337   5.706   9.668  0.00  0.00    +0.035 A 
ATOM     32  C   UNL     1      25.746   5.555   9.827  0.00  0.00    +0.024 A 
ATOM     33  C   UNL     1      26.458   6.233  10.881  0.00  0.00    +0.007 A 
ATOM     34  C   UNL     1      25.762   7.083  11.805  0.00  0.00    -0.029 A 
ATOM     35  C   UNL     1      26.577   7.790  12.913  0.00  0.00    +0.045 C 
ENDROOT
BRANCH  10   9
ATOM      4  C   UNL     1      22.283  11.423  12.834  0.00  0.00    +0.077 A 
ATOM      5  C   UNL     1      22.745  12.055  11.632  0.00  0.00    +0.048 A 
ATOM      6  C   UNL     1      23.507  11.270  10.737  0.00  0.00    +0.116 A 
ATOM      7  N   UNL     1      23.781   9.952  11.034  0.00  0.00    -0.223 NA
ATOM      8  C   UNL     1      23.322   9.374  12.203  0.00  0.00    +0.220 A 
ATOM      9  N   UNL     1      23.578   8.048  12.517  0.00  0.00    -0.283 N 
ATOM     36  H   UNL     1      23.228   7.661  13.393  0.00  0.00    +0.155 HD
ATOM     37  N   UNL     1      22.593  10.103  13.074  0.00  0.00    -0.214 NA
BRANCH   4   3
ATOM      1  C   UNL     1      19.741  12.143  15.719  0.00  0.00    +0.020 A 
ATOM      2  C   UNL     1      20.508  11.423  14.727  0.00  0.00    +0.013 A 
ATOM      3  C   UNL     1      21.464  12.119  13.875  0.00  0.00    +0.019 A 
ATOM     38  C   UNL     1      21.622  13.555  14.054  0.00  0.00    +0.120 A 
ATOM     39  N   UNL     1      20.870  14.221  15.015  0.00  0.00    -0.263 NA
ATOM     40  C   UNL     1      19.946  13.563  15.840  0.00  0.00    +0.111 A 
ENDBRANCH   4   3
ENDBRANCH  10   9
BRANCH  12  13
ATOM     13  N   UNL     1      23.697   5.003   8.584  0.00  0.00    -0.281 N 
ATOM     14  C   UNL     1      22.365   5.051   8.207  0.00  0.00    +0.248 C 
ATOM     30  O   UNL     1      21.473   5.545   8.881  0.00  0.00    -0.270 OA
ATOM     31  H   UNL     1      24.299   4.396   8.028  0.00  0.00    +0.155 HD
BRANCH  14  15
ATOM     15  C   UNL     1      21.963   4.451   6.898  0.00  0.00    +0.037 A 
ATOM     16  C   UNL     1      22.598   3.230   6.395  0.00  0.00    +0.013 A 
ATOM     17  C   UNL     1      22.203   2.682   5.122  0.00  0.00    +0.005 A 
ATOM     18  C   UNL     1      21.166   3.355   4.343  0.00  0.00    -0.033 A 
ATOM     28  C   UNL     1      20.550   4.562   4.868  0.00  0.00    +0.005 A 
ATOM     29  C   UNL     1      20.935   5.103   6.115  0.00  0.00    +0.013 A 
BRANCH  18  19
ATOM     19  C   UNL     1      20.698   2.853   2.964  0.00  0.00    +0.119 C 
BRANCH  19  20
ATOM     20  N   UNL     1      21.359   1.629   2.421  0.00  0.00    -0.302 NA
ATOM     21  C   UNL     1      22.589   1.968   1.575  0.00  0.00    +0.066 C 
ATOM     22  C   UNL     1      23.282   0.675   1.034  0.00  0.00    -0.064 C 
ATOM     23  N   UNL     1      22.273  -0.138   0.221  0.00  0.00    +0.379 N 
ATOM     24  C   UNL     1      22.937  -1.325  -0.338  0.00  0.00    -0.096 C 
ATOM     25  H   UNL     1      21.937   0.495  -0.633  0.00  0.00    -0.082 HD
ATOM     26  C   UNL     1      21.045  -0.478   1.055  0.00  0.00    -0.064 C 
ATOM     27  C   UNL     1      20.382   0.813   1.612  0.00  0.00    +0.066 C 
ENDBRANCH  19  20
ENDBRANCH  18  19
ENDBRANCH  14  15
ENDBRANCH  12  13
TORSDOF 6
ENDMDL
