MODEL 1
REMARK VINA RESULT:      -8.2      0.000      0.000
REMARK  Name = C:\Users\Docking\Desktop\test protocol\1iep_ligandH.pdb
REMARK  8 active torsions:
REMARK  status: ('A' for Active; 'I' for Inactive)
REMARK    1  A    between atoms: _5  and  _11
REMARK    2  A    between atoms: _19  and  _21
REMARK    3  A    between atoms: _22  and  _66
REMARK    4  A    between atoms: _27  and  _30
REMARK    5  A    between atoms: _32  and  _33
REMARK    6  A    between atoms: _38  and  _43
REMARK    7  A    between atoms: _43  and  _46
REMARK    8  A    between atoms: _53  and  _55
REMARK                            x       y       z     vdW  Elec       q    Type
REMARK                         _______ _______ _______ _____ _____    ______ ____
ROOT
ATOM     10  C   UNL     1      22.479   9.778  10.647  0.00  0.00    +0.038 A 
ATOM     11  C   UNL     1      21.918   9.658  11.945  0.00  0.00    +0.047 A 
ATOM     12  C   UNL     1      22.356  10.514  13.036  0.00  0.00    +0.035 A 
ATOM     32  C   UNL     1      23.366  11.484  12.770  0.00  0.00    +0.024 A 
ATOM     33  C   UNL     1      23.947  11.619  11.457  0.00  0.00    +0.007 A 
ATOM     34  C   UNL     1      23.521  10.775  10.378  0.00  0.00    -0.029 A 
ATOM     35  C   UNL     1      24.184  10.960   8.993  0.00  0.00    +0.045 C 
ENDROOT
BRANCH  10   9
ATOM      4  C   UNL     1      22.704   5.710   8.110  0.00  0.00    +0.077 A 
ATOM      5  C   UNL     1      23.848   5.247   8.842  0.00  0.00    +0.048 A 
ATOM      6  C   UNL     1      24.351   6.089   9.859  0.00  0.00    +0.116 A 
ATOM      7  N   UNL     1      23.748   7.301  10.116  0.00  0.00    -0.223 NA
ATOM      8  C   UNL     1      22.648   7.718   9.390  0.00  0.00    +0.220 A 
ATOM      9  N   UNL     1      22.021   8.929   9.637  0.00  0.00    -0.283 N 
ATOM     36  H   UNL     1      21.216   9.204   9.074  0.00  0.00    +0.155 HD
ATOM     37  N   UNL     1      22.149   6.933   8.413  0.00  0.00    -0.214 NA
BRANCH   4   3
ATOM      1  C   UNL     1      20.359   4.664   5.159  0.00  0.00    +0.020 A 
ATOM      2  C   UNL     1      20.951   5.456   6.212  0.00  0.00    +0.013 A 
ATOM      3  C   UNL     1      22.054   4.932   7.008  0.00  0.00    +0.019 A 
ATOM     38  C   UNL     1      22.539   3.593   6.709  0.00  0.00    +0.120 A 
ATOM     39  N   UNL     1      21.948   2.853   5.689  0.00  0.00    -0.263 NA
ATOM     40  C   UNL     1      20.885   3.346   4.919  0.00  0.00    +0.111 A 
ENDBRANCH   4   3
ENDBRANCH  10   9
BRANCH  12  13
ATOM     13  N   UNL     1      21.830  10.432  14.376  0.00  0.00    -0.281 N 
ATOM     14  C   UNL     1      21.082  11.380  15.056  0.00  0.00    +0.248 C 
ATOM     30  O   UNL     1      20.933  12.536  14.689  0.00  0.00    -0.270 OA
ATOM     31  H   UNL     1      22.033   9.572  14.885  0.00  0.00    +0.155 HD
BRANCH  14  15
ATOM     15  C   UNL     1      20.415  10.991  16.335  0.00  0.00    +0.037 A 
ATOM     16  C   UNL     1      19.441  11.872  16.983  0.00  0.00    +0.013 A 
ATOM     17  C   UNL     1      18.825  11.480  18.226  0.00  0.00    +0.005 A 
ATOM     18  C   UNL     1      19.181  10.198  18.829  0.00  0.00    -0.033 A 
ATOM     28  C   UNL     1      20.147   9.340  18.162  0.00  0.00    +0.005 A 
ATOM     29  C   UNL     1      20.753   9.722  16.944  0.00  0.00    +0.013 A 
BRANCH  18  19
ATOM     19  C   UNL     1      18.590   9.708  20.164  0.00  0.00    +0.119 C 
BRANCH  19  20
ATOM     20  N   UNL     1      17.791   8.446  20.136  0.00  0.00    -0.302 NA
ATOM     21  C   UNL     1      16.509   8.560  20.965  0.00  0.00    +0.066 C 
ATOM     22  C   UNL     1      15.674   7.239  20.906  0.00  0.00    -0.064 C 
ATOM     23  N   UNL     1      16.535   6.073  21.397  0.00  0.00    +0.379 N 
ATOM     24  C   UNL     1      15.735   4.840  21.398  0.00  0.00    -0.096 C 
ATOM     25  H   UNL     1      16.826   6.289  22.451  0.00  0.00    -0.082 HD
ATOM     26  C   UNL     1      17.814   5.955  20.580  0.00  0.00    -0.064 C 
ATOM     27  C   UNL     1      18.621   7.283  20.621  0.00  0.00    +0.066 C 
ENDBRANCH  19  20
ENDBRANCH  18  19
ENDBRANCH  14  15
ENDBRANCH  12  13
TORSDOF 6
ENDMDL
MODEL 2
REMARK VINA RESULT:      -8.1      2.397      3.319
REMARK  Name = C:\Users\Docking\Desktop\test protocol\1iep_ligandH.pdb
REMARK  8 active torsions:
REMARK  status: ('A' for Active; 'I' for Inactive)
REMARK    1  A    between atoms: _5  and  _11
REMARK    2  A    between atoms: _19  and  _21
REMARK    3  A    between atoms: _22  and  _66
REMARK    4  A    between atoms: _27  and  _30
REMARK    5  A    between atoms: _32  and  _33
REMARK    6  A    between atoms: _38  and  _43
REMARK    7  A    between atoms: _43  and  _46
REMARK    8  A    between atoms: _53  and  _55
REMARK                            x       y       z     vdW  Elec       q    Type
REMARK                         _______ _______ _______ _____ _____    ______ ____
ROOT
ATOM     10  C   UNL     1      22.492   9.660  10.520  0.00  0.00    +0.038 A 
ATOM     11  C   UNL     1      21.844   9.581  11.779  0.00  0.00    +0.047 A 
ATOM     12  C   UNL     1      22.235  10.446  12.882  0.00  0.00    +0.035 A 
ATOM     32  C   UNL     1      23.289  11.381  12.666  0.00  0.00    +0.024 A 
ATOM     33  C   UNL     1      23.959  11.473  11.393  0.00  0.00    +0.007 A 
ATOM     34  C   UNL     1      23.579  10.622  10.302  0.00  0.00    -0.029 A 
ATOM     35  C   UNL     1      24.337  10.760   8.961  0.00  0.00    +0.045 C 
ENDROOT
BRANCH  10   9
ATOM      4  C   UNL     1      22.807   5.569   8.030  0.00  0.00    +0.077 A 
ATOM      5  C   UNL     1      23.912   5.105   8.819  0.00  0.00    +0.048 A 
ATOM      6  C   UNL     1      24.374   5.952   9.851  0.00  0.00    +0.116 A 
ATOM      7  N   UNL     1      23.768   7.170  10.069  0.00  0.00    -0.223 NA
ATOM      8  C   UNL     1      22.705   7.588   9.289  0.00  0.00    +0.220 A 
ATOM      9  N   UNL     1      22.075   8.806   9.496  0.00  0.00    -0.283 N 
ATOM     36  H   UNL     1      21.300   9.081   8.894  0.00  0.00    +0.155 HD
ATOM     37  N   UNL     1      22.247   6.798   8.296  0.00  0.00    -0.214 NA
BRANCH   4   3
ATOM      1  C   UNL     1      22.224   2.898   5.232  0.00  0.00    +0.020 A 
ATOM      2  C   UNL     1      22.850   3.619   6.317  0.00  0.00    +0.013 A 
ATOM      3  C   UNL     1      22.204   4.786   6.905  0.00  0.00    +0.019 A 
ATOM     38  C   UNL     1      20.916   5.199   6.370  0.00  0.00    +0.120 A 
ATOM     39  N   UNL     1      20.338   4.486   5.324  0.00  0.00    -0.263 NA
ATOM     40  C   UNL     1      20.951   3.363   4.749  0.00  0.00    +0.111 A 
ENDBRANCH   4   3
ENDBRANCH  10   9
BRANCH  12  13
ATOM     13  N   UNL     1      21.619  10.406  14.185  0.00  0.00    -0.281 N 
ATOM     14  C   UNL     1      22.052   9.725  15.311  0.00  0.00    +0.248 C 
ATOM     30  O   UNL     1      22.925   8.871  15.309  0.00  0.00    -0.270 OA
ATOM     31  H   UNL     1      20.759  10.944  14.290  0.00  0.00    +0.155 HD
BRANCH  14  15
ATOM     15  C   UNL     1      21.413  10.028  16.628  0.00  0.00    +0.037 A 
ATOM     16  C   UNL     1      21.909   9.428  17.869  0.00  0.00    +0.013 A 
ATOM     17  C   UNL     1      21.263   9.723  19.124  0.00  0.00    +0.005 A 
ATOM     18  C   UNL     1      20.114  10.625  19.143  0.00  0.00    -0.033 A 
ATOM     28  C   UNL     1      19.646  11.211  17.897  0.00  0.00    +0.005 A 
ATOM     29  C   UNL     1      20.276  10.923  16.666  0.00  0.00    +0.013 A 
BRANCH  18  19
ATOM     19  C   UNL     1      19.350  10.980  20.432  0.00  0.00    +0.119 C 
BRANCH  19  20
ATOM     20  N   UNL     1      18.365  12.099  20.358  0.00  0.00    -0.302 NA
ATOM     21  C   UNL     1      18.656  13.191  21.391  0.00  0.00    +0.066 C 
ATOM     22  C   UNL     1      17.629  14.365  21.284  0.00  0.00    -0.064 C 
ATOM     23  N   UNL     1      16.212  13.817  21.460  0.00  0.00    +0.379 N 
ATOM     24  C   UNL     1      15.248  14.926  21.417  0.00  0.00    -0.096 C 
ATOM     25  H   UNL     1      16.151  13.354  22.473  0.00  0.00    -0.082 HD
ATOM     26  C   UNL     1      15.915  12.729  20.438  0.00  0.00    -0.064 C 
ATOM     27  C   UNL     1      16.959  11.581  20.533  0.00  0.00    +0.066 C 
ENDBRANCH  19  20
ENDBRANCH  18  19
ENDBRANCH  14  15
ENDBRANCH  12  13
TORSDOF 6
ENDMDL
MODEL 3
REMARK VINA RESULT:      -8.1      2.692      3.132
REMARK  Name = C:\Users\Docking\Desktop\test protocol\1iep_ligandH.pdb
REMARK  8 active torsions:
REMARK  status: ('A' for Active; 'I' for Inactive)
REMARK    1  A    between atoms: _5  and  _11
REMARK    2  A    between atoms: _19  and  _21
REMARK    3  A    between atoms: _22  and  _66
REMARK    4  A    between atoms: _27  and  _30
REMARK    5  A    between atoms: _32  and  _33
REMARK    6  A    between atoms: _38  and  _43
REMARK    7  A    between atoms: _43  and  _46
REMARK    8  A    between atoms: _53  and  _55
REMARK                            x       y       z     vdW  Elec       q    Type
REMARK                         _______ _______ _______ _____ _____    ______ ____
ROOT
ATOM     10  C   UNL     1      22.780   9.271  10.385  0.00  0.00    +0.038 A 
ATOM     11  C   UNL     1      21.872   9.593  11.426  0.00  0.00    +0.047 A 
ATOM     12  C   UNL     1      22.293  10.375  12.577  0.00  0.00    +0.035 A 
ATOM     32  C   UNL     1      23.647  10.815  12.636  0.00  0.00    +0.024 A 
ATOM     33  C   UNL     1      24.585  10.496  11.588  0.00  0.00    +0.007 A 
ATOM     34  C   UNL     1      24.175   9.723  10.451  0.00  0.00    -0.029 A 
ATOM     35  C   UNL     1      25.225   9.405   9.360  0.00  0.00    +0.045 C 
ENDROOT
BRANCH  10   9
ATOM      4  C   UNL     1      22.710   5.262   7.746  0.00  0.00    +0.077 A 
ATOM      5  C   UNL     1      23.689   4.626   8.580  0.00  0.00    +0.048 A 
ATOM      6  C   UNL     1      24.191   5.367   9.673  0.00  0.00    +0.116 A 
ATOM      7  N   UNL     1      23.740   6.648   9.906  0.00  0.00    -0.223 NA
ATOM      8  C   UNL     1      22.796   7.233   9.082  0.00  0.00    +0.220 A 
ATOM      9  N   UNL     1      22.322   8.517   9.303  0.00  0.00    -0.283 N 
ATOM     36  H   UNL     1      21.631   8.915   8.668  0.00  0.00    +0.155 HD
ATOM     37  N   UNL     1      22.302   6.546   8.031  0.00  0.00    -0.214 NA
BRANCH   4   3
ATOM      1  C   UNL     1      20.377   4.506   4.699  0.00  0.00    +0.020 A 
ATOM      2  C   UNL     1      20.946   5.179   5.844  0.00  0.00    +0.013 A 
ATOM      3  C   UNL     1      22.082   4.607   6.555  0.00  0.00    +0.019 A 
ATOM     38  C   UNL     1      22.625   3.345   6.077  0.00  0.00    +0.120 A 
ATOM     39  N   UNL     1      22.057   2.719   4.972  0.00  0.00    -0.263 NA
ATOM     40  C   UNL     1      20.961   3.259   4.281  0.00  0.00    +0.111 A 
ENDBRANCH   4   3
ENDBRANCH  10   9
BRANCH  12  13
ATOM     13  N   UNL     1      21.417  10.726  13.668  0.00  0.00    -0.281 N 
ATOM     14  C   UNL     1      21.729  10.820  15.014  0.00  0.00    +0.248 C 
ATOM     30  O   UNL     1      22.765  10.406  15.514  0.00  0.00    -0.270 OA
ATOM     31  H   UNL     1      20.450  10.930  13.417  0.00  0.00    +0.155 HD
BRANCH  14  15
ATOM     15  C   UNL     1      20.742  11.452  15.942  0.00  0.00    +0.037 A 
ATOM     16  C   UNL     1      20.370  10.812  17.206  0.00  0.00    +0.013 A 
ATOM     17  C   UNL     1      19.403  11.435  18.075  0.00  0.00    +0.005 A 
ATOM     18  C   UNL     1      18.802  12.707  17.681  0.00  0.00    -0.033 A 
ATOM     28  C   UNL     1      19.193  13.322  16.424  0.00  0.00    +0.005 A 
ATOM     29  C   UNL     1      20.140  12.714  15.570  0.00  0.00    +0.013 A 
BRANCH  18  19
ATOM     19  C   UNL     1      17.746  13.433  18.536  0.00  0.00    +0.119 C 
BRANCH  19  20
ATOM     20  N   UNL     1      17.494  12.901  19.908  0.00  0.00    -0.302 NA
ATOM     21  C   UNL     1      15.998  12.810  20.224  0.00  0.00    +0.066 C 
ATOM     22  C   UNL     1      15.752  12.231  21.655  0.00  0.00    -0.064 C 
ATOM     23  N   UNL     1      16.471  13.103  22.686  0.00  0.00    +0.379 N 
ATOM     24  C   UNL     1      16.194  12.595  24.037  0.00  0.00    -0.096 C 
ATOM     25  H   UNL     1      16.043  14.130  22.616  0.00  0.00    -0.082 HD
ATOM     26  C   UNL     1      17.958  13.201  22.378  0.00  0.00    -0.064 C 
ATOM     27  C   UNL     1      18.191  13.750  20.943  0.00  0.00    +0.066 C 
ENDBRANCH  19  20
ENDBRANCH  18  19
ENDBRANCH  14  15
ENDBRANCH  12  13
TORSDOF 6
ENDMDL
MODEL 4
REMARK VINA RESULT:      -7.7      2.317     11.808
REMARK  Name = C:\Users\Docking\Desktop\test protocol\1iep_ligandH.pdb
REMARK  8 active torsions:
REMARK  status: ('A' for Active; 'I' for Inactive)
REMARK    1  A    between atoms: _5  and  _11
REMARK    2  A    between atoms: _19  and  _21
REMARK    3  A    between atoms: _22  and  _66
REMARK    4  A    between atoms: _27  and  _30
REMARK    5  A    between atoms: _32  and  _33
REMARK    6  A    between atoms: _38  and  _43
REMARK    7  A    between atoms: _43  and  _46
REMARK    8  A    between atoms: _53  and  _55
REMARK                            x       y       z     vdW  Elec       q    Type
REMARK                         _______ _______ _______ _____ _____    ______ ____
ROOT
ATOM     10  C   UNL     1      18.252  11.530  19.228  0.00  0.00    +0.038 A 
ATOM     11  C   UNL     1      18.961  11.344  18.014  0.00  0.00    +0.047 A 
ATOM     12  C   UNL     1      19.129  12.434  17.066  0.00  0.00    +0.035 A 
ATOM     32  C   UNL     1      18.564  13.702  17.388  0.00  0.00    +0.024 A 
ATOM     33  C   UNL     1      17.839  13.909  18.617  0.00  0.00    +0.007 A 
ATOM     34  C   UNL     1      17.668  12.836  19.555  0.00  0.00    -0.029 A 
ATOM     35  C   UNL     1      16.876  13.113  20.854  0.00  0.00    +0.045 C 
ENDROOT
BRANCH  10   9
ATOM      4  C   UNL     1      16.393   7.276  20.449  0.00  0.00    +0.077 A 
ATOM      5  C   UNL     1      15.595   7.216  19.259  0.00  0.00    +0.048 A 
ATOM      6  C   UNL     1      15.687   8.304  18.361  0.00  0.00    +0.116 A 
ATOM      7  N   UNL     1      16.518   9.366  18.643  0.00  0.00    -0.223 NA
ATOM      8  C   UNL     1      17.272   9.393  19.802  0.00  0.00    +0.220 A 
ATOM      9  N   UNL     1      18.120  10.448  20.102  0.00  0.00    -0.283 N 
ATOM     36  H   UNL     1      18.655  10.434  20.970  0.00  0.00    +0.155 HD
ATOM     37  N   UNL     1      17.201   8.368  20.676  0.00  0.00    -0.214 NA
BRANCH   4   3
ATOM      1  C   UNL     1      15.279   4.734  23.206  0.00  0.00    +0.020 A 
ATOM      2  C   UNL     1      15.211   5.776  22.207  0.00  0.00    +0.013 A 
ATOM      3  C   UNL     1      16.408   6.203  21.493  0.00  0.00    +0.019 A 
ATOM     38  C   UNL     1      17.667   5.550  21.815  0.00  0.00    +0.120 A 
ATOM     39  N   UNL     1      17.703   4.550  22.782  0.00  0.00    -0.263 NA
ATOM     40  C   UNL     1      16.558   4.132  23.477  0.00  0.00    +0.111 A 
ENDBRANCH   4   3
ENDBRANCH  10   9
BRANCH  12  13
ATOM     13  N   UNL     1      19.832  12.302  15.814  0.00  0.00    -0.281 N 
ATOM     14  C   UNL     1      21.190  12.445  15.581  0.00  0.00    +0.248 C 
ATOM     30  O   UNL     1      21.982  12.920  16.380  0.00  0.00    -0.270 OA
ATOM     31  H   UNL     1      19.259  12.076  15.001  0.00  0.00    +0.155 HD
BRANCH  14  15
ATOM     15  C   UNL     1      21.746  12.010  14.263  0.00  0.00    +0.037 A 
ATOM     16  C   UNL     1      22.194  12.987  13.268  0.00  0.00    +0.013 A 
ATOM     17  C   UNL     1      22.711  12.541  11.998  0.00  0.00    +0.005 A 
ATOM     18  C   UNL     1      22.783  11.109  11.718  0.00  0.00    -0.033 A 
ATOM     28  C   UNL     1      22.336  10.161  12.725  0.00  0.00    +0.005 A 
ATOM     29  C   UNL     1      21.829  10.595  13.970  0.00  0.00    +0.013 A 
BRANCH  18  19
ATOM     19  C   UNL     1      23.300  10.543  10.382  0.00  0.00    +0.119 C 
BRANCH  19  20
ATOM     20  N   UNL     1      23.581   9.078  10.323  0.00  0.00    -0.302 NA
ATOM     21  C   UNL     1      24.902   8.774   9.610  0.00  0.00    +0.066 C 
ATOM     22  C   UNL     1      25.192   7.238   9.577  0.00  0.00    -0.064 C 
ATOM     23  N   UNL     1      24.029   6.518   8.892  0.00  0.00    +0.379 N 
ATOM     24  C   UNL     1      24.324   5.080   8.808  0.00  0.00    -0.096 C 
ATOM     25  H   UNL     1      23.955   6.910   7.851  0.00  0.00    -0.082 HD
ATOM     26  C   UNL     1      22.711   6.816   9.593  0.00  0.00    -0.064 C 
ATOM     27  C   UNL     1      22.448   8.347   9.646  0.00  0.00    +0.066 C 
ENDBRANCH  19  20
ENDBRANCH  18  19
ENDBRANCH  14  15
ENDBRANCH  12  13
TORSDOF 6
ENDMDL
MODEL 5
REMARK VINA RESULT:      -7.7      9.471     14.209
REMARK  Name = C:\Users\Docking\Desktop\test protocol\1iep_ligandH.pdb
REMARK  8 active torsions:
REMARK  status: ('A' for Active; 'I' for Inactive)
REMARK    1  A    between atoms: _5  and  _11
REMARK    2  A    between atoms: _19  and  _21
REMARK    3  A    between atoms: _22  and  _66
REMARK    4  A    between atoms: _27  and  _30
REMARK    5  A    between atoms: _32  and  _33
REMARK    6  A    between atoms: _38  and  _43
REMARK    7  A    between atoms: _43  and  _46
REMARK    8  A    between atoms: _53  and  _55
REMARK                            x       y       z     vdW  Elec       q    Type
REMARK                         _______ _______ _______ _____ _____    ______ ____
ROOT
ATOM     10  C   UNL     1      16.746   8.716  20.908  0.00  0.00    +0.038 A 
ATOM     11  C   UNL     1      16.069   7.811  21.764  0.00  0.00    +0.047 A 
ATOM     12  C   UNL     1      15.522   6.562  21.257  0.00  0.00    +0.035 A 
ATOM     32  C   UNL     1      15.685   6.266  19.872  0.00  0.00    +0.024 A 
ATOM     33  C   UNL     1      16.369   7.176  18.988  0.00  0.00    +0.007 A 
ATOM     34  C   UNL     1      16.909   8.410  19.482  0.00  0.00    -0.029 A 
ATOM     35  C   UNL     1      17.628   9.351  18.487  0.00  0.00    +0.045 C 
ENDROOT
BRANCH  10   9
ATOM      4  C   UNL     1      16.518  13.446  21.695  0.00  0.00    +0.077 A 
ATOM      5  C   UNL     1      15.303  13.572  20.943  0.00  0.00    +0.048 A 
ATOM      6  C   UNL     1      14.773  12.397  20.364  0.00  0.00    +0.116 A 
ATOM      7  N   UNL     1      15.419  11.191  20.531  0.00  0.00    -0.223 NA
ATOM      8  C   UNL     1      16.590  11.104  21.261  0.00  0.00    +0.220 A 
ATOM      9  N   UNL     1      17.252   9.901  21.449  0.00  0.00    -0.283 N 
ATOM     36  H   UNL     1      18.117   9.880  21.988  0.00  0.00    +0.155 HD
ATOM     37  N   UNL     1      17.117  12.212  21.823  0.00  0.00    -0.214 NA
BRANCH   4   3
ATOM      1  C   UNL     1      18.406  16.810  22.338  0.00  0.00    +0.020 A 
ATOM      2  C   UNL     1      17.759  15.725  21.638  0.00  0.00    +0.013 A 
ATOM      3  C   UNL     1      17.199  14.595  22.370  0.00  0.00    +0.019 A 
ATOM     38  C   UNL     1      17.312  14.595  23.821  0.00  0.00    +0.120 A 
ATOM     39  N   UNL     1      17.942  15.653  24.468  0.00  0.00    -0.263 NA
ATOM     40  C   UNL     1      18.486  16.745  23.774  0.00  0.00    +0.111 A 
ENDBRANCH   4   3
ENDBRANCH  10   9
BRANCH  12  13
ATOM     13  N   UNL     1      14.817   5.607  22.076  0.00  0.00    -0.281 N 
ATOM     14  C   UNL     1      15.353   4.683  22.958  0.00  0.00    +0.248 C 
ATOM     30  O   UNL     1      16.538   4.390  23.016  0.00  0.00    -0.270 OA
ATOM     31  H   UNL     1      13.800   5.614  21.997  0.00  0.00    +0.155 HD
BRANCH  14  15
ATOM     15  C   UNL     1      14.438   3.970  23.901  0.00  0.00    +0.037 A 
ATOM     16  C   UNL     1      13.060   4.420  24.109  0.00  0.00    +0.013 A 
ATOM     17  C   UNL     1      12.204   3.725  25.037  0.00  0.00    +0.005 A 
ATOM     18  C   UNL     1      12.724   2.569  25.763  0.00  0.00    -0.033 A 
ATOM     28  C   UNL     1      14.094   2.140  25.534  0.00  0.00    +0.005 A 
ATOM     29  C   UNL     1      14.936   2.820  24.626  0.00  0.00    +0.013 A 
BRANCH  18  19
ATOM     19  C   UNL     1      11.888   1.780  26.788  0.00  0.00    +0.119 C 
BRANCH  19  20
ATOM     20  N   UNL     1      11.462   2.502  28.024  0.00  0.00    -0.302 NA
ATOM     21  C   UNL     1      10.123   3.221  27.836  0.00  0.00    +0.066 C 
ATOM     22  C   UNL     1       9.681   3.953  29.145  0.00  0.00    -0.064 C 
ATOM     23  N   UNL     1      10.771   4.939  29.567  0.00  0.00    +0.379 N 
ATOM     24  C   UNL     1      10.333   5.670  30.765  0.00  0.00    -0.096 C 
ATOM     25  H   UNL     1      10.893   5.681  28.744  0.00  0.00    -0.082 HD
ATOM     26  C   UNL     1      12.106   4.233  29.754  0.00  0.00    -0.064 C 
ATOM     27  C   UNL     1      12.522   3.485  28.457  0.00  0.00    +0.066 C 
ENDBRANCH  19  20
ENDBRANCH  18  19
ENDBRANCH  14  15
ENDBRANCH  12  13
TORSDOF 6
ENDMDL
