MODEL 1
REMARK VINA RESULT:      -7.7      0.000      0.000
REMARK  Name = C:\Users\Docking\Desktop\test protocol\1iep_ligandH.pdb
REMARK  8 active torsions:
REMARK  status: ('A' for Active; 'I' for Inactive)
REMARK    1  A    between atoms: _5  and  _11
REMARK    2  A    between atoms: _19  and  _21
REMARK    3  A    between atoms: _22  and  _66
REMARK    4  A    between atoms: _27  and  _30
REMARK    5  A    between atoms: _32  and  _33
REMARK    6  A    between atoms: _38  and  _43
REMARK    7  A    between atoms: _43  and  _46
REMARK    8  A    between atoms: _53  and  _55
REMARK                            x       y       z     vdW  Elec       q    Type
REMARK                         _______ _______ _______ _____ _____    ______ ____
ROOT
ATOM     10  C   UNL     1     -12.989   9.439  27.271  0.00  0.00    +0.038 A 
ATOM     11  C   UNL     1     -13.174   9.090  25.909  0.00  0.00    +0.047 A 
ATOM     12  C   UNL     1     -14.253   9.670  25.124  0.00  0.00    +0.035 A 
ATOM     32  C   UNL     1     -15.123  10.605  25.757  0.00  0.00    +0.024 A 
ATOM     33  C   UNL     1     -14.949  10.970  27.141  0.00  0.00    +0.007 A 
ATOM     34  C   UNL     1     -13.888  10.400  27.921  0.00  0.00    -0.029 A 
ATOM     35  C   UNL     1     -13.753  10.823  29.402  0.00  0.00    +0.045 C 
ENDROOT
BRANCH  10   9
ATOM      4  C   UNL     1      -8.365   9.172  28.531  0.00  0.00    +0.077 A 
ATOM      5  C   UNL     1      -8.011  10.279  27.690  0.00  0.00    +0.048 A 
ATOM      6  C   UNL     1      -9.046  10.885  26.944  0.00  0.00    +0.116 A 
ATOM      7  N   UNL     1     -10.337  10.411  27.040  0.00  0.00    -0.223 NA
ATOM      8  C   UNL     1     -10.644   9.340  27.859  0.00  0.00    +0.220 A 
ATOM      9  N   UNL     1     -11.936   8.852  27.977  0.00  0.00    -0.283 N 
ATOM     36  H   UNL     1     -12.121   8.056  28.587  0.00  0.00    +0.155 HD
ATOM     37  N   UNL     1      -9.673   8.743  28.581  0.00  0.00    -0.214 NA
BRANCH   4   3
ATOM      1  C   UNL     1      -6.758   6.578  30.978  0.00  0.00    +0.020 A 
ATOM      2  C   UNL     1      -7.745   7.259  30.172  0.00  0.00    +0.013 A 
ATOM      3  C   UNL     1      -7.383   8.429  29.382  0.00  0.00    +0.019 A 
ATOM     38  C   UNL     1      -6.003   8.888  29.430  0.00  0.00    +0.120 A 
ATOM     39  N   UNL     1      -5.074   8.212  30.216  0.00  0.00    -0.263 NA
ATOM     40  C   UNL     1      -5.411   7.086  30.981  0.00  0.00    +0.111 A 
ENDBRANCH   4   3
ENDBRANCH  10   9
BRANCH  12  13
ATOM     13  N   UNL     1     -14.496   9.347  23.739  0.00  0.00    -0.281 N 
ATOM     14  C   UNL     1     -13.673   9.590  22.652  0.00  0.00    +0.248 C 
ATOM     30  O   UNL     1     -12.691  10.317  22.676  0.00  0.00    -0.270 OA
ATOM     31  H   UNL     1     -15.382   8.884  23.537  0.00  0.00    +0.155 HD
BRANCH  14  15
ATOM     15  C   UNL     1     -13.996   8.942  21.344  0.00  0.00    +0.037 A 
ATOM     16  C   UNL     1     -14.951   7.834  21.260  0.00  0.00    +0.013 A 
ATOM     17  C   UNL     1     -15.231   7.216  19.988  0.00  0.00    +0.005 A 
ATOM     18  C   UNL     1     -14.556   7.706  18.789  0.00  0.00    -0.033 A 
ATOM     28  C   UNL     1     -13.617   8.810  18.900  0.00  0.00    +0.005 A 
ATOM     29  C   UNL     1     -13.338   9.418  20.145  0.00  0.00    +0.013 A 
BRANCH  18  19
ATOM     19  C   UNL     1     -14.778   7.093  17.394  0.00  0.00    +0.119 C 
BRANCH  19  20
ATOM     20  N   UNL     1     -13.586   6.970  16.503  0.00  0.00    -0.302 NA
ATOM     21  C   UNL     1     -13.823   7.613  15.134  0.00  0.00    +0.066 C 
ATOM     22  C   UNL     1     -12.558   7.495  14.222  0.00  0.00    -0.064 C 
ATOM     23  N   UNL     1     -12.178   6.021  14.070  0.00  0.00    +0.379 N 
ATOM     24  C   UNL     1     -11.024   5.903  13.167  0.00  0.00    -0.096 C 
ATOM     25  H   UNL     1     -13.038   5.498  13.591  0.00  0.00    -0.082 HD
ATOM     26  C   UNL     1     -11.943   5.373  15.428  0.00  0.00    -0.064 C 
ATOM     27  C   UNL     1     -13.196   5.522  16.335  0.00  0.00    +0.066 C 
ENDBRANCH  19  20
ENDBRANCH  18  19
ENDBRANCH  14  15
ENDBRANCH  12  13
TORSDOF 6
ENDMDL
MODEL 2
REMARK VINA RESULT:      -7.6      9.444     16.997
REMARK  Name = C:\Users\Docking\Desktop\test protocol\1iep_ligandH.pdb
REMARK  8 active torsions:
REMARK  status: ('A' for Active; 'I' for Inactive)
REMARK    1  A    between atoms: _5  and  _11
REMARK    2  A    between atoms: _19  and  _21
REMARK    3  A    between atoms: _22  and  _66
REMARK    4  A    between atoms: _27  and  _30
REMARK    5  A    between atoms: _32  and  _33
REMARK    6  A    between atoms: _38  and  _43
REMARK    7  A    between atoms: _43  and  _46
REMARK    8  A    between atoms: _53  and  _55
REMARK                            x       y       z     vdW  Elec       q    Type
REMARK                         _______ _______ _______ _____ _____    ______ ____
ROOT
ATOM     10  C   UNL     1     -10.508   6.746   9.450  0.00  0.00    +0.038 A 
ATOM     11  C   UNL     1     -11.240   6.519  10.644  0.00  0.00    +0.047 A 
ATOM     12  C   UNL     1     -10.565   6.372  11.924  0.00  0.00    +0.035 A 
ATOM     32  C   UNL     1      -9.143   6.463  11.953  0.00  0.00    +0.024 A 
ATOM     33  C   UNL     1      -8.383   6.692  10.749  0.00  0.00    +0.007 A 
ATOM     34  C   UNL     1      -9.043   6.836   9.483  0.00  0.00    -0.029 A 
ATOM     35  C   UNL     1      -8.177   7.073   8.224  0.00  0.00    +0.045 C 
ENDROOT
BRANCH  10   9
ATOM      4  C   UNL     1     -12.817   9.379   6.168  0.00  0.00    +0.077 A 
ATOM      5  C   UNL     1     -12.639  10.585   6.925  0.00  0.00    +0.048 A 
ATOM      6  C   UNL     1     -11.954  10.484   8.156  0.00  0.00    +0.116 A 
ATOM      7  N   UNL     1     -11.486   9.262   8.589  0.00  0.00    -0.223 NA
ATOM      8  C   UNL     1     -11.676   8.118   7.836  0.00  0.00    +0.220 A 
ATOM      9  N   UNL     1     -11.207   6.880   8.248  0.00  0.00    -0.283 N 
ATOM     36  H   UNL     1     -11.373   6.059   7.668  0.00  0.00    +0.155 HD
ATOM     37  N   UNL     1     -12.328   8.188   6.657  0.00  0.00    -0.214 NA
BRANCH   4   3
ATOM      1  C   UNL     1     -15.256   8.394   3.273  0.00  0.00    +0.020 A 
ATOM      2  C   UNL     1     -14.613   8.406   4.567  0.00  0.00    +0.013 A 
ATOM      3  C   UNL     1     -13.517   9.325   4.846  0.00  0.00    +0.019 A 
ATOM     38  C   UNL     1     -13.091  10.226   3.785  0.00  0.00    +0.120 A 
ATOM     39  N   UNL     1     -13.728  10.191   2.549  0.00  0.00    -0.263 NA
ATOM     40  C   UNL     1     -14.783   9.310   2.269  0.00  0.00    +0.111 A 
ENDBRANCH   4   3
ENDBRANCH  10   9
BRANCH  12  13
ATOM     13  N   UNL     1     -11.256   6.132  13.167  0.00  0.00    -0.281 N 
ATOM     14  C   UNL     1     -11.592   7.053  14.146  0.00  0.00    +0.248 C 
ATOM     30  O   UNL     1     -11.159   8.195  14.198  0.00  0.00    -0.270 OA
ATOM     31  H   UNL     1     -11.530   5.167  13.348  0.00  0.00    +0.155 HD
BRANCH  14  15
ATOM     15  C   UNL     1     -12.534   6.643  15.231  0.00  0.00    +0.037 A 
ATOM     16  C   UNL     1     -13.474   7.598  15.823  0.00  0.00    +0.013 A 
ATOM     17  C   UNL     1     -14.360   7.180  16.880  0.00  0.00    +0.005 A 
ATOM     18  C   UNL     1     -14.311   5.798  17.351  0.00  0.00    -0.033 A 
ATOM     28  C   UNL     1     -13.373   4.870  16.742  0.00  0.00    +0.005 A 
ATOM     29  C   UNL     1     -12.502   5.276  15.706  0.00  0.00    +0.013 A 
BRANCH  18  19
ATOM     19  C   UNL     1     -15.205   5.270  18.488  0.00  0.00    +0.119 C 
BRANCH  19  20
ATOM     20  N   UNL     1     -16.681   5.283  18.260  0.00  0.00    -0.302 NA
ATOM     21  C   UNL     1     -17.367   6.434  19.002  0.00  0.00    +0.066 C 
ATOM     22  C   UNL     1     -18.908   6.445  18.734  0.00  0.00    -0.064 C 
ATOM     23  N   UNL     1     -19.505   5.100  19.150  0.00  0.00    +0.379 N 
ATOM     24  C   UNL     1     -20.962   5.129  18.954  0.00  0.00    -0.096 C 
ATOM     25  H   UNL     1     -19.313   4.968  20.241  0.00  0.00    -0.082 HD
ATOM     26  C   UNL     1     -18.827   3.950  18.420  0.00  0.00    -0.064 C 
ATOM     27  C   UNL     1     -17.293   3.965  18.669  0.00  0.00    +0.066 C 
ENDBRANCH  19  20
ENDBRANCH  18  19
ENDBRANCH  14  15
ENDBRANCH  12  13
TORSDOF 6
ENDMDL
MODEL 3
REMARK VINA RESULT:      -7.4      9.591     15.534
REMARK  Name = C:\Users\Docking\Desktop\test protocol\1iep_ligandH.pdb
REMARK  8 active torsions:
REMARK  status: ('A' for Active; 'I' for Inactive)
REMARK    1  A    between atoms: _5  and  _11
REMARK    2  A    between atoms: _19  and  _21
REMARK    3  A    between atoms: _22  and  _66
REMARK    4  A    between atoms: _27  and  _30
REMARK    5  A    between atoms: _32  and  _33
REMARK    6  A    between atoms: _38  and  _43
REMARK    7  A    between atoms: _43  and  _46
REMARK    8  A    between atoms: _53  and  _55
REMARK                            x       y       z     vdW  Elec       q    Type
REMARK                         _______ _______ _______ _____ _____    ______ ____
ROOT
ATOM     10  C   UNL     1     -10.580   6.471  11.885  0.00  0.00    +0.038 A 
ATOM     11  C   UNL     1     -11.630   6.352  12.831  0.00  0.00    +0.047 A 
ATOM     12  C   UNL     1     -11.364   6.408  14.260  0.00  0.00    +0.035 A 
ATOM     32  C   UNL     1     -10.018   6.590  14.691  0.00  0.00    +0.024 A 
ATOM     33  C   UNL     1      -8.938   6.712  13.742  0.00  0.00    +0.007 A 
ATOM     34  C   UNL     1      -9.194   6.654  12.332  0.00  0.00    -0.029 A 
ATOM     35  C   UNL     1      -7.997   6.784  11.361  0.00  0.00    +0.045 C 
ENDROOT
BRANCH  10   9
ATOM      4  C   UNL     1     -11.733   8.538   7.709  0.00  0.00    +0.077 A 
ATOM      5  C   UNL     1     -11.742   9.849   8.293  0.00  0.00    +0.048 A 
ATOM      6  C   UNL     1     -11.451   9.947   9.672  0.00  0.00    +0.116 A 
ATOM      7  N   UNL     1     -11.174   8.812  10.404  0.00  0.00    -0.223 NA
ATOM      8  C   UNL     1     -11.175   7.563   9.810  0.00  0.00    +0.220 A 
ATOM      9  N   UNL     1     -10.891   6.410  10.525  0.00  0.00    -0.283 N 
ATOM     36  H   UNL     1     -10.910   5.506  10.052  0.00  0.00    +0.155 HD
ATOM     37  N   UNL     1     -11.451   7.443   8.495  0.00  0.00    -0.214 NA
BRANCH   4   3
ATOM      1  C   UNL     1     -11.504   7.180   4.049  0.00  0.00    +0.020 A 
ATOM      2  C   UNL     1     -11.186   7.404   5.440  0.00  0.00    +0.013 A 
ATOM      3  C   UNL     1     -12.017   8.272   6.264  0.00  0.00    +0.019 A 
ATOM     38  C   UNL     1     -13.174   8.902   5.645  0.00  0.00    +0.120 A 
ATOM     39  N   UNL     1     -13.455   8.669   4.302  0.00  0.00    -0.263 NA
ATOM     40  C   UNL     1     -12.661   7.837   3.499  0.00  0.00    +0.111 A 
ENDBRANCH   4   3
ENDBRANCH  10   9
BRANCH  12  13
ATOM     13  N   UNL     1     -12.388   6.285  15.268  0.00  0.00    -0.281 N 
ATOM     14  C   UNL     1     -12.972   7.294  16.016  0.00  0.00    +0.248 C 
ATOM     30  O   UNL     1     -12.548   8.439  16.084  0.00  0.00    -0.270 OA
ATOM     31  H   UNL     1     -12.723   5.340  15.452  0.00  0.00    +0.155 HD
BRANCH  14  15
ATOM     15  C   UNL     1     -14.196   6.984  16.816  0.00  0.00    +0.037 A 
ATOM     16  C   UNL     1     -14.308   5.740  17.582  0.00  0.00    +0.013 A 
ATOM     17  C   UNL     1     -15.506   5.457  18.331  0.00  0.00    +0.005 A 
ATOM     18  C   UNL     1     -16.602   6.423  18.320  0.00  0.00    -0.033 A 
ATOM     28  C   UNL     1     -16.462   7.652  17.557  0.00  0.00    +0.005 A 
ATOM     29  C   UNL     1     -15.290   7.932  16.820  0.00  0.00    +0.013 A 
BRANCH  18  19
ATOM     19  C   UNL     1     -17.926   6.195  19.074  0.00  0.00    +0.119 C 
BRANCH  19  20
ATOM     20  N   UNL     1     -19.112   5.785  18.265  0.00  0.00    -0.302 NA
ATOM     21  C   UNL     1     -18.947   4.382  17.673  0.00  0.00    +0.066 C 
ATOM     22  C   UNL     1     -20.206   3.960  16.848  0.00  0.00    -0.064 C 
ATOM     23  N   UNL     1     -20.456   4.988  15.743  0.00  0.00    +0.379 N 
ATOM     24  C   UNL     1     -21.605   4.564  14.930  0.00  0.00    -0.096 C 
ATOM     25  H   UNL     1     -19.558   4.998  15.082  0.00  0.00    -0.082 HD
ATOM     26  C   UNL     1     -20.619   6.386  16.322  0.00  0.00    -0.064 C 
ATOM     27  C   UNL     1     -19.374   6.784  17.165  0.00  0.00    +0.066 C 
ENDBRANCH  19  20
ENDBRANCH  18  19
ENDBRANCH  14  15
ENDBRANCH  12  13
TORSDOF 6
ENDMDL
MODEL 4
REMARK VINA RESULT:      -7.4      9.330     15.768
REMARK  Name = C:\Users\Docking\Desktop\test protocol\1iep_ligandH.pdb
REMARK  8 active torsions:
REMARK  status: ('A' for Active; 'I' for Inactive)
REMARK    1  A    between atoms: _5  and  _11
REMARK    2  A    between atoms: _19  and  _21
REMARK    3  A    between atoms: _22  and  _66
REMARK    4  A    between atoms: _27  and  _30
REMARK    5  A    between atoms: _32  and  _33
REMARK    6  A    between atoms: _38  and  _43
REMARK    7  A    between atoms: _43  and  _46
REMARK    8  A    between atoms: _53  and  _55
REMARK                            x       y       z     vdW  Elec       q    Type
REMARK                         _______ _______ _______ _____ _____    ______ ____
ROOT
ATOM     10  C   UNL     1     -10.105   7.044  14.557  0.00  0.00    +0.038 A 
ATOM     11  C   UNL     1      -8.749   7.135  14.963  0.00  0.00    +0.047 A 
ATOM     12  C   UNL     1      -8.230   6.309  16.042  0.00  0.00    +0.035 A 
ATOM     32  C   UNL     1      -9.119   5.398  16.683  0.00  0.00    +0.024 A 
ATOM     33  C   UNL     1     -10.500   5.293  16.284  0.00  0.00    +0.007 A 
ATOM     34  C   UNL     1     -11.019   6.107  15.222  0.00  0.00    -0.029 A 
ATOM     35  C   UNL     1     -12.510   5.957  14.840  0.00  0.00    +0.045 C 
ENDROOT
BRANCH  10   9
ATOM      4  C   UNL     1     -11.085   7.843   9.927  0.00  0.00    +0.077 A 
ATOM      5  C   UNL     1     -10.647   6.531   9.546  0.00  0.00    +0.048 A 
ATOM      6  C   UNL     1     -10.170   5.683  10.572  0.00  0.00    +0.116 A 
ATOM      7  N   UNL     1     -10.138   6.126  11.876  0.00  0.00    -0.223 NA
ATOM      8  C   UNL     1     -10.566   7.398  12.209  0.00  0.00    +0.220 A 
ATOM      9  N   UNL     1     -10.550   7.861  13.515  0.00  0.00    -0.283 N 
ATOM     36  H   UNL     1     -10.868   8.808  13.718  0.00  0.00    +0.155 HD
ATOM     37  N   UNL     1     -11.025   8.227  11.248  0.00  0.00    -0.214 NA
BRANCH   4   3
ATOM      1  C   UNL     1     -12.770   9.498   6.809  0.00  0.00    +0.020 A 
ATOM      2  C   UNL     1     -12.272   8.484   7.709  0.00  0.00    +0.013 A 
ATOM      3  C   UNL     1     -11.618   8.853   8.958  0.00  0.00    +0.019 A 
ATOM     38  C   UNL     1     -11.483  10.268   9.270  0.00  0.00    +0.120 A 
ATOM     39  N   UNL     1     -11.971  11.222   8.383  0.00  0.00    -0.263 NA
ATOM     40  C   UNL     1     -12.601  10.879   7.177  0.00  0.00    +0.111 A 
ENDBRANCH   4   3
ENDBRANCH  10   9
BRANCH  12  13
ATOM     13  N   UNL     1      -6.865   6.363  16.503  0.00  0.00    -0.281 N 
ATOM     14  C   UNL     1      -6.379   6.959  17.656  0.00  0.00    +0.248 C 
ATOM     30  O   UNL     1      -7.019   7.724  18.361  0.00  0.00    -0.270 OA
ATOM     31  H   UNL     1      -6.173   5.908  15.908  0.00  0.00    +0.155 HD
BRANCH  14  15
ATOM     15  C   UNL     1      -4.973   6.675  18.077  0.00  0.00    +0.037 A 
ATOM     16  C   UNL     1      -4.683   5.777  19.198  0.00  0.00    +0.013 A 
ATOM     17  C   UNL     1      -3.318   5.533  19.595  0.00  0.00    +0.005 A 
ATOM     18  C   UNL     1      -2.233   6.189  18.869  0.00  0.00    -0.033 A 
ATOM     28  C   UNL     1      -2.550   7.072  17.758  0.00  0.00    +0.005 A 
ATOM     29  C   UNL     1      -3.886   7.314  17.367  0.00  0.00    +0.013 A 
BRANCH  18  19
ATOM     19  C   UNL     1      -0.749   6.004  19.237  0.00  0.00    +0.119 C 
BRANCH  19  20
ATOM     20  N   UNL     1      -0.396   4.822  20.078  0.00  0.00    -0.302 NA
ATOM     21  C   UNL     1      -0.289   5.184  21.562  0.00  0.00    +0.066 C 
ATOM     22  C   UNL     1       0.059   3.931  22.430  0.00  0.00    -0.064 C 
ATOM     23  N   UNL     1       1.366   3.314  21.928  0.00  0.00    +0.379 N 
ATOM     24  C   UNL     1       1.726   2.170  22.778  0.00  0.00    -0.096 C 
ATOM     25  H   UNL     1       2.166   4.082  22.037  0.00  0.00    -0.082 HD
ATOM     26  C   UNL     1       1.270   2.953  20.452  0.00  0.00    -0.064 C 
ATOM     27  C   UNL     1       0.894   4.199  19.602  0.00  0.00    +0.066 C 
ENDBRANCH  19  20
ENDBRANCH  18  19
ENDBRANCH  14  15
ENDBRANCH  12  13
TORSDOF 6
ENDMDL
MODEL 5
REMARK VINA RESULT:      -7.4      7.853     13.213
REMARK  Name = C:\Users\Docking\Desktop\test protocol\1iep_ligandH.pdb
REMARK  8 active torsions:
REMARK  status: ('A' for Active; 'I' for Inactive)
REMARK    1  A    between atoms: _5  and  _11
REMARK    2  A    between atoms: _19  and  _21
REMARK    3  A    between atoms: _22  and  _66
REMARK    4  A    between atoms: _27  and  _30
REMARK    5  A    between atoms: _32  and  _33
REMARK    6  A    between atoms: _38  and  _43
REMARK    7  A    between atoms: _43  and  _46
REMARK    8  A    between atoms: _53  and  _55
REMARK                            x       y       z     vdW  Elec       q    Type
REMARK                         _______ _______ _______ _____ _____    ______ ____
ROOT
ATOM     10  C   UNL     1     -10.507   5.843  15.665  0.00  0.00    +0.038 A 
ATOM     11  C   UNL     1      -9.362   5.900  16.500  0.00  0.00    +0.047 A 
ATOM     12  C   UNL     1      -8.107   6.458  16.020  0.00  0.00    +0.035 A 
ATOM     32  C   UNL     1      -8.055   6.952  14.684  0.00  0.00    +0.024 A 
ATOM     33  C   UNL     1      -9.209   6.901  13.821  0.00  0.00    +0.007 A 
ATOM     34  C   UNL     1     -10.449   6.349  14.288  0.00  0.00    -0.029 A 
ATOM     35  C   UNL     1     -11.652   6.314  13.317  0.00  0.00    +0.045 C 
ENDROOT
BRANCH  10   9
ATOM      4  C   UNL     1     -14.830   6.268  17.706  0.00  0.00    +0.077 A 
ATOM      5  C   UNL     1     -14.720   7.696  17.782  0.00  0.00    +0.048 A 
ATOM      6  C   UNL     1     -13.531   8.282  17.291  0.00  0.00    +0.116 A 
ATOM      7  N   UNL     1     -12.534   7.489  16.766  0.00  0.00    -0.223 NA
ATOM      8  C   UNL     1     -12.672   6.114  16.709  0.00  0.00    +0.220 A 
ATOM      9  N   UNL     1     -11.686   5.298  16.178  0.00  0.00    -0.283 N 
ATOM     36  H   UNL     1     -11.823   4.287  16.161  0.00  0.00    +0.155 HD
ATOM     37  N   UNL     1     -13.797   5.530  17.173  0.00  0.00    -0.214 NA
BRANCH   4   3
ATOM      1  C   UNL     1     -17.218   3.359  18.775  0.00  0.00    +0.020 A 
ATOM      2  C   UNL     1     -16.036   4.051  18.312  0.00  0.00    +0.013 A 
ATOM      3  C   UNL     1     -16.026   5.502  18.181  0.00  0.00    +0.019 A 
ATOM     38  C   UNL     1     -17.237   6.230  18.530  0.00  0.00    +0.120 A 
ATOM     39  N   UNL     1     -18.360   5.538  18.972  0.00  0.00    -0.263 NA
ATOM     40  C   UNL     1     -18.382   4.141  19.100  0.00  0.00    +0.111 A 
ENDBRANCH   4   3
ENDBRANCH  10   9
BRANCH  12  13
ATOM     13  N   UNL     1      -6.910   6.535  16.820  0.00  0.00    -0.281 N 
ATOM     14  C   UNL     1      -6.733   7.189  18.028  0.00  0.00    +0.248 C 
ATOM     30  O   UNL     1      -7.524   7.991  18.502  0.00  0.00    -0.270 OA
ATOM     31  H   UNL     1      -6.093   6.048  16.450  0.00  0.00    +0.155 HD
BRANCH  14  15
ATOM     15  C   UNL     1      -5.491   6.926  18.816  0.00  0.00    +0.037 A 
ATOM     16  C   UNL     1      -4.736   8.020  19.433  0.00  0.00    +0.013 A 
ATOM     17  C   UNL     1      -3.532   7.739  20.174  0.00  0.00    +0.005 A 
ATOM     18  C   UNL     1      -3.076   6.357  20.304  0.00  0.00    -0.033 A 
ATOM     28  C   UNL     1      -3.848   5.291  19.687  0.00  0.00    +0.005 A 
ATOM     29  C   UNL     1      -5.028   5.562  18.959  0.00  0.00    +0.013 A 
BRANCH  18  19
ATOM     19  C   UNL     1      -1.792   5.968  21.059  0.00  0.00    +0.119 C 
BRANCH  19  20
ATOM     20  N   UNL     1      -0.962   4.872  20.476  0.00  0.00    -0.302 NA
ATOM     21  C   UNL     1      -0.485   3.883  21.544  0.00  0.00    +0.066 C 
ATOM     22  C   UNL     1       0.363   2.730  20.913  0.00  0.00    -0.064 C 
ATOM     23  N   UNL     1       1.552   3.329  20.160  0.00  0.00    +0.379 N 
ATOM     24  C   UNL     1       2.383   2.245  19.615  0.00  0.00    -0.096 C 
ATOM     25  H   UNL     1       2.170   3.892  20.897  0.00  0.00    -0.082 HD
ATOM     26  C   UNL     1       1.087   4.316  19.098  0.00  0.00    -0.064 C 
ATOM     27  C   UNL     1       0.221   5.440  19.731  0.00  0.00    +0.066 C 
ENDBRANCH  19  20
ENDBRANCH  18  19
ENDBRANCH  14  15
ENDBRANCH  12  13
TORSDOF 6
ENDMDL
