MODEL 1
REMARK VINA RESULT:      -7.9      0.000      0.000
REMARK  Name = C:\Users\Docking\Desktop\test protocol\1iep_ligandH.pdb
REMARK  8 active torsions:
REMARK  status: ('A' for Active; 'I' for Inactive)
REMARK    1  A    between atoms: _5  and  _11
REMARK    2  A    between atoms: _19  and  _21
REMARK    3  A    between atoms: _22  and  _66
REMARK    4  A    between atoms: _27  and  _30
REMARK    5  A    between atoms: _32  and  _33
REMARK    6  A    between atoms: _38  and  _43
REMARK    7  A    between atoms: _43  and  _46
REMARK    8  A    between atoms: _53  and  _55
REMARK                            x       y       z     vdW  Elec       q    Type
REMARK                         _______ _______ _______ _____ _____    ______ ____
ROOT
ATOM     10  C   UNL     1      12.931  15.626 -27.610  0.00  0.00    +0.038 A 
ATOM     11  C   UNL     1      13.159  15.318 -26.245  0.00  0.00    +0.047 A 
ATOM     12  C   UNL     1      14.232  15.957 -25.499  0.00  0.00    +0.035 A 
ATOM     32  C   UNL     1      15.051  16.908 -26.174  0.00  0.00    +0.024 A 
ATOM     33  C   UNL     1      14.833  17.232 -27.562  0.00  0.00    +0.007 A 
ATOM     34  C   UNL     1      13.778  16.603 -28.304  0.00  0.00    -0.029 A 
ATOM     35  C   UNL     1      13.595  16.985 -29.791  0.00  0.00    +0.045 C 
ENDROOT
BRANCH  10   9
ATOM      4  C   UNL     1       8.287  15.122 -28.717  0.00  0.00    +0.077 A 
ATOM      5  C   UNL     1       7.906  16.216 -27.872  0.00  0.00    +0.048 A 
ATOM      6  C   UNL     1       8.934  16.878 -27.164  0.00  0.00    +0.116 A 
ATOM      7  N   UNL     1      10.243  16.467 -27.299  0.00  0.00    -0.223 NA
ATOM      8  C   UNL     1      10.576  15.407 -28.121  0.00  0.00    +0.220 A 
ATOM      9  N   UNL     1      11.886  14.982 -28.278  0.00  0.00    -0.283 N 
ATOM     36  H   UNL     1      12.090  14.191 -28.889  0.00  0.00    +0.155 HD
ATOM     37  N   UNL     1       9.612  14.758 -28.807  0.00  0.00    -0.214 NA
BRANCH   4   3
ATOM      1  C   UNL     1       6.731  12.431 -31.091  0.00  0.00    +0.020 A 
ATOM      2  C   UNL     1       7.709  13.166 -30.322  0.00  0.00    +0.013 A 
ATOM      3  C   UNL     1       7.316  14.325 -29.532  0.00  0.00    +0.019 A 
ATOM     38  C   UNL     1       5.915  14.717 -29.540  0.00  0.00    +0.120 A 
ATOM     39  N   UNL     1       4.996  13.991 -30.291  0.00  0.00    -0.263 NA
ATOM     40  C   UNL     1       5.363  12.875 -31.058  0.00  0.00    +0.111 A 
ENDBRANCH   4   3
ENDBRANCH  10   9
BRANCH  12  13
ATOM     13  N   UNL     1      14.517  15.678 -24.113  0.00  0.00    -0.281 N 
ATOM     14  C   UNL     1      13.696  15.885 -23.016  0.00  0.00    +0.248 C 
ATOM     30  O   UNL     1      12.667  16.544 -23.038  0.00  0.00    -0.270 OA
ATOM     31  H   UNL     1      15.435  15.279 -23.917  0.00  0.00    +0.155 HD
BRANCH  14  15
ATOM     15  C   UNL     1      14.082  15.286 -21.702  0.00  0.00    +0.037 A 
ATOM     16  C   UNL     1      15.096  14.232 -21.616  0.00  0.00    +0.013 A 
ATOM     17  C   UNL     1      15.437  13.659 -20.338  0.00  0.00    +0.005 A 
ATOM     18  C   UNL     1      14.763  14.141 -19.135  0.00  0.00    -0.033 A 
ATOM     28  C   UNL     1      13.764  15.191 -19.248  0.00  0.00    +0.005 A 
ATOM     29  C   UNL     1      13.427  15.754 -20.500  0.00  0.00    +0.013 A 
BRANCH  18  19
ATOM     19  C   UNL     1      15.048  13.573 -17.732  0.00  0.00    +0.119 C 
BRANCH  19  20
ATOM     20  N   UNL     1      13.877  13.358 -16.830  0.00  0.00    -0.302 NA
ATOM     21  C   UNL     1      14.129  13.906 -15.422  0.00  0.00    +0.066 C 
ATOM     22  C   UNL     1      12.885  13.693 -14.499  0.00  0.00    -0.064 C 
ATOM     23  N   UNL     1      12.541  12.203 -14.447  0.00  0.00    +0.379 N 
ATOM     24  C   UNL     1      11.408  11.993 -13.533  0.00  0.00    -0.096 C 
ATOM     25  H   UNL     1      13.422  11.667 -14.023  0.00  0.00    -0.082 HD
ATOM     26  C   UNL     1      12.292  11.650 -15.843  0.00  0.00    -0.064 C 
ATOM     27  C   UNL     1      13.523  11.893 -16.761  0.00  0.00    +0.066 C 
ENDBRANCH  19  20
ENDBRANCH  18  19
ENDBRANCH  14  15
ENDBRANCH  12  13
TORSDOF 6
ENDMDL
MODEL 2
REMARK VINA RESULT:      -7.8      8.171     10.316
REMARK  Name = C:\Users\Docking\Desktop\test protocol\1iep_ligandH.pdb
REMARK  8 active torsions:
REMARK  status: ('A' for Active; 'I' for Inactive)
REMARK    1  A    between atoms: _5  and  _11
REMARK    2  A    between atoms: _19  and  _21
REMARK    3  A    between atoms: _22  and  _66
REMARK    4  A    between atoms: _27  and  _30
REMARK    5  A    between atoms: _32  and  _33
REMARK    6  A    between atoms: _38  and  _43
REMARK    7  A    between atoms: _43  and  _46
REMARK    8  A    between atoms: _53  and  _55
REMARK                            x       y       z     vdW  Elec       q    Type
REMARK                         _______ _______ _______ _____ _____    ______ ____
ROOT
ATOM     10  C   UNL     1      10.121  12.166 -15.736  0.00  0.00    +0.038 A 
ATOM     11  C   UNL     1      11.263  11.797 -16.492  0.00  0.00    +0.047 A 
ATOM     12  C   UNL     1      12.607  12.098 -16.021  0.00  0.00    +0.035 A 
ATOM     32  C   UNL     1      12.750  12.774 -14.775  0.00  0.00    +0.024 A 
ATOM     33  C   UNL     1      11.600  13.158 -13.994  0.00  0.00    +0.007 A 
ATOM     34  C   UNL     1      10.273  12.866 -14.454  0.00  0.00    -0.029 A 
ATOM     35  C   UNL     1       9.076  13.306 -13.579  0.00  0.00    +0.045 C 
ENDROOT
BRANCH  10   9
ATOM      4  C   UNL     1       6.274  13.142 -18.434  0.00  0.00    +0.077 A 
ATOM      5  C   UNL     1       6.821  14.396 -18.865  0.00  0.00    +0.048 A 
ATOM      6  C   UNL     1       8.092  14.757 -18.364  0.00  0.00    +0.116 A 
ATOM      7  N   UNL     1       8.757  13.917 -17.497  0.00  0.00    -0.223 NA
ATOM      8  C   UNL     1       8.201  12.715 -17.100  0.00  0.00    +0.220 A 
ATOM      9  N   UNL     1       8.855  11.852 -16.235  0.00  0.00    -0.283 N 
ATOM     36  H   UNL     1       8.408  10.978 -15.960  0.00  0.00    +0.155 HD
ATOM     37  N   UNL     1       6.988  12.349 -17.563  0.00  0.00    -0.214 NA
BRANCH   4   3
ATOM      1  C   UNL     1       3.445  10.815 -19.806  0.00  0.00    +0.020 A 
ATOM      2  C   UNL     1       4.752  11.269 -19.390  0.00  0.00    +0.013 A 
ATOM      3  C   UNL     1       4.943  12.621 -18.879  0.00  0.00    +0.019 A 
ATOM     38  C   UNL     1       3.782  13.494 -18.800  0.00  0.00    +0.120 A 
ATOM     39  N   UNL     1       2.536  13.029 -19.209  0.00  0.00    -0.263 NA
ATOM     40  C   UNL     1       2.340  11.731 -19.705  0.00  0.00    +0.111 A 
ENDBRANCH   4   3
ENDBRANCH  10   9
BRANCH  12  13
ATOM     13  N   UNL     1      13.803  11.755 -16.749  0.00  0.00    -0.281 N 
ATOM     14  C   UNL     1      14.507  12.539 -17.649  0.00  0.00    +0.248 C 
ATOM     30  O   UNL     1      14.091  13.583 -18.129  0.00  0.00    -0.270 OA
ATOM     31  H   UNL     1      14.177  10.821 -16.581  0.00  0.00    +0.155 HD
BRANCH  14  15
ATOM     15  C   UNL     1      15.862  12.091 -18.092  0.00  0.00    +0.037 A 
ATOM     16  C   UNL     1      16.150  10.676 -18.343  0.00  0.00    +0.013 A 
ATOM     17  C   UNL     1      17.471  10.269 -18.753  0.00  0.00    +0.005 A 
ATOM     18  C   UNL     1      18.514  11.279 -18.914  0.00  0.00    -0.033 A 
ATOM     28  C   UNL     1      18.199  12.676 -18.663  0.00  0.00    +0.005 A 
ATOM     29  C   UNL     1      16.906  13.079 -18.260  0.00  0.00    +0.013 A 
BRANCH  18  19
ATOM     19  C   UNL     1      19.957  10.933 -19.327  0.00  0.00    +0.119 C 
BRANCH  19  20
ATOM     20  N   UNL     1      21.059  11.456 -18.466  0.00  0.00    -0.302 NA
ATOM     21  C   UNL     1      22.418  11.389 -19.168  0.00  0.00    +0.066 C 
ATOM     22  C   UNL     1      23.556  11.961 -18.261  0.00  0.00    -0.064 C 
ATOM     23  N   UNL     1      23.589  11.188 -16.941  0.00  0.00    +0.379 N 
ATOM     24  C   UNL     1      24.695  11.684 -16.110  0.00  0.00    -0.096 C 
ATOM     25  H   UNL     1      23.799  10.119 -17.181  0.00  0.00    -0.082 HD
ATOM     26  C   UNL     1      22.241  11.247 -16.238  0.00  0.00    -0.064 C 
ATOM     27  C   UNL     1      21.113  10.704 -17.159  0.00  0.00    +0.066 C 
ENDBRANCH  19  20
ENDBRANCH  18  19
ENDBRANCH  14  15
ENDBRANCH  12  13
TORSDOF 6
ENDMDL
MODEL 3
REMARK VINA RESULT:      -7.6      9.552     15.899
REMARK  Name = C:\Users\Docking\Desktop\test protocol\1iep_ligandH.pdb
REMARK  8 active torsions:
REMARK  status: ('A' for Active; 'I' for Inactive)
REMARK    1  A    between atoms: _5  and  _11
REMARK    2  A    between atoms: _19  and  _21
REMARK    3  A    between atoms: _22  and  _66
REMARK    4  A    between atoms: _27  and  _30
REMARK    5  A    between atoms: _32  and  _33
REMARK    6  A    between atoms: _38  and  _43
REMARK    7  A    between atoms: _43  and  _46
REMARK    8  A    between atoms: _53  and  _55
REMARK                            x       y       z     vdW  Elec       q    Type
REMARK                         _______ _______ _______ _____ _____    ______ ____
ROOT
ATOM     10  C   UNL     1      10.445  13.334 -14.583  0.00  0.00    +0.038 A 
ATOM     11  C   UNL     1       9.082  13.493 -14.941  0.00  0.00    +0.047 A 
ATOM     12  C   UNL     1       8.495  12.724 -16.027  0.00  0.00    +0.035 A 
ATOM     32  C   UNL     1       9.325  11.799 -16.726  0.00  0.00    +0.024 A 
ATOM     33  C   UNL     1      10.713  11.626 -16.376  0.00  0.00    +0.007 A 
ATOM     34  C   UNL     1      11.298  12.384 -15.307  0.00  0.00    -0.029 A 
ATOM     35  C   UNL     1      12.793  12.161 -14.979  0.00  0.00    +0.045 C 
ENDROOT
BRANCH  10   9
ATOM      4  C   UNL     1      11.462  14.002  -9.940  0.00  0.00    +0.077 A 
ATOM      5  C   UNL     1      10.902  12.733  -9.573  0.00  0.00    +0.048 A 
ATOM      6  C   UNL     1      10.356  11.942 -10.609  0.00  0.00    +0.116 A 
ATOM      7  N   UNL     1      10.374  12.396 -11.910  0.00  0.00    -0.223 NA
ATOM      8  C   UNL     1      10.921  13.625 -12.229  0.00  0.00    +0.220 A 
ATOM      9  N   UNL     1      10.957  14.098 -13.531  0.00  0.00    -0.283 N 
ATOM     36  H   UNL     1      11.362  15.014 -13.724  0.00  0.00    +0.155 HD
ATOM     37  N   UNL     1      11.447  14.400 -11.258  0.00  0.00    -0.214 NA
BRANCH   4   3
ATOM      1  C   UNL     1      13.430  15.464  -6.891  0.00  0.00    +0.020 A 
ATOM      2  C   UNL     1      12.855  14.506  -7.808  0.00  0.00    +0.013 A 
ATOM      3  C   UNL     1      12.079  14.951  -8.959  0.00  0.00    +0.019 A 
ATOM     38  C   UNL     1      11.905  16.382  -9.157  0.00  0.00    +0.120 A 
ATOM     39  N   UNL     1      12.469  17.280  -8.257  0.00  0.00    -0.263 NA
ATOM     40  C   UNL     1      13.216  16.864  -7.144  0.00  0.00    +0.111 A 
ENDBRANCH   4   3
ENDBRANCH  10   9
BRANCH  12  13
ATOM     13  N   UNL     1       7.119  12.849 -16.441  0.00  0.00    -0.281 N 
ATOM     14  C   UNL     1       6.634  13.231 -17.681  0.00  0.00    +0.248 C 
ATOM     30  O   UNL     1       7.314  13.733 -18.564  0.00  0.00    -0.270 OA
ATOM     31  H   UNL     1       6.418  12.628 -15.734  0.00  0.00    +0.155 HD
BRANCH  14  15
ATOM     15  C   UNL     1       5.182  13.042 -17.978  0.00  0.00    +0.037 A 
ATOM     16  C   UNL     1       4.732  12.091 -18.998  0.00  0.00    +0.013 A 
ATOM     17  C   UNL     1       3.326  11.941 -19.276  0.00  0.00    +0.005 A 
ATOM     18  C   UNL     1       2.358  12.743 -18.531  0.00  0.00    -0.033 A 
ATOM     28  C   UNL     1       2.832  13.675 -17.521  0.00  0.00    +0.005 A 
ATOM     29  C   UNL     1       4.209  13.826 -17.246  0.00  0.00    +0.013 A 
BRANCH  18  19
ATOM     19  C   UNL     1       0.840  12.664 -18.777  0.00  0.00    +0.119 C 
BRANCH  19  20
ATOM     20  N   UNL     1       0.266  11.319 -19.084  0.00  0.00    -0.302 NA
ATOM     21  C   UNL     1       0.231  11.040 -20.589  0.00  0.00    +0.066 C 
ATOM     22  C   UNL     1      -0.351   9.620 -20.891  0.00  0.00    -0.064 C 
ATOM     23  N   UNL     1      -1.751   9.507 -20.286  0.00  0.00    +0.379 N 
ATOM     24  C   UNL     1      -2.324   8.194 -20.617  0.00  0.00    -0.096 C 
ATOM     25  H   UNL     1      -2.390  10.285 -20.764  0.00  0.00    -0.082 HD
ATOM     26  C   UNL     1      -1.725   9.786 -18.790  0.00  0.00    -0.064 C 
ATOM     27  C   UNL     1      -1.118  11.187 -18.499  0.00  0.00    +0.066 C 
ENDBRANCH  19  20
ENDBRANCH  18  19
ENDBRANCH  14  15
ENDBRANCH  12  13
TORSDOF 6
ENDMDL
MODEL 4
REMARK VINA RESULT:      -7.5     21.550     26.427
REMARK  Name = C:\Users\Docking\Desktop\test protocol\1iep_ligandH.pdb
REMARK  8 active torsions:
REMARK  status: ('A' for Active; 'I' for Inactive)
REMARK    1  A    between atoms: _5  and  _11
REMARK    2  A    between atoms: _19  and  _21
REMARK    3  A    between atoms: _22  and  _66
REMARK    4  A    between atoms: _27  and  _30
REMARK    5  A    between atoms: _32  and  _33
REMARK    6  A    between atoms: _38  and  _43
REMARK    7  A    between atoms: _43  and  _46
REMARK    8  A    between atoms: _53  and  _55
REMARK                            x       y       z     vdW  Elec       q    Type
REMARK                         _______ _______ _______ _____ _____    ______ ____
ROOT
ATOM     10  C   UNL     1      10.002  -8.661 -11.061  0.00  0.00    +0.038 A 
ATOM     11  C   UNL     1       8.941  -7.803 -10.677  0.00  0.00    +0.047 A 
ATOM     12  C   UNL     1       7.552  -8.195 -10.861  0.00  0.00    +0.035 A 
ATOM     32  C   UNL     1       7.280  -9.470 -11.436  0.00  0.00    +0.024 A 
ATOM     33  C   UNL     1       8.347 -10.355 -11.834  0.00  0.00    +0.007 A 
ATOM     34  C   UNL     1       9.719  -9.973 -11.657  0.00  0.00    -0.029 A 
ATOM     35  C   UNL     1      10.822 -10.959 -12.107  0.00  0.00    +0.045 C 
ENDROOT
BRANCH  10   9
ATOM      4  C   UNL     1      14.056  -6.590 -12.582  0.00  0.00    +0.077 A 
ATOM      5  C   UNL     1      13.518  -6.363 -13.893  0.00  0.00    +0.048 A 
ATOM      6  C   UNL     1      12.197  -6.801 -14.137  0.00  0.00    +0.116 A 
ATOM      7  N   UNL     1      11.477  -7.418 -13.137  0.00  0.00    -0.223 NA
ATOM      8  C   UNL     1      12.026  -7.623 -11.885  0.00  0.00    +0.220 A 
ATOM      9  N   UNL     1      11.317  -8.234 -10.862  0.00  0.00    -0.283 N 
ATOM     36  H   UNL     1      11.760  -8.373  -9.955  0.00  0.00    +0.155 HD
ATOM     37  N   UNL     1      13.286  -7.215 -11.627  0.00  0.00    -0.214 NA
BRANCH   4   3
ATOM      1  C   UNL     1      17.083  -4.541 -11.189  0.00  0.00    +0.020 A 
ATOM      2  C   UNL     1      15.733  -4.886 -11.570  0.00  0.00    +0.013 A 
ATOM      3  C   UNL     1      15.436  -6.181 -12.170  0.00  0.00    +0.019 A 
ATOM     38  C   UNL     1      16.536  -7.111 -12.371  0.00  0.00    +0.120 A 
ATOM     39  N   UNL     1      17.827  -6.751 -11.996  0.00  0.00    -0.263 NA
ATOM     40  C   UNL     1      18.125  -5.507 -11.419  0.00  0.00    +0.111 A 
ENDBRANCH   4   3
ENDBRANCH  10   9
BRANCH  12  13
ATOM     13  N   UNL     1       6.432  -7.362 -10.497  0.00  0.00    -0.281 N 
ATOM     14  C   UNL     1       6.083  -6.907  -9.236  0.00  0.00    +0.248 C 
ATOM     30  O   UNL     1       6.563  -7.326  -8.193  0.00  0.00    -0.270 OA
ATOM     31  H   UNL     1       5.823  -7.072 -11.263  0.00  0.00    +0.155 HD
BRANCH  14  15
ATOM     15  C   UNL     1       5.040  -5.844  -9.115  0.00  0.00    +0.037 A 
ATOM     16  C   UNL     1       3.803  -5.900  -9.898  0.00  0.00    +0.013 A 
ATOM     17  C   UNL     1       2.821  -4.852  -9.775  0.00  0.00    +0.005 A 
ATOM     18  C   UNL     1       3.072  -3.739  -8.864  0.00  0.00    -0.033 A 
ATOM     28  C   UNL     1       4.305  -3.710  -8.095  0.00  0.00    +0.005 A 
ATOM     29  C   UNL     1       5.271  -4.735  -8.214  0.00  0.00    +0.013 A 
BRANCH  18  19
ATOM     19  C   UNL     1       2.089  -2.566  -8.685  0.00  0.00    +0.119 C 
BRANCH  19  20
ATOM     20  N   UNL     1       2.225  -1.411  -9.622  0.00  0.00    -0.302 NA
ATOM     21  C   UNL     1       3.214  -0.364  -9.103  0.00  0.00    +0.066 C 
ATOM     22  C   UNL     1       3.361   0.826 -10.106  0.00  0.00    -0.064 C 
ATOM     23  N   UNL     1       1.988   1.454 -10.353  0.00  0.00    +0.379 N 
ATOM     24  C   UNL     1       2.131   2.609 -11.250  0.00  0.00    -0.096 C 
ATOM     25  H   UNL     1       1.607   1.830  -9.375  0.00  0.00    -0.082 HD
ATOM     26  C   UNL     1       0.998   0.418 -10.867  0.00  0.00    -0.064 C 
ATOM     27  C   UNL     1       0.881  -0.774  -9.877  0.00  0.00    +0.066 C 
ENDBRANCH  19  20
ENDBRANCH  18  19
ENDBRANCH  14  15
ENDBRANCH  12  13
TORSDOF 6
ENDMDL
MODEL 5
REMARK VINA RESULT:      -7.4      8.515     14.137
REMARK  Name = C:\Users\Docking\Desktop\test protocol\1iep_ligandH.pdb
REMARK  8 active torsions:
REMARK  status: ('A' for Active; 'I' for Inactive)
REMARK    1  A    between atoms: _5  and  _11
REMARK    2  A    between atoms: _19  and  _21
REMARK    3  A    between atoms: _22  and  _66
REMARK    4  A    between atoms: _27  and  _30
REMARK    5  A    between atoms: _32  and  _33
REMARK    6  A    between atoms: _38  and  _43
REMARK    7  A    between atoms: _43  and  _46
REMARK    8  A    between atoms: _53  and  _55
REMARK                            x       y       z     vdW  Elec       q    Type
REMARK                         _______ _______ _______ _____ _____    ______ ____
ROOT
ATOM     10  C   UNL     1      19.176  13.708 -17.604  0.00  0.00    +0.038 A 
ATOM     11  C   UNL     1      17.846  13.627 -17.118  0.00  0.00    +0.047 A 
ATOM     12  C   UNL     1      16.708  13.743 -18.016  0.00  0.00    +0.035 A 
ATOM     32  C   UNL     1      16.961  13.938 -19.406  0.00  0.00    +0.024 A 
ATOM     33  C   UNL     1      18.306  14.024 -19.917  0.00  0.00    +0.007 A 
ATOM     34  C   UNL     1      19.433  13.913 -19.035  0.00  0.00    -0.029 A 
ATOM     35  C   UNL     1      20.853  14.018 -19.638  0.00  0.00    +0.045 C 
ENDROOT
BRANCH  10   9
ATOM      4  C   UNL     1      22.310  11.099 -15.073  0.00  0.00    +0.077 A 
ATOM      5  C   UNL     1      21.783   9.865 -15.580  0.00  0.00    +0.048 A 
ATOM      6  C   UNL     1      20.701   9.945 -16.484  0.00  0.00    +0.116 A 
ATOM      7  N   UNL     1      20.192  11.173 -16.848  0.00  0.00    -0.223 NA
ATOM      8  C   UNL     1      20.723  12.344 -16.339  0.00  0.00    +0.220 A 
ATOM      9  N   UNL     1      20.232  13.590 -16.697  0.00  0.00    -0.283 N 
ATOM     36  H   UNL     1      20.646  14.430 -16.294  0.00  0.00    +0.155 HD
ATOM     37  N   UNL     1      21.756  12.295 -15.473  0.00  0.00    -0.214 NA
BRANCH   4   3
ATOM      1  C   UNL     1      24.908  12.419 -12.463  0.00  0.00    +0.020 A 
ATOM      2  C   UNL     1      23.792  12.395 -13.380  0.00  0.00    +0.013 A 
ATOM      3  C   UNL     1      23.455  11.180 -14.112  0.00  0.00    +0.019 A 
ATOM     38  C   UNL     1      24.274   9.997 -13.889  0.00  0.00    +0.120 A 
ATOM     39  N   UNL     1      25.343  10.051 -13.001  0.00  0.00    -0.263 NA
ATOM     40  C   UNL     1      25.678  11.215 -12.293  0.00  0.00    +0.111 A 
ENDBRANCH   4   3
ENDBRANCH  10   9
BRANCH  12  13
ATOM     13  N   UNL     1      15.336  13.677 -17.579  0.00  0.00    -0.281 N 
ATOM     14  C   UNL     1      14.524  12.558 -17.488  0.00  0.00    +0.248 C 
ATOM     30  O   UNL     1      14.791  11.469 -17.974  0.00  0.00    -0.270 OA
ATOM     31  H   UNL     1      14.911  14.562 -17.303  0.00  0.00    +0.155 HD
BRANCH  14  15
ATOM     15  C   UNL     1      13.221  12.668 -16.764  0.00  0.00    +0.037 A 
ATOM     16  C   UNL     1      12.582  11.493 -16.166  0.00  0.00    +0.013 A 
ATOM     17  C   UNL     1      11.316  11.625 -15.489  0.00  0.00    +0.005 A 
ATOM     18  C   UNL     1      10.682  12.938 -15.404  0.00  0.00    -0.033 A 
ATOM     28  C   UNL     1      11.341  14.088 -16.002  0.00  0.00    +0.005 A 
ATOM     29  C   UNL     1      12.581  13.963 -16.668  0.00  0.00    +0.013 A 
BRANCH  18  19
ATOM     19  C   UNL     1       9.322  13.168 -14.719  0.00  0.00    +0.119 C 
BRANCH  19  20
ATOM     20  N   UNL     1       8.173  13.552 -15.591  0.00  0.00    -0.302 NA
ATOM     21  C   UNL     1       6.882  13.744 -14.790  0.00  0.00    +0.066 C 
ATOM     22  C   UNL     1       5.695  14.168 -15.715  0.00  0.00    -0.064 C 
ATOM     23  N   UNL     1       5.503  13.115 -16.808  0.00  0.00    +0.379 N 
ATOM     24  C   UNL     1       4.351  13.481 -17.644  0.00  0.00    -0.096 C 
ATOM     25  H   UNL     1       5.264  12.148 -16.307  0.00  0.00    -0.082 HD
ATOM     26  C   UNL     1       6.782  12.916 -17.608  0.00  0.00    -0.064 C 
ATOM     27  C   UNL     1       7.962  12.524 -16.675  0.00  0.00    +0.066 C 
ENDBRANCH  19  20
ENDBRANCH  18  19
ENDBRANCH  14  15
ENDBRANCH  12  13
TORSDOF 6
ENDMDL
