MODEL 1
REMARK VINA RESULT:      -8.1      0.000      0.000
REMARK  Name = C:\Users\Docking\Desktop\test protocol\1iep_ligandH.pdb
REMARK  8 active torsions:
REMARK  status: ('A' for Active; 'I' for Inactive)
REMARK    1  A    between atoms: _5  and  _11
REMARK    2  A    between atoms: _19  and  _21
REMARK    3  A    between atoms: _22  and  _66
REMARK    4  A    between atoms: _27  and  _30
REMARK    5  A    between atoms: _32  and  _33
REMARK    6  A    between atoms: _38  and  _43
REMARK    7  A    between atoms: _43  and  _46
REMARK    8  A    between atoms: _53  and  _55
REMARK                            x       y       z     vdW  Elec       q    Type
REMARK                         _______ _______ _______ _____ _____    ______ ____
ROOT
ATOM     10  C   UNL     1      44.384  23.765  17.944  0.00  0.00    +0.038 A 
ATOM     11  C   UNL     1      44.319  25.147  18.259  0.00  0.00    +0.047 A 
ATOM     12  C   UNL     1      43.303  25.667  19.160  0.00  0.00    +0.035 A 
ATOM     32  C   UNL     1      42.368  24.750  19.725  0.00  0.00    +0.024 A 
ATOM     33  C   UNL     1      42.418  23.343  19.415  0.00  0.00    +0.007 A 
ATOM     34  C   UNL     1      43.418  22.825  18.525  0.00  0.00    -0.029 A 
ATOM     35  C   UNL     1      43.420  21.308  18.223  0.00  0.00    +0.045 C 
ENDROOT
BRANCH  10   9
ATOM      4  C   UNL     1      48.844  22.238  17.043  0.00  0.00    +0.077 A 
ATOM      5  C   UNL     1      49.228  22.362  18.420  0.00  0.00    +0.048 A 
ATOM      6  C   UNL     1      48.250  22.830  19.327  0.00  0.00    +0.116 A 
ATOM      7  N   UNL     1      46.986  23.146  18.879  0.00  0.00    -0.223 NA
ATOM      8  C   UNL     1      46.649  23.016  17.544  0.00  0.00    +0.220 A 
ATOM      9  N   UNL     1      45.381  23.321  17.073  0.00  0.00    -0.283 N 
ATOM     36  H   UNL     1      45.174  23.218  16.080  0.00  0.00    +0.155 HD
ATOM     37  N   UNL     1      47.565  22.573  16.658  0.00  0.00    -0.214 NA
BRANCH   4   3
ATOM      1  C   UNL     1      50.219  20.808  13.672  0.00  0.00    +0.020 A 
ATOM      2  C   UNL     1      49.288  21.263  14.679  0.00  0.00    +0.013 A 
ATOM      3  C   UNL     1      49.764  21.755  15.966  0.00  0.00    +0.019 A 
ATOM     38  C   UNL     1      51.200  21.775  16.203  0.00  0.00    +0.120 A 
ATOM     39  N   UNL     1      52.072  21.329  15.215  0.00  0.00    -0.263 NA
ATOM     40  C   UNL     1      51.625  20.852  13.974  0.00  0.00    +0.111 A 
ENDBRANCH   4   3
ENDBRANCH  10   9
BRANCH  12  13
ATOM     13  N   UNL     1      43.183  27.060  19.510  0.00  0.00    -0.281 N 
ATOM     14  C   UNL     1      43.537  27.673  20.701  0.00  0.00    +0.248 C 
ATOM     30  O   UNL     1      43.814  27.074  21.730  0.00  0.00    -0.270 OA
ATOM     31  H   UNL     1      42.790  27.670  18.793  0.00  0.00    +0.155 HD
BRANCH  14  15
ATOM     15  C   UNL     1      43.575  29.165  20.762  0.00  0.00    +0.037 A 
ATOM     16  C   UNL     1      42.606  29.918  21.564  0.00  0.00    +0.013 A 
ATOM     17  C   UNL     1      42.654  31.358  21.592  0.00  0.00    +0.005 A 
ATOM     18  C   UNL     1      43.677  32.056  20.816  0.00  0.00    -0.033 A 
ATOM     28  C   UNL     1      44.628  31.285  20.034  0.00  0.00    +0.005 A 
ATOM     29  C   UNL     1      44.584  29.873  20.003  0.00  0.00    +0.013 A 
BRANCH  18  19
ATOM     19  C   UNL     1      43.789  33.591  20.770  0.00  0.00    +0.119 C 
BRANCH  19  20
ATOM     20  N   UNL     1      42.832  34.372  21.609  0.00  0.00    -0.302 NA
ATOM     21  C   UNL     1      42.435  35.695  20.948  0.00  0.00    +0.066 C 
ATOM     22  C   UNL     1      41.416  36.489  21.829  0.00  0.00    -0.064 C 
ATOM     23  N   UNL     1      42.025  36.735  23.210  0.00  0.00    +0.379 N 
ATOM     24  C   UNL     1      41.092  37.532  24.022  0.00  0.00    -0.096 C 
ATOM     25  H   UNL     1      42.951  37.339  23.069  0.00  0.00    -0.082 HD
ATOM     26  C   UNL     1      42.425  35.425  23.874  0.00  0.00    -0.064 C 
ATOM     27  C   UNL     1      43.414  34.631  22.977  0.00  0.00    +0.066 C 
ENDBRANCH  19  20
ENDBRANCH  18  19
ENDBRANCH  14  15
ENDBRANCH  12  13
TORSDOF 6
ENDMDL
MODEL 2
REMARK VINA RESULT:      -7.8     16.276     22.458
REMARK  Name = C:\Users\Docking\Desktop\test protocol\1iep_ligandH.pdb
REMARK  8 active torsions:
REMARK  status: ('A' for Active; 'I' for Inactive)
REMARK    1  A    between atoms: _5  and  _11
REMARK    2  A    between atoms: _19  and  _21
REMARK    3  A    between atoms: _22  and  _66
REMARK    4  A    between atoms: _27  and  _30
REMARK    5  A    between atoms: _32  and  _33
REMARK    6  A    between atoms: _38  and  _43
REMARK    7  A    between atoms: _43  and  _46
REMARK    8  A    between atoms: _53  and  _55
REMARK                            x       y       z     vdW  Elec       q    Type
REMARK                         _______ _______ _______ _____ _____    ______ ____
ROOT
ATOM     10  C   UNL     1      34.457  42.189  15.683  0.00  0.00    +0.038 A 
ATOM     11  C   UNL     1      33.836  43.332  15.118  0.00  0.00    +0.047 A 
ATOM     12  C   UNL     1      33.098  44.274  15.945  0.00  0.00    +0.035 A 
ATOM     32  C   UNL     1      33.016  44.022  17.346  0.00  0.00    +0.024 A 
ATOM     33  C   UNL     1      33.641  42.865  17.937  0.00  0.00    +0.007 A 
ATOM     34  C   UNL     1      34.367  41.931  17.125  0.00  0.00    -0.029 A 
ATOM     35  C   UNL     1      35.011  40.704  17.811  0.00  0.00    +0.045 C 
ENDROOT
BRANCH  10   9
ATOM      4  C   UNL     1      38.266  41.034  13.000  0.00  0.00    +0.077 A 
ATOM      5  C   UNL     1      38.914  42.284  13.277  0.00  0.00    +0.048 A 
ATOM      6  C   UNL     1      38.230  43.199  14.108  0.00  0.00    +0.116 A 
ATOM      7  N   UNL     1      36.991  42.878  14.619  0.00  0.00    -0.223 NA
ATOM      8  C   UNL     1      36.394  41.665  14.332  0.00  0.00    +0.220 A 
ATOM      9  N   UNL     1      35.153  41.317  14.841  0.00  0.00    -0.283 N 
ATOM     36  H   UNL     1      34.742  40.416  14.600  0.00  0.00    +0.155 HD
ATOM     37  N   UNL     1      37.026  40.774  13.539  0.00  0.00    -0.214 NA
BRANCH   4   3
ATOM      1  C   UNL     1      40.769  38.941  10.842  0.00  0.00    +0.020 A 
ATOM      2  C   UNL     1      40.241  40.002  11.668  0.00  0.00    +0.013 A 
ATOM      3  C   UNL     1      38.863  39.963  12.142  0.00  0.00    +0.019 A 
ATOM     38  C   UNL     1      38.039  38.826  11.759  0.00  0.00    +0.120 A 
ATOM     39  N   UNL     1      38.574  37.819  10.961  0.00  0.00    -0.263 NA
ATOM     40  C   UNL     1      39.898  37.848  10.498  0.00  0.00    +0.111 A 
ENDBRANCH   4   3
ENDBRANCH  10   9
BRANCH  12  13
ATOM     13  N   UNL     1      32.440  45.447  15.427  0.00  0.00    -0.281 N 
ATOM     14  C   UNL     1      32.957  46.726  15.296  0.00  0.00    +0.248 C 
ATOM     30  O   UNL     1      34.000  47.105  15.806  0.00  0.00    -0.270 OA
ATOM     31  H   UNL     1      31.476  45.319  15.118  0.00  0.00    +0.155 HD
BRANCH  14  15
ATOM     15  C   UNL     1      32.197  47.733  14.494  0.00  0.00    +0.037 A 
ATOM     16  C   UNL     1      31.352  47.327  13.369  0.00  0.00    +0.013 A 
ATOM     17  C   UNL     1      30.643  48.320  12.601  0.00  0.00    +0.005 A 
ATOM     18  C   UNL     1      30.777  49.731  12.958  0.00  0.00    -0.033 A 
ATOM     28  C   UNL     1      31.618  50.105  14.083  0.00  0.00    +0.005 A 
ATOM     29  C   UNL     1      32.315  49.134  14.837  0.00  0.00    +0.013 A 
BRANCH  18  19
ATOM     19  C   UNL     1      30.074  50.860  12.182  0.00  0.00    +0.119 C 
BRANCH  19  20
ATOM     20  N   UNL     1      30.544  51.128  10.790  0.00  0.00    -0.302 NA
ATOM     21  C   UNL     1      30.837  52.613  10.558  0.00  0.00    +0.066 C 
ATOM     22  C   UNL     1      31.349  52.871   9.103  0.00  0.00    -0.064 C 
ATOM     23  N   UNL     1      30.310  52.362   8.102  0.00  0.00    +0.379 N 
ATOM     24  C   UNL     1      30.762  52.656   6.735  0.00  0.00    -0.096 C 
ATOM     25  H   UNL     1      29.367  52.929   8.277  0.00  0.00    -0.082 HD
ATOM     26  C   UNL     1      30.010  50.887   8.328  0.00  0.00    -0.064 C 
ATOM     27  C   UNL     1      29.531  50.636   9.785  0.00  0.00    +0.066 C 
ENDBRANCH  19  20
ENDBRANCH  18  19
ENDBRANCH  14  15
ENDBRANCH  12  13
TORSDOF 6
ENDMDL
MODEL 3
REMARK VINA RESULT:      -7.7      6.198     15.498
REMARK  Name = C:\Users\Docking\Desktop\test protocol\1iep_ligandH.pdb
REMARK  8 active torsions:
REMARK  status: ('A' for Active; 'I' for Inactive)
REMARK    1  A    between atoms: _5  and  _11
REMARK    2  A    between atoms: _19  and  _21
REMARK    3  A    between atoms: _22  and  _66
REMARK    4  A    between atoms: _27  and  _30
REMARK    5  A    between atoms: _32  and  _33
REMARK    6  A    between atoms: _38  and  _43
REMARK    7  A    between atoms: _43  and  _46
REMARK    8  A    between atoms: _53  and  _55
REMARK                            x       y       z     vdW  Elec       q    Type
REMARK                         _______ _______ _______ _____ _____    ______ ____
ROOT
ATOM     10  C   UNL     1      50.570  22.064  16.214  0.00  0.00    +0.038 A 
ATOM     11  C   UNL     1      50.890  22.058  14.832  0.00  0.00    +0.047 A 
ATOM     12  C   UNL     1      51.974  21.237  14.314  0.00  0.00    +0.035 A 
ATOM     32  C   UNL     1      52.710  20.433  15.232  0.00  0.00    +0.024 A 
ATOM     33  C   UNL     1      52.399  20.427  16.640  0.00  0.00    +0.007 A 
ATOM     34  C   UNL     1      51.332  21.236  17.157  0.00  0.00    -0.029 A 
ATOM     35  C   UNL     1      51.047  21.196  18.676  0.00  0.00    +0.045 C 
ENDROOT
BRANCH  10   9
ATOM      4  C   UNL     1      45.936  22.802  17.223  0.00  0.00    +0.077 A 
ATOM      5  C   UNL     1      45.574  21.477  16.808  0.00  0.00    +0.048 A 
ATOM      6  C   UNL     1      46.608  20.639  16.335  0.00  0.00    +0.116 A 
ATOM      7  N   UNL     1      47.905  21.103  16.285  0.00  0.00    -0.223 NA
ATOM      8  C   UNL     1      48.220  22.386  16.691  0.00  0.00    +0.220 A 
ATOM      9  N   UNL     1      49.519  22.870  16.656  0.00  0.00    -0.283 N 
ATOM     36  H   UNL     1      49.709  23.825  16.958  0.00  0.00    +0.155 HD
ATOM     37  N   UNL     1      47.250  23.206  17.146  0.00  0.00    -0.214 NA
BRANCH   4   3
ATOM      1  C   UNL     1      43.952  25.187  19.605  0.00  0.00    +0.020 A 
ATOM      2  C   UNL     1      44.918  24.216  19.147  0.00  0.00    +0.013 A 
ATOM      3  C   UNL     1      44.956  23.803  17.750  0.00  0.00    +0.019 A 
ATOM     38  C   UNL     1      43.994  24.398  16.834  0.00  0.00    +0.120 A 
ATOM     39  N   UNL     1      43.074  25.330  17.304  0.00  0.00    -0.263 NA
ATOM     40  C   UNL     1      43.028  25.734  18.646  0.00  0.00    +0.111 A 
ENDBRANCH   4   3
ENDBRANCH  10   9
BRANCH  12  13
ATOM     13  N   UNL     1      52.350  21.197  12.923  0.00  0.00    -0.281 N 
ATOM     14  C   UNL     1      51.915  20.313  11.949  0.00  0.00    +0.248 C 
ATOM     30  O   UNL     1      51.296  19.284  12.176  0.00  0.00    -0.270 OA
ATOM     31  H   UNL     1      53.017  21.906  12.619  0.00  0.00    +0.155 HD
BRANCH  14  15
ATOM     15  C   UNL     1      52.226  20.607  10.517  0.00  0.00    +0.037 A 
ATOM     16  C   UNL     1      52.547  19.533   9.573  0.00  0.00    +0.013 A 
ATOM     17  C   UNL     1      52.860  19.846   8.201  0.00  0.00    +0.005 A 
ATOM     18  C   UNL     1      52.850  21.240   7.764  0.00  0.00    -0.033 A 
ATOM     28  C   UNL     1      52.523  22.284   8.720  0.00  0.00    +0.005 A 
ATOM     29  C   UNL     1      52.217  21.982  10.066  0.00  0.00    +0.013 A 
BRANCH  18  19
ATOM     19  C   UNL     1      53.192  21.667   6.324  0.00  0.00    +0.119 C 
BRANCH  19  20
ATOM     20  N   UNL     1      54.631  21.639   5.926  0.00  0.00    -0.302 NA
ATOM     21  C   UNL     1      55.436  22.752   6.602  0.00  0.00    +0.066 C 
ATOM     22  C   UNL     1      56.944  22.693   6.192  0.00  0.00    -0.064 C 
ATOM     23  N   UNL     1      57.059  22.790   4.669  0.00  0.00    +0.379 N 
ATOM     24  C   UNL     1      58.478  22.794   4.284  0.00  0.00    -0.096 C 
ATOM     25  H   UNL     1      56.621  23.768   4.359  0.00  0.00    -0.082 HD
ATOM     26  C   UNL     1      56.259  21.689   3.989  0.00  0.00    -0.064 C 
ATOM     27  C   UNL     1      54.768  21.738   4.426  0.00  0.00    +0.066 C 
ENDBRANCH  19  20
ENDBRANCH  18  19
ENDBRANCH  14  15
ENDBRANCH  12  13
TORSDOF 6
ENDMDL
MODEL 4
REMARK VINA RESULT:      -7.6     27.111     28.788
REMARK  Name = C:\Users\Docking\Desktop\test protocol\1iep_ligandH.pdb
REMARK  8 active torsions:
REMARK  status: ('A' for Active; 'I' for Inactive)
REMARK    1  A    between atoms: _5  and  _11
REMARK    2  A    between atoms: _19  and  _21
REMARK    3  A    between atoms: _22  and  _66
REMARK    4  A    between atoms: _27  and  _30
REMARK    5  A    between atoms: _32  and  _33
REMARK    6  A    between atoms: _38  and  _43
REMARK    7  A    between atoms: _43  and  _46
REMARK    8  A    between atoms: _53  and  _55
REMARK                            x       y       z     vdW  Elec       q    Type
REMARK                         _______ _______ _______ _____ _____    ______ ____
ROOT
ATOM     10  C   UNL     1      25.751  27.603   0.138  0.00  0.00    +0.038 A 
ATOM     11  C   UNL     1      24.669  28.084   0.919  0.00  0.00    +0.047 A 
ATOM     12  C   UNL     1      23.344  27.492   0.816  0.00  0.00    +0.035 A 
ATOM     32  C   UNL     1      23.158  26.408  -0.090  0.00  0.00    +0.024 A 
ATOM     33  C   UNL     1      24.246  25.906  -0.892  0.00  0.00    +0.007 A 
ATOM     34  C   UNL     1      25.554  26.488  -0.797  0.00  0.00    -0.029 A 
ATOM     35  C   UNL     1      26.682  25.914  -1.686  0.00  0.00    +0.045 C 
ENDROOT
BRANCH  10   9
ATOM      4  C   UNL     1      29.013  30.904  -1.085  0.00  0.00    +0.077 A 
ATOM      5  C   UNL     1      28.165  31.450  -2.105  0.00  0.00    +0.048 A 
ATOM      6  C   UNL     1      26.899  30.848  -2.288  0.00  0.00    +0.116 A 
ATOM      7  N   UNL     1      26.521  29.780  -1.503  0.00  0.00    -0.223 NA
ATOM      8  C   UNL     1      27.364  29.277  -0.529  0.00  0.00    +0.220 A 
ATOM      9  N   UNL     1      27.001  28.209   0.276  0.00  0.00    -0.283 N 
ATOM     36  H   UNL     1      27.655  27.862   0.978  0.00  0.00    +0.155 HD
ATOM     37  N   UNL     1      28.578  29.833  -0.336  0.00  0.00    -0.214 NA
BRANCH   4   3
ATOM      1  C   UNL     1      32.537  31.413   0.534  0.00  0.00    +0.020 A 
ATOM      2  C   UNL     1      31.227  30.865   0.269  0.00  0.00    +0.013 A 
ATOM      3  C   UNL     1      30.378  31.433  -0.770  0.00  0.00    +0.019 A 
ATOM     38  C   UNL     1      30.888  32.564  -1.530  0.00  0.00    +0.120 A 
ATOM     39  N   UNL     1      32.154  33.071  -1.252  0.00  0.00    -0.263 NA
ATOM     40  C   UNL     1      32.979  32.534  -0.254  0.00  0.00    +0.111 A 
ENDBRANCH   4   3
ENDBRANCH  10   9
BRANCH  12  13
ATOM     13  N   UNL     1      22.206  27.944   1.577  0.00  0.00    -0.281 N 
ATOM     14  C   UNL     1      21.086  28.616   1.116  0.00  0.00    +0.248 C 
ATOM     30  O   UNL     1      20.992  29.123   0.008  0.00  0.00    -0.270 OA
ATOM     31  H   UNL     1      22.229  27.743   2.577  0.00  0.00    +0.155 HD
BRANCH  14  15
ATOM     15  C   UNL     1      19.907  28.760   2.023  0.00  0.00    +0.037 A 
ATOM     16  C   UNL     1      19.361  30.078   2.356  0.00  0.00    +0.013 A 
ATOM     17  C   UNL     1      18.232  30.189   3.247  0.00  0.00    +0.005 A 
ATOM     18  C   UNL     1      17.642  28.977   3.809  0.00  0.00    -0.033 A 
ATOM     28  C   UNL     1      18.200  27.682   3.457  0.00  0.00    +0.005 A 
ATOM     29  C   UNL     1      19.306  27.569   2.585  0.00  0.00    +0.013 A 
BRANCH  18  19
ATOM     19  C   UNL     1      16.450  29.002   4.784  0.00  0.00    +0.119 C 
BRANCH  19  20
ATOM     20  N   UNL     1      16.752  28.845   6.238  0.00  0.00    -0.302 NA
ATOM     21  C   UNL     1      18.254  28.924   6.524  0.00  0.00    +0.066 C 
ATOM     22  C   UNL     1      18.551  28.780   8.052  0.00  0.00    -0.064 C 
ATOM     23  N   UNL     1      17.971  27.458   8.559  0.00  0.00    +0.379 N 
ATOM     24  C   UNL     1      18.299  27.292   9.983  0.00  0.00    -0.096 C 
ATOM     25  H   UNL     1      18.470  26.633   7.999  0.00  0.00    -0.082 HD
ATOM     26  C   UNL     1      16.478  27.370   8.276  0.00  0.00    -0.064 C 
ATOM     27  C   UNL     1      16.192  27.544   6.758  0.00  0.00    +0.066 C 
ENDBRANCH  19  20
ENDBRANCH  18  19
ENDBRANCH  14  15
ENDBRANCH  12  13
TORSDOF 6
ENDMDL
MODEL 5
REMARK VINA RESULT:      -7.6     17.821     21.945
REMARK  Name = C:\Users\Docking\Desktop\test protocol\1iep_ligandH.pdb
REMARK  8 active torsions:
REMARK  status: ('A' for Active; 'I' for Inactive)
REMARK    1  A    between atoms: _5  and  _11
REMARK    2  A    between atoms: _19  and  _21
REMARK    3  A    between atoms: _22  and  _66
REMARK    4  A    between atoms: _27  and  _30
REMARK    5  A    between atoms: _32  and  _33
REMARK    6  A    between atoms: _38  and  _43
REMARK    7  A    between atoms: _43  and  _46
REMARK    8  A    between atoms: _53  and  _55
REMARK                            x       y       z     vdW  Elec       q    Type
REMARK                         _______ _______ _______ _____ _____    ______ ____
ROOT
ATOM     10  C   UNL     1      35.968  42.516  14.743  0.00  0.00    +0.038 A 
ATOM     11  C   UNL     1      36.128  43.919  14.876  0.00  0.00    +0.047 A 
ATOM     12  C   UNL     1      37.171  44.629  14.153  0.00  0.00    +0.035 A 
ATOM     32  C   UNL     1      38.034  43.879  13.301  0.00  0.00    +0.024 A 
ATOM     33  C   UNL     1      37.886  42.453  13.155  0.00  0.00    +0.007 A 
ATOM     34  C   UNL     1      36.860  41.746  13.867  0.00  0.00    -0.029 A 
ATOM     35  C   UNL     1      36.753  40.215  13.677  0.00  0.00    +0.045 C 
ENDROOT
BRANCH  10   9
ATOM      4  C   UNL     1      34.241  40.455  18.719  0.00  0.00    +0.077 A 
ATOM      5  C   UNL     1      35.482  40.627  19.418  0.00  0.00    +0.048 A 
ATOM      6  C   UNL     1      36.542  41.243  18.716  0.00  0.00    +0.116 A 
ATOM      7  N   UNL     1      36.363  41.654  17.413  0.00  0.00    -0.223 NA
ATOM      8  C   UNL     1      35.154  41.472  16.767  0.00  0.00    +0.220 A 
ATOM      9  N   UNL     1      34.950  41.884  15.460  0.00  0.00    -0.283 N 
ATOM     36  H   UNL     1      34.045  41.725  15.017  0.00  0.00    +0.155 HD
ATOM     37  N   UNL     1      34.127  40.884  17.415  0.00  0.00    -0.214 NA
BRANCH   4   3
ATOM      1  C   UNL     1      31.052  38.256  19.260  0.00  0.00    +0.020 A 
ATOM      2  C   UNL     1      32.215  38.836  18.628  0.00  0.00    +0.013 A 
ATOM      3  C   UNL     1      33.027  39.824  19.326  0.00  0.00    +0.019 A 
ATOM     38  C   UNL     1      32.633  40.206  20.674  0.00  0.00    +0.120 A 
ATOM     39  N   UNL     1      31.507  39.632  21.256  0.00  0.00    -0.263 NA
ATOM     40  C   UNL     1      30.717  38.682  20.593  0.00  0.00    +0.111 A 
ENDBRANCH   4   3
ENDBRANCH  10   9
BRANCH  12  13
ATOM     13  N   UNL     1      37.386  46.051  14.255  0.00  0.00    -0.281 N 
ATOM     14  C   UNL     1      37.058  47.030  13.331  0.00  0.00    +0.248 C 
ATOM     30  O   UNL     1      36.721  46.808  12.178  0.00  0.00    -0.270 OA
ATOM     31  H   UNL     1      37.835  46.376  15.112  0.00  0.00    +0.155 HD
BRANCH  14  15
ATOM     15  C   UNL     1      37.129  48.465  13.744  0.00  0.00    +0.037 A 
ATOM     16  C   UNL     1      37.757  49.473  12.887  0.00  0.00    +0.013 A 
ATOM     17  C   UNL     1      37.827  50.847  13.316  0.00  0.00    +0.005 A 
ATOM     18  C   UNL     1      37.265  51.221  14.612  0.00  0.00    -0.033 A 
ATOM     28  C   UNL     1      36.642  50.202  15.441  0.00  0.00    +0.005 A 
ATOM     29  C   UNL     1      36.573  48.854  15.023  0.00  0.00    +0.013 A 
BRANCH  18  19
ATOM     19  C   UNL     1      37.313  52.660  15.160  0.00  0.00    +0.119 C 
BRANCH  19  20
ATOM     20  N   UNL     1      37.651  52.830  16.605  0.00  0.00    -0.302 NA
ATOM     21  C   UNL     1      36.559  53.589  17.365  0.00  0.00    +0.066 C 
ATOM     22  C   UNL     1      36.918  53.738  18.879  0.00  0.00    -0.064 C 
ATOM     23  N   UNL     1      38.266  54.449  19.013  0.00  0.00    +0.379 N 
ATOM     24  C   UNL     1      38.579  54.642  20.437  0.00  0.00    -0.096 C 
ATOM     25  H   UNL     1      38.164  55.457  18.549  0.00  0.00    -0.082 HD
ATOM     26  C   UNL     1      39.357  53.701  18.259  0.00  0.00    -0.064 C 
ATOM     27  C   UNL     1      38.977  53.533  16.761  0.00  0.00    +0.066 C 
ENDBRANCH  19  20
ENDBRANCH  18  19
ENDBRANCH  14  15
ENDBRANCH  12  13
TORSDOF 6
ENDMDL
