MODEL 1
REMARK VINA RESULT:      -7.3      0.000      0.000
REMARK  Name = C:\Users\Docking\Desktop\test protocol\1iep_ligandH.pdb
REMARK  8 active torsions:
REMARK  status: ('A' for Active; 'I' for Inactive)
REMARK    1  A    between atoms: _5  and  _11
REMARK    2  A    between atoms: _19  and  _21
REMARK    3  A    between atoms: _22  and  _66
REMARK    4  A    between atoms: _27  and  _30
REMARK    5  A    between atoms: _32  and  _33
REMARK    6  A    between atoms: _38  and  _43
REMARK    7  A    between atoms: _43  and  _46
REMARK    8  A    between atoms: _53  and  _55
REMARK                            x       y       z     vdW  Elec       q    Type
REMARK                         _______ _______ _______ _____ _____    ______ ____
ROOT
ATOM     10  C   UNL     1      10.149  31.449  18.680  0.00  0.00    +0.038 A 
ATOM     11  C   UNL     1       8.775  31.785  18.793  0.00  0.00    +0.047 A 
ATOM     12  C   UNL     1       8.202  32.877  18.022  0.00  0.00    +0.035 A 
ATOM     32  C   UNL     1       9.056  33.605  17.143  0.00  0.00    +0.024 A 
ATOM     33  C   UNL     1      10.454  33.278  17.017  0.00  0.00    +0.007 A 
ATOM     34  C   UNL     1      11.026  32.204  17.777  0.00  0.00    -0.029 A 
ATOM     35  C   UNL     1      12.533  31.902  17.606  0.00  0.00    +0.045 C 
ENDROOT
BRANCH  10   9
ATOM      4  C   UNL     1      11.027  29.313  22.887  0.00  0.00    +0.077 A 
ATOM      5  C   UNL     1      10.471  30.409  23.627  0.00  0.00    +0.048 A 
ATOM      6  C   UNL     1       9.976  31.507  22.888  0.00  0.00    +0.116 A 
ATOM      7  N   UNL     1      10.038  31.498  21.511  0.00  0.00    -0.223 NA
ATOM      8  C   UNL     1      10.582  30.425  20.828  0.00  0.00    +0.220 A 
ATOM      9  N   UNL     1      10.646  30.391  19.444  0.00  0.00    -0.283 N 
ATOM     36  H   UNL     1      11.062  29.585  18.978  0.00  0.00    +0.155 HD
ATOM     37  N   UNL     1      11.062  29.366  21.512  0.00  0.00    -0.214 NA
BRANCH   4   3
ATOM      1  C   UNL     1      13.423  26.804  24.695  0.00  0.00    +0.020 A 
ATOM      2  C   UNL     1      12.930  28.020  24.089  0.00  0.00    +0.013 A 
ATOM      3  C   UNL     1      11.587  28.080  23.526  0.00  0.00    +0.019 A 
ATOM     38  C   UNL     1      10.761  26.884  23.593  0.00  0.00    +0.120 A 
ATOM     39  N   UNL     1      11.263  25.727  24.182  0.00  0.00    -0.263 NA
ATOM     40  C   UNL     1      12.554  25.657  24.725  0.00  0.00    +0.111 A 
ENDBRANCH   4   3
ENDBRANCH  10   9
BRANCH  12  13
ATOM     13  N   UNL     1       6.816  33.269  18.101  0.00  0.00    -0.281 N 
ATOM     14  C   UNL     1       5.824  33.087  17.151  0.00  0.00    +0.248 C 
ATOM     30  O   UNL     1       6.029  32.749  15.994  0.00  0.00    -0.270 OA
ATOM     31  H   UNL     1       6.532  33.736  18.961  0.00  0.00    +0.155 HD
BRANCH  14  15
ATOM     15  C   UNL     1       4.401  33.331  17.537  0.00  0.00    +0.037 A 
ATOM     16  C   UNL     1       3.373  32.306  17.336  0.00  0.00    +0.013 A 
ATOM     17  C   UNL     1       2.005  32.573  17.702  0.00  0.00    +0.005 A 
ATOM     18  C   UNL     1       1.657  33.871  18.274  0.00  0.00    -0.033 A 
ATOM     28  C   UNL     1       2.697  34.867  18.467  0.00  0.00    +0.005 A 
ATOM     29  C   UNL     1       4.039  34.610  18.109  0.00  0.00    +0.013 A 
BRANCH  18  19
ATOM     19  C   UNL     1       0.218  34.250  18.674  0.00  0.00    +0.119 C 
BRANCH  19  20
ATOM     20  N   UNL     1      -0.110  35.705  18.748  0.00  0.00    -0.302 NA
ATOM     21  C   UNL     1      -0.434  36.148  20.178  0.00  0.00    +0.066 C 
ATOM     22  C   UNL     1      -0.753  37.678  20.241  0.00  0.00    -0.064 C 
ATOM     23  N   UNL     1      -1.916  37.993  19.299  0.00  0.00    +0.379 N 
ATOM     24  C   UNL     1      -2.256  39.419  19.399  0.00  0.00    -0.096 C 
ATOM     25  H   UNL     1      -2.800  37.409  19.647  0.00  0.00    -0.082 HD
ATOM     26  C   UNL     1      -1.603  37.553  17.876  0.00  0.00    -0.064 C 
ATOM     27  C   UNL     1      -1.259  36.038  17.829  0.00  0.00    +0.066 C 
ENDBRANCH  19  20
ENDBRANCH  18  19
ENDBRANCH  14  15
ENDBRANCH  12  13
TORSDOF 6
ENDMDL
MODEL 2
REMARK VINA RESULT:      -6.9      6.676     12.621
REMARK  Name = C:\Users\Docking\Desktop\test protocol\1iep_ligandH.pdb
REMARK  8 active torsions:
REMARK  status: ('A' for Active; 'I' for Inactive)
REMARK    1  A    between atoms: _5  and  _11
REMARK    2  A    between atoms: _19  and  _21
REMARK    3  A    between atoms: _22  and  _66
REMARK    4  A    between atoms: _27  and  _30
REMARK    5  A    between atoms: _32  and  _33
REMARK    6  A    between atoms: _38  and  _43
REMARK    7  A    between atoms: _43  and  _46
REMARK    8  A    between atoms: _53  and  _55
REMARK                            x       y       z     vdW  Elec       q    Type
REMARK                         _______ _______ _______ _____ _____    ______ ____
ROOT
ATOM     10  C   UNL     1      15.381  21.574  23.836  0.00  0.00    +0.038 A 
ATOM     11  C   UNL     1      14.758  22.838  23.674  0.00  0.00    +0.047 A 
ATOM     12  C   UNL     1      13.343  23.022  23.955  0.00  0.00    +0.035 A 
ATOM     32  C   UNL     1      12.592  21.897  24.404  0.00  0.00    +0.024 A 
ATOM     33  C   UNL     1      13.208  20.604  24.573  0.00  0.00    +0.007 A 
ATOM     34  C   UNL     1      14.603  20.416  24.295  0.00  0.00    -0.029 A 
ATOM     35  C   UNL     1      15.210  19.007  24.488  0.00  0.00    +0.045 C 
ENDROOT
BRANCH  10   9
ATOM      4  C   UNL     1      20.005  21.805  25.101  0.00  0.00    +0.077 A 
ATOM      5  C   UNL     1      19.681  22.225  26.433  0.00  0.00    +0.048 A 
ATOM      6  C   UNL     1      18.313  22.377  26.751  0.00  0.00    +0.116 A 
ATOM      7  N   UNL     1      17.349  22.124  25.799  0.00  0.00    -0.223 NA
ATOM      8  C   UNL     1      17.696  21.722  24.523  0.00  0.00    +0.220 A 
ATOM      9  N   UNL     1      16.743  21.454  23.552  0.00  0.00    -0.283 N 
ATOM     36  H   UNL     1      17.040  21.167  22.620  0.00  0.00    +0.155 HD
ATOM     37  N   UNL     1      18.996  21.571  24.194  0.00  0.00    -0.214 NA
BRANCH   4   3
ATOM      1  C   UNL     1      23.304  22.035  23.012  0.00  0.00    +0.020 A 
ATOM      2  C   UNL     1      21.945  22.270  23.439  0.00  0.00    +0.013 A 
ATOM      3  C   UNL     1      21.406  21.597  24.614  0.00  0.00    +0.019 A 
ATOM     38  C   UNL     1      22.276  20.684  25.340  0.00  0.00    +0.120 A 
ATOM     39  N   UNL     1      23.580  20.475  24.904  0.00  0.00    -0.263 NA
ATOM     40  C   UNL     1      24.109  21.117  23.774  0.00  0.00    +0.111 A 
ENDBRANCH   4   3
ENDBRANCH  10   9
BRANCH  12  13
ATOM     13  N   UNL     1      12.655  24.280  23.801  0.00  0.00    -0.281 N 
ATOM     14  C   UNL     1      12.412  25.242  24.768  0.00  0.00    +0.248 C 
ATOM     30  O   UNL     1      12.565  25.070  25.968  0.00  0.00    -0.270 OA
ATOM     31  H   UNL     1      12.304  24.486  22.865  0.00  0.00    +0.155 HD
BRANCH  14  15
ATOM     15  C   UNL     1      11.915  26.585  24.340  0.00  0.00    +0.037 A 
ATOM     16  C   UNL     1      10.503  26.805  24.017  0.00  0.00    +0.013 A 
ATOM     17  C   UNL     1      10.052  28.106  23.591  0.00  0.00    +0.005 A 
ATOM     18  C   UNL     1      11.016  29.199  23.488  0.00  0.00    -0.033 A 
ATOM     28  C   UNL     1      12.410  28.955  23.819  0.00  0.00    +0.005 A 
ATOM     29  C   UNL     1      12.855  27.680  24.236  0.00  0.00    +0.013 A 
BRANCH  18  19
ATOM     19  C   UNL     1      10.628  30.615  23.021  0.00  0.00    +0.119 C 
BRANCH  19  20
ATOM     20  N   UNL     1      10.090  30.754  21.635  0.00  0.00    -0.302 NA
ATOM     21  C   UNL     1      10.998  30.089  20.597  0.00  0.00    +0.066 C 
ATOM     22  C   UNL     1      10.408  30.225  19.155  0.00  0.00    -0.064 C 
ATOM     23  N   UNL     1      10.206  31.706  18.828  0.00  0.00    +0.379 N 
ATOM     24  C   UNL     1       9.706  31.840  17.452  0.00  0.00    -0.096 C 
ATOM     25  H   UNL     1      11.203  32.202  18.876  0.00  0.00    -0.082 HD
ATOM     26  C   UNL     1       9.306  32.376  19.857  0.00  0.00    -0.064 C 
ATOM     27  C   UNL     1       9.886  32.209  21.290  0.00  0.00    +0.066 C 
ENDBRANCH  19  20
ENDBRANCH  18  19
ENDBRANCH  14  15
ENDBRANCH  12  13
TORSDOF 6
ENDMDL
MODEL 3
REMARK VINA RESULT:      -6.9      3.702      4.867
REMARK  Name = C:\Users\Docking\Desktop\test protocol\1iep_ligandH.pdb
REMARK  8 active torsions:
REMARK  status: ('A' for Active; 'I' for Inactive)
REMARK    1  A    between atoms: _5  and  _11
REMARK    2  A    between atoms: _19  and  _21
REMARK    3  A    between atoms: _22  and  _66
REMARK    4  A    between atoms: _27  and  _30
REMARK    5  A    between atoms: _32  and  _33
REMARK    6  A    between atoms: _38  and  _43
REMARK    7  A    between atoms: _43  and  _46
REMARK    8  A    between atoms: _53  and  _55
REMARK                            x       y       z     vdW  Elec       q    Type
REMARK                         _______ _______ _______ _____ _____    ______ ____
ROOT
ATOM     10  C   UNL     1      11.161  30.294  19.408  0.00  0.00    +0.038 A 
ATOM     11  C   UNL     1       9.979  30.740  18.763  0.00  0.00    +0.047 A 
ATOM     12  C   UNL     1      10.019  31.798  17.766  0.00  0.00    +0.035 A 
ATOM     32  C   UNL     1      11.282  32.379  17.448  0.00  0.00    +0.024 A 
ATOM     33  C   UNL     1      12.493  31.939  18.095  0.00  0.00    +0.007 A 
ATOM     34  C   UNL     1      12.459  30.897  19.081  0.00  0.00    -0.029 A 
ATOM     35  C   UNL     1      13.788  30.469  19.746  0.00  0.00    +0.045 C 
ENDROOT
BRANCH  10   9
ATOM      4  C   UNL     1      10.341  28.730  23.871  0.00  0.00    +0.077 A 
ATOM      5  C   UNL     1      10.111  30.060  24.358  0.00  0.00    +0.048 A 
ATOM      6  C   UNL     1      10.221  31.119  23.430  0.00  0.00    +0.116 A 
ATOM      7  N   UNL     1      10.537  30.856  22.114  0.00  0.00    -0.223 NA
ATOM      8  C   UNL     1      10.754  29.562  21.678  0.00  0.00    +0.220 A 
ATOM      9  N   UNL     1      11.065  29.274  20.358  0.00  0.00    -0.283 N 
ATOM     36  H   UNL     1      11.224  28.307  20.077  0.00  0.00    +0.155 HD
ATOM     37  N   UNL     1      10.656  28.534  22.545  0.00  0.00    -0.214 NA
BRANCH   4   3
ATOM      1  C   UNL     1       9.130  26.065  26.466  0.00  0.00    +0.020 A 
ATOM      2  C   UNL     1       9.163  27.264  25.660  0.00  0.00    +0.013 A 
ATOM      3  C   UNL     1      10.258  27.506  24.730  0.00  0.00    +0.019 A 
ATOM     38  C   UNL     1      11.312  26.508  24.637  0.00  0.00    +0.120 A 
ATOM     39  N   UNL     1      11.255  25.364  25.427  0.00  0.00    -0.263 NA
ATOM     40  C   UNL     1      10.207  25.121  26.327  0.00  0.00    +0.111 A 
ENDBRANCH   4   3
ENDBRANCH  10   9
BRANCH  12  13
ATOM     13  N   UNL     1       8.851  32.298  17.084  0.00  0.00    -0.281 N 
ATOM     14  C   UNL     1       7.624  32.634  17.632  0.00  0.00    +0.248 C 
ATOM     30  O   UNL     1       7.274  32.352  18.769  0.00  0.00    -0.270 OA
ATOM     31  H   UNL     1       8.940  32.418  16.075  0.00  0.00    +0.155 HD
BRANCH  14  15
ATOM     15  C   UNL     1       6.637  33.377  16.791  0.00  0.00    +0.037 A 
ATOM     16  C   UNL     1       7.021  34.589  16.063  0.00  0.00    +0.013 A 
ATOM     17  C   UNL     1       6.045  35.297  15.273  0.00  0.00    +0.005 A 
ATOM     18  C   UNL     1       4.675  34.793  15.206  0.00  0.00    -0.033 A 
ATOM     28  C   UNL     1       4.323  33.586  15.934  0.00  0.00    +0.005 A 
ATOM     29  C   UNL     1       5.277  32.890  16.711  0.00  0.00    +0.013 A 
BRANCH  18  19
ATOM     19  C   UNL     1       3.564  35.496  14.404  0.00  0.00    +0.119 C 
BRANCH  19  20
ATOM     20  N   UNL     1       3.627  35.397  12.916  0.00  0.00    -0.302 NA
ATOM     21  C   UNL     1       4.466  36.520  12.300  0.00  0.00    +0.066 C 
ATOM     22  C   UNL     1       4.540  36.388  10.744  0.00  0.00    -0.064 C 
ATOM     23  N   UNL     1       3.123  36.391  10.167  0.00  0.00    +0.379 N 
ATOM     24  C   UNL     1       3.191  36.326   8.700  0.00  0.00    -0.096 C 
ATOM     25  H   UNL     1       2.649  37.363  10.440  0.00  0.00    -0.082 HD
ATOM     26  C   UNL     1       2.281  35.279  10.776  0.00  0.00    -0.064 C 
ATOM     27  C   UNL     1       2.238  35.403  12.324  0.00  0.00    +0.066 C 
ENDBRANCH  19  20
ENDBRANCH  18  19
ENDBRANCH  14  15
ENDBRANCH  12  13
TORSDOF 6
ENDMDL
MODEL 4
REMARK VINA RESULT:      -6.6     20.059     24.097
REMARK  Name = C:\Users\Docking\Desktop\test protocol\1iep_ligandH.pdb
REMARK  8 active torsions:
REMARK  status: ('A' for Active; 'I' for Inactive)
REMARK    1  A    between atoms: _5  and  _11
REMARK    2  A    between atoms: _19  and  _21
REMARK    3  A    between atoms: _22  and  _66
REMARK    4  A    between atoms: _27  and  _30
REMARK    5  A    between atoms: _32  and  _33
REMARK    6  A    between atoms: _38  and  _43
REMARK    7  A    between atoms: _43  and  _46
REMARK    8  A    between atoms: _53  and  _55
REMARK                            x       y       z     vdW  Elec       q    Type
REMARK                         _______ _______ _______ _____ _____    ______ ____
ROOT
ATOM     10  C   UNL     1     -10.199  15.814  25.280  0.00  0.00    +0.038 A 
ATOM     11  C   UNL     1      -8.963  16.503  25.387  0.00  0.00    +0.047 A 
ATOM     12  C   UNL     1      -8.087  16.302  26.531  0.00  0.00    +0.035 A 
ATOM     32  C   UNL     1      -8.500  15.390  27.546  0.00  0.00    +0.024 A 
ATOM     33  C   UNL     1      -9.753  14.683  27.453  0.00  0.00    +0.007 A 
ATOM     34  C   UNL     1     -10.622  14.879  26.329  0.00  0.00    -0.029 A 
ATOM     35  C   UNL     1     -11.957  14.099  26.285  0.00  0.00    +0.045 C 
ENDROOT
BRANCH  10   9
ATOM      4  C   UNL     1     -11.526  14.887  20.761  0.00  0.00    +0.077 A 
ATOM      5  C   UNL     1     -10.520  13.877  20.610  0.00  0.00    +0.048 A 
ATOM      6  C   UNL     1      -9.676  13.631  21.716  0.00  0.00    +0.116 A 
ATOM      7  N   UNL     1      -9.836  14.348  22.882  0.00  0.00    -0.223 NA
ATOM      8  C   UNL     1     -10.816  15.317  22.994  0.00  0.00    +0.220 A 
ATOM      9  N   UNL     1     -11.001  16.045  24.160  0.00  0.00    -0.283 N 
ATOM     36  H   UNL     1     -11.730  16.756  24.200  0.00  0.00    +0.155 HD
ATOM     37  N   UNL     1     -11.634  15.572  21.951  0.00  0.00    -0.214 NA
BRANCH   4   3
ATOM      1  C   UNL     1     -14.761  16.030  18.882  0.00  0.00    +0.020 A 
ATOM      2  C   UNL     1     -13.865  15.680  19.959  0.00  0.00    +0.013 A 
ATOM      3  C   UNL     1     -12.497  15.260  19.683  0.00  0.00    +0.019 A 
ATOM     38  C   UNL     1     -12.064  15.204  18.295  0.00  0.00    +0.120 A 
ATOM     39  N   UNL     1     -12.950  15.545  17.278  0.00  0.00    -0.263 NA
ATOM     40  C   UNL     1     -14.269  15.949  17.532  0.00  0.00    +0.111 A 
ENDBRANCH   4   3
ENDBRANCH  10   9
BRANCH  12  13
ATOM     13  N   UNL     1      -6.825  16.979  26.699  0.00  0.00    -0.281 N 
ATOM     14  C   UNL     1      -6.484  17.919  27.658  0.00  0.00    +0.248 C 
ATOM     30  O   UNL     1      -7.284  18.481  28.391  0.00  0.00    -0.270 OA
ATOM     31  H   UNL     1      -6.095  16.736  26.029  0.00  0.00    +0.155 HD
BRANCH  14  15
ATOM     15  C   UNL     1      -5.047  18.300  27.815  0.00  0.00    +0.037 A 
ATOM     16  C   UNL     1      -3.985  17.560  27.130  0.00  0.00    +0.013 A 
ATOM     17  C   UNL     1      -2.606  17.938  27.313  0.00  0.00    +0.005 A 
ATOM     18  C   UNL     1      -2.282  19.064  28.185  0.00  0.00    -0.033 A 
ATOM     28  C   UNL     1      -3.356  19.784  28.848  0.00  0.00    +0.005 A 
ATOM     29  C   UNL     1      -4.708  19.416  28.672  0.00  0.00    +0.013 A 
BRANCH  18  19
ATOM     19  C   UNL     1      -0.837  19.524  28.455  0.00  0.00    +0.119 C 
BRANCH  19  20
ATOM     20  N   UNL     1      -0.579  20.995  28.466  0.00  0.00    -0.302 NA
ATOM     21  C   UNL     1       0.636  21.372  27.613  0.00  0.00    +0.066 C 
ATOM     22  C   UNL     1       0.878  22.916  27.618  0.00  0.00    -0.064 C 
ATOM     23  N   UNL     1       1.059  23.396  29.059  0.00  0.00    +0.379 N 
ATOM     24  C   UNL     1       1.345  24.838  29.064  0.00  0.00    -0.096 C 
ATOM     25  H   UNL     1       1.949  22.874  29.480  0.00  0.00    -0.082 HD
ATOM     26  C   UNL     1      -0.143  23.023  29.916  0.00  0.00    -0.064 C 
ATOM     27  C   UNL     1      -0.392  21.490  29.880  0.00  0.00    +0.066 C 
ENDBRANCH  19  20
ENDBRANCH  18  19
ENDBRANCH  14  15
ENDBRANCH  12  13
TORSDOF 6
ENDMDL
MODEL 5
REMARK VINA RESULT:      -6.6     16.497     21.431
REMARK  Name = C:\Users\Docking\Desktop\test protocol\1iep_ligandH.pdb
REMARK  8 active torsions:
REMARK  status: ('A' for Active; 'I' for Inactive)
REMARK    1  A    between atoms: _5  and  _11
REMARK    2  A    between atoms: _19  and  _21
REMARK    3  A    between atoms: _22  and  _66
REMARK    4  A    between atoms: _27  and  _30
REMARK    5  A    between atoms: _32  and  _33
REMARK    6  A    between atoms: _38  and  _43
REMARK    7  A    between atoms: _43  and  _46
REMARK    8  A    between atoms: _53  and  _55
REMARK                            x       y       z     vdW  Elec       q    Type
REMARK                         _______ _______ _______ _____ _____    ______ ____
ROOT
ATOM     10  C   UNL     1       8.437  25.578   3.971  0.00  0.00    +0.038 A 
ATOM     11  C   UNL     1       9.425  24.575   4.138  0.00  0.00    +0.047 A 
ATOM     12  C   UNL     1      10.829  24.920   4.300  0.00  0.00    +0.035 A 
ATOM     32  C   UNL     1      11.191  26.299   4.290  0.00  0.00    +0.024 A 
ATOM     33  C   UNL     1      10.199  27.332   4.120  0.00  0.00    +0.007 A 
ATOM     34  C   UNL     1       8.814  26.997   3.957  0.00  0.00    -0.029 A 
ATOM     35  C   UNL     1       7.795  28.146   3.773  0.00  0.00    +0.045 C 
ENDROOT
BRANCH  10   9
ATOM      4  C   UNL     1       4.304  23.865   5.710  0.00  0.00    +0.077 A 
ATOM      5  C   UNL     1       4.855  23.706   7.025  0.00  0.00    +0.048 A 
ATOM      6  C   UNL     1       6.208  24.069   7.210  0.00  0.00    +0.116 A 
ATOM      7  N   UNL     1       6.945  24.555   6.152  0.00  0.00    -0.223 NA
ATOM      8  C   UNL     1       6.384  24.695   4.896  0.00  0.00    +0.220 A 
ATOM      9  N   UNL     1       7.104  25.190   3.820  0.00  0.00    -0.283 N 
ATOM     36  H   UNL     1       6.656  25.271   2.908  0.00  0.00    +0.155 HD
ATOM     37  N   UNL     1       5.094  24.354   4.693  0.00  0.00    -0.214 NA
BRANCH   4   3
ATOM      1  C   UNL     1       0.475  24.145   4.963  0.00  0.00    +0.020 A 
ATOM      2  C   UNL     1       1.825  24.523   5.311  0.00  0.00    +0.013 A 
ATOM      3  C   UNL     1       2.889  23.528   5.357  0.00  0.00    +0.019 A 
ATOM     38  C   UNL     1       2.551  22.148   5.043  0.00  0.00    +0.120 A 
ATOM     39  N   UNL     1       1.241  21.813   4.714  0.00  0.00    -0.263 NA
ATOM     40  C   UNL     1       0.209  22.762   4.668  0.00  0.00    +0.111 A 
ENDBRANCH   4   3
ENDBRANCH  10   9
BRANCH  12  13
ATOM     13  N   UNL     1      11.878  23.945   4.465  0.00  0.00    -0.281 N 
ATOM     14  C   UNL     1      12.743  23.454   3.502  0.00  0.00    +0.248 C 
ATOM     30  O   UNL     1      12.607  23.622   2.299  0.00  0.00    -0.270 OA
ATOM     31  H   UNL     1      11.996  23.571   5.407  0.00  0.00    +0.155 HD
BRANCH  14  15
ATOM     15  C   UNL     1      13.924  22.646   3.936  0.00  0.00    +0.037 A 
ATOM     16  C   UNL     1      15.285  23.019   3.544  0.00  0.00    +0.013 A 
ATOM     17  C   UNL     1      16.405  22.213   3.962  0.00  0.00    +0.005 A 
ATOM     18  C   UNL     1      16.167  21.026   4.779  0.00  0.00    -0.033 A 
ATOM     28  C   UNL     1      14.806  20.682   5.158  0.00  0.00    +0.005 A 
ATOM     29  C   UNL     1      13.707  21.469   4.749  0.00  0.00    +0.013 A 
BRANCH  18  19
ATOM     19  C   UNL     1      17.299  20.096   5.253  0.00  0.00    +0.119 C 
BRANCH  19  20
ATOM     20  N   UNL     1      18.221  20.621   6.303  0.00  0.00    -0.302 NA
ATOM     21  C   UNL     1      19.200  19.551   6.797  0.00  0.00    +0.066 C 
ATOM     22  C   UNL     1      20.171  20.124   7.879  0.00  0.00    -0.064 C 
ATOM     23  N   UNL     1      19.356  20.691   9.043  0.00  0.00    +0.379 N 
ATOM     24  C   UNL     1      20.268  21.178  10.089  0.00  0.00    -0.096 C 
ATOM     25  H   UNL     1      18.760  19.854   9.477  0.00  0.00    -0.082 HD
ATOM     26  C   UNL     1      18.379  21.753   8.561  0.00  0.00    -0.064 C 
ATOM     27  C   UNL     1      17.437  21.182   7.465  0.00  0.00    +0.066 C 
ENDBRANCH  19  20
ENDBRANCH  18  19
ENDBRANCH  14  15
ENDBRANCH  12  13
TORSDOF 6
ENDMDL
