MODEL 1
REMARK VINA RESULT:      -7.1      0.000      0.000
REMARK  Name = C:\Users\Docking\Desktop\test protocol\1iep_ligandH.pdb
REMARK  8 active torsions:
REMARK  status: ('A' for Active; 'I' for Inactive)
REMARK    1  A    between atoms: _5  and  _11
REMARK    2  A    between atoms: _19  and  _21
REMARK    3  A    between atoms: _22  and  _66
REMARK    4  A    between atoms: _27  and  _30
REMARK    5  A    between atoms: _32  and  _33
REMARK    6  A    between atoms: _38  and  _43
REMARK    7  A    between atoms: _43  and  _46
REMARK    8  A    between atoms: _53  and  _55
REMARK                            x       y       z     vdW  Elec       q    Type
REMARK                         _______ _______ _______ _____ _____    ______ ____
ROOT
ATOM     10  C   UNL     1      -2.202  37.879  18.181  0.00  0.00    +0.038 A 
ATOM     11  C   UNL     1      -1.051  37.109  18.490  0.00  0.00    +0.047 A 
ATOM     12  C   UNL     1       0.064  37.017  17.561  0.00  0.00    +0.035 A 
ATOM     32  C   UNL     1      -0.025  37.723  16.326  0.00  0.00    +0.024 A 
ATOM     33  C   UNL     1      -1.187  38.509  15.995  0.00  0.00    +0.007 A 
ATOM     34  C   UNL     1      -2.291  38.602  16.907  0.00  0.00    -0.029 A 
ATOM     35  C   UNL     1      -3.515  39.454  16.497  0.00  0.00    +0.045 C 
ENDROOT
BRANCH  10   9
ATOM      4  C   UNL     1      -4.315  39.742  22.066  0.00  0.00    +0.077 A 
ATOM      5  C   UNL     1      -3.241  40.668  22.279  0.00  0.00    +0.048 A 
ATOM      6  C   UNL     1      -2.159  40.628  21.371  0.00  0.00    +0.116 A 
ATOM      7  N   UNL     1      -2.163  39.725  20.330  0.00  0.00    -0.223 NA
ATOM      8  C   UNL     1      -3.215  38.844  20.154  0.00  0.00    +0.220 A 
ATOM      9  N   UNL     1      -3.243  37.933  19.110  0.00  0.00    -0.283 N 
ATOM     36  H   UNL     1      -4.033  37.295  19.019  0.00  0.00    +0.155 HD
ATOM     37  N   UNL     1      -4.258  38.862  21.009  0.00  0.00    -0.214 NA
BRANCH   4   3
ATOM      1  C   UNL     1      -7.958  40.127  23.437  0.00  0.00    +0.020 A 
ATOM      2  C   UNL     1      -6.817  40.230  22.557  0.00  0.00    +0.013 A 
ATOM      3  C   UNL     1      -5.529  39.664  22.939  0.00  0.00    +0.019 A 
ATOM     38  C   UNL     1      -5.429  38.996  24.228  0.00  0.00    +0.120 A 
ATOM     39  N   UNL     1      -6.545  38.914  25.055  0.00  0.00    -0.263 NA
ATOM     40  C   UNL     1      -7.789  39.455  24.698  0.00  0.00    +0.111 A 
ENDBRANCH   4   3
ENDBRANCH  10   9
BRANCH  12  13
ATOM     13  N   UNL     1       1.255  36.244  17.816  0.00  0.00    -0.281 N 
ATOM     14  C   UNL     1       1.347  34.983  18.382  0.00  0.00    +0.248 C 
ATOM     30  O   UNL     1       0.428  34.413  18.952  0.00  0.00    -0.270 OA
ATOM     31  H   UNL     1       2.137  36.681  17.548  0.00  0.00    +0.155 HD
BRANCH  14  15
ATOM     15  C   UNL     1       2.651  34.256  18.317  0.00  0.00    +0.037 A 
ATOM     16  C   UNL     1       2.784  32.999  17.575  0.00  0.00    +0.013 A 
ATOM     17  C   UNL     1       4.049  32.309  17.543  0.00  0.00    +0.005 A 
ATOM     18  C   UNL     1       5.192  32.876  18.254  0.00  0.00    -0.033 A 
ATOM     28  C   UNL     1       5.034  34.127  18.977  0.00  0.00    +0.005 A 
ATOM     29  C   UNL     1       3.795  34.805  19.012  0.00  0.00    +0.013 A 
BRANCH  18  19
ATOM     19  C   UNL     1       6.575  32.197  18.291  0.00  0.00    +0.119 C 
BRANCH  19  20
ATOM     20  N   UNL     1       7.773  33.088  18.306  0.00  0.00    -0.302 NA
ATOM     21  C   UNL     1       8.673  32.862  17.088  0.00  0.00    +0.066 C 
ATOM     22  C   UNL     1       9.910  33.817  17.109  0.00  0.00    -0.064 C 
ATOM     23  N   UNL     1      10.693  33.606  18.406  0.00  0.00    +0.379 N 
ATOM     24  C   UNL     1      11.889  34.461  18.403  0.00  0.00    -0.096 C 
ATOM     25  H   UNL     1      11.035  32.545  18.425  0.00  0.00    -0.082 HD
ATOM     26  C   UNL     1       9.805  33.826  19.623  0.00  0.00    -0.064 C 
ATOM     27  C   UNL     1       8.563  32.892  19.577  0.00  0.00    +0.066 C 
ENDBRANCH  19  20
ENDBRANCH  18  19
ENDBRANCH  14  15
ENDBRANCH  12  13
TORSDOF 6
ENDMDL
MODEL 2
REMARK VINA RESULT:      -7.1     10.445     19.692
REMARK  Name = C:\Users\Docking\Desktop\test protocol\1iep_ligandH.pdb
REMARK  8 active torsions:
REMARK  status: ('A' for Active; 'I' for Inactive)
REMARK    1  A    between atoms: _5  and  _11
REMARK    2  A    between atoms: _19  and  _21
REMARK    3  A    between atoms: _22  and  _66
REMARK    4  A    between atoms: _27  and  _30
REMARK    5  A    between atoms: _32  and  _33
REMARK    6  A    between atoms: _38  and  _43
REMARK    7  A    between atoms: _43  and  _46
REMARK    8  A    between atoms: _53  and  _55
REMARK                            x       y       z     vdW  Elec       q    Type
REMARK                         _______ _______ _______ _____ _____    ______ ____
ROOT
ATOM     10  C   UNL     1      14.327  25.756  25.594  0.00  0.00    +0.038 A 
ATOM     11  C   UNL     1      13.842  26.532  24.511  0.00  0.00    +0.047 A 
ATOM     12  C   UNL     1      13.037  27.722  24.740  0.00  0.00    +0.035 A 
ATOM     32  C   UNL     1      12.748  28.094  26.085  0.00  0.00    +0.024 A 
ATOM     33  C   UNL     1      13.233  27.316  27.198  0.00  0.00    +0.007 A 
ATOM     34  C   UNL     1      14.025  26.139  26.978  0.00  0.00    -0.029 A 
ATOM     35  C   UNL     1      14.512  25.339  28.209  0.00  0.00    +0.045 C 
ENDROOT
BRANCH  10   9
ATOM      4  C   UNL     1      14.764  21.105  24.491  0.00  0.00    +0.077 A 
ATOM      5  C   UNL     1      13.343  20.910  24.493  0.00  0.00    +0.048 A 
ATOM      6  C   UNL     1      12.535  22.030  24.790  0.00  0.00    +0.116 A 
ATOM      7  N   UNL     1      13.116  23.250  25.062  0.00  0.00    -0.223 NA
ATOM      8  C   UNL     1      14.490  23.403  25.054  0.00  0.00    +0.220 A 
ATOM      9  N   UNL     1      15.095  24.622  25.317  0.00  0.00    -0.283 N 
ATOM     36  H   UNL     1      16.112  24.693  25.308  0.00  0.00    +0.155 HD
ATOM     37  N   UNL     1      15.283  22.348  24.775  0.00  0.00    -0.214 NA
BRANCH   4   3
ATOM      1  C   UNL     1      17.098  18.597  22.603  0.00  0.00    +0.020 A 
ATOM      2  C   UNL     1      16.141  19.654  22.837  0.00  0.00    +0.013 A 
ATOM      3  C   UNL     1      15.750  20.018  24.192  0.00  0.00    +0.019 A 
ATOM     38  C   UNL     1      16.351  19.289  25.299  0.00  0.00    +0.120 A 
ATOM     39  N   UNL     1      17.269  18.274  25.043  0.00  0.00    -0.263 NA
ATOM     40  C   UNL     1      17.652  17.914  23.743  0.00  0.00    +0.111 A 
ENDBRANCH   4   3
ENDBRANCH  10   9
BRANCH  12  13
ATOM     13  N   UNL     1      12.510  28.546  23.680  0.00  0.00    -0.281 N 
ATOM     14  C   UNL     1      11.300  28.412  23.019  0.00  0.00    +0.248 C 
ATOM     30  O   UNL     1      10.576  27.430  23.095  0.00  0.00    -0.270 OA
ATOM     31  H   UNL     1      13.101  29.321  23.380  0.00  0.00    +0.155 HD
BRANCH  14  15
ATOM     15  C   UNL     1      10.833  29.523  22.136  0.00  0.00    +0.037 A 
ATOM     16  C   UNL     1      10.933  29.428  20.677  0.00  0.00    +0.013 A 
ATOM     17  C   UNL     1      10.490  30.522  19.849  0.00  0.00    +0.005 A 
ATOM     18  C   UNL     1       9.942  31.721  20.479  0.00  0.00    -0.033 A 
ATOM     28  C   UNL     1       9.849  31.786  21.928  0.00  0.00    +0.005 A 
ATOM     29  C   UNL     1      10.283  30.717  22.743  0.00  0.00    +0.013 A 
BRANCH  18  19
ATOM     19  C   UNL     1       9.465  32.944  19.674  0.00  0.00    +0.119 C 
BRANCH  19  20
ATOM     20  N   UNL     1       8.025  32.984  19.279  0.00  0.00    -0.302 NA
ATOM     21  C   UNL     1       7.838  32.795  17.771  0.00  0.00    +0.066 C 
ATOM     22  C   UNL     1       6.325  32.817  17.378  0.00  0.00    -0.064 C 
ATOM     23  N   UNL     1       5.700  34.134  17.841  0.00  0.00    +0.379 N 
ATOM     24  C   UNL     1       4.292  34.183  17.422  0.00  0.00    -0.096 C 
ATOM     25  H   UNL     1       6.236  34.963  17.323  0.00  0.00    -0.082 HD
ATOM     26  C   UNL     1       5.884  34.331  19.339  0.00  0.00    -0.064 C 
ATOM     27  C   UNL     1       7.389  34.279  19.723  0.00  0.00    +0.066 C 
ENDBRANCH  19  20
ENDBRANCH  18  19
ENDBRANCH  14  15
ENDBRANCH  12  13
TORSDOF 6
ENDMDL
MODEL 3
REMARK VINA RESULT:      -7.0      9.301     18.220
REMARK  Name = C:\Users\Docking\Desktop\test protocol\1iep_ligandH.pdb
REMARK  8 active torsions:
REMARK  status: ('A' for Active; 'I' for Inactive)
REMARK    1  A    between atoms: _5  and  _11
REMARK    2  A    between atoms: _19  and  _21
REMARK    3  A    between atoms: _22  and  _66
REMARK    4  A    between atoms: _27  and  _30
REMARK    5  A    between atoms: _32  and  _33
REMARK    6  A    between atoms: _38  and  _43
REMARK    7  A    between atoms: _43  and  _46
REMARK    8  A    between atoms: _53  and  _55
REMARK                            x       y       z     vdW  Elec       q    Type
REMARK                         _______ _______ _______ _____ _____    ______ ____
ROOT
ATOM     10  C   UNL     1      10.763  25.856  24.965  0.00  0.00    +0.038 A 
ATOM     11  C   UNL     1      10.680  26.796  23.906  0.00  0.00    +0.047 A 
ATOM     12  C   UNL     1       9.993  28.066  24.079  0.00  0.00    +0.035 A 
ATOM     32  C   UNL     1       9.403  28.348  25.345  0.00  0.00    +0.024 A 
ATOM     33  C   UNL     1       9.477  27.404  26.433  0.00  0.00    +0.007 A 
ATOM     34  C   UNL     1      10.151  26.148  26.267  0.00  0.00    -0.029 A 
ATOM     35  C   UNL     1      10.194  25.172  27.466  0.00  0.00    +0.045 C 
ENDROOT
BRANCH  10   9
ATOM      4  C   UNL     1      14.754  23.192  24.872  0.00  0.00    +0.077 A 
ATOM      5  C   UNL     1      15.574  24.299  25.271  0.00  0.00    +0.048 A 
ATOM      6  C   UNL     1      14.930  25.539  25.484  0.00  0.00    +0.116 A 
ATOM      7  N   UNL     1      13.568  25.652  25.308  0.00  0.00    -0.223 NA
ATOM      8  C   UNL     1      12.807  24.564  24.920  0.00  0.00    +0.220 A 
ATOM      9  N   UNL     1      11.435  24.652  24.744  0.00  0.00    -0.283 N 
ATOM     36  H   UNL     1      10.910  23.828  24.451  0.00  0.00    +0.155 HD
ATOM     37  N   UNL     1      13.398  23.369  24.709  0.00  0.00    -0.214 NA
BRANCH   4   3
ATOM      1  C   UNL     1      16.447  20.104  23.169  0.00  0.00    +0.020 A 
ATOM      2  C   UNL     1      15.950  21.446  23.369  0.00  0.00    +0.013 A 
ATOM      3  C   UNL     1      15.287  21.817  24.612  0.00  0.00    +0.019 A 
ATOM     38  C   UNL     1      15.142  20.799  25.642  0.00  0.00    +0.120 A 
ATOM     39  N   UNL     1      15.629  19.514  25.421  0.00  0.00    -0.263 NA
ATOM     40  C   UNL     1      16.267  19.145  24.227  0.00  0.00    +0.111 A 
ENDBRANCH   4   3
ENDBRANCH  10   9
BRANCH  12  13
ATOM     13  N   UNL     1       9.870  29.055  23.037  0.00  0.00    -0.281 N 
ATOM     14  C   UNL     1      10.853  29.508  22.173  0.00  0.00    +0.248 C 
ATOM     30  O   UNL     1      12.047  29.285  22.305  0.00  0.00    -0.270 OA
ATOM     31  H   UNL     1       8.946  29.472  22.923  0.00  0.00    +0.155 HD
BRANCH  14  15
ATOM     15  C   UNL     1      10.453  30.343  20.999  0.00  0.00    +0.037 A 
ATOM     16  C   UNL     1      10.451  29.793  19.641  0.00  0.00    +0.013 A 
ATOM     17  C   UNL     1      10.078  30.624  18.524  0.00  0.00    +0.005 A 
ATOM     18  C   UNL     1       9.702  32.016  18.762  0.00  0.00    -0.033 A 
ATOM     28  C   UNL     1       9.708  32.534  20.120  0.00  0.00    +0.005 A 
ATOM     29  C   UNL     1      10.074  31.723  21.217  0.00  0.00    +0.013 A 
BRANCH  18  19
ATOM     19  C   UNL     1       9.310  32.982  17.628  0.00  0.00    +0.119 C 
BRANCH  19  20
ATOM     20  N   UNL     1       7.896  32.935  17.148  0.00  0.00    -0.302 NA
ATOM     21  C   UNL     1       7.438  34.280  16.578  0.00  0.00    +0.066 C 
ATOM     22  C   UNL     1       5.965  34.206  16.059  0.00  0.00    -0.064 C 
ATOM     23  N   UNL     1       5.048  33.761  17.200  0.00  0.00    +0.379 N 
ATOM     24  C   UNL     1       3.654  33.747  16.731  0.00  0.00    -0.096 C 
ATOM     25  H   UNL     1       5.124  34.521  18.011  0.00  0.00    -0.082 HD
ATOM     26  C   UNL     1       5.498  32.425  17.774  0.00  0.00    -0.064 C 
ATOM     27  C   UNL     1       6.973  32.501  18.259  0.00  0.00    +0.066 C 
ENDBRANCH  19  20
ENDBRANCH  18  19
ENDBRANCH  14  15
ENDBRANCH  12  13
TORSDOF 6
ENDMDL
MODEL 4
REMARK VINA RESULT:      -7.0      4.285      5.140
REMARK  Name = C:\Users\Docking\Desktop\test protocol\1iep_ligandH.pdb
REMARK  8 active torsions:
REMARK  status: ('A' for Active; 'I' for Inactive)
REMARK    1  A    between atoms: _5  and  _11
REMARK    2  A    between atoms: _19  and  _21
REMARK    3  A    between atoms: _22  and  _66
REMARK    4  A    between atoms: _27  and  _30
REMARK    5  A    between atoms: _32  and  _33
REMARK    6  A    between atoms: _38  and  _43
REMARK    7  A    between atoms: _43  and  _46
REMARK    8  A    between atoms: _53  and  _55
REMARK                            x       y       z     vdW  Elec       q    Type
REMARK                         _______ _______ _______ _____ _____    ______ ____
ROOT
ATOM     10  C   UNL     1      -1.930  36.025  22.916  0.00  0.00    +0.038 A 
ATOM     11  C   UNL     1      -0.900  35.289  22.277  0.00  0.00    +0.047 A 
ATOM     12  C   UNL     1      -0.159  35.848  21.157  0.00  0.00    +0.035 A 
ATOM     32  C   UNL     1      -0.492  37.162  20.715  0.00  0.00    +0.024 A 
ATOM     33  C   UNL     1      -1.537  37.924  21.352  0.00  0.00    +0.007 A 
ATOM     34  C   UNL     1      -2.273  37.376  22.456  0.00  0.00    -0.029 A 
ATOM     35  C   UNL     1      -3.388  38.236  23.096  0.00  0.00    +0.045 C 
ENDROOT
BRANCH  10   9
ATOM      4  C   UNL     1      -2.434  35.067  27.592  0.00  0.00    +0.077 A 
ATOM      5  C   UNL     1      -1.229  35.768  27.926  0.00  0.00    +0.048 A 
ATOM      6  C   UNL     1      -0.504  36.356  26.865  0.00  0.00    +0.116 A 
ATOM      7  N   UNL     1      -0.961  36.244  25.569  0.00  0.00    -0.223 NA
ATOM      8  C   UNL     1      -2.127  35.558  25.281  0.00  0.00    +0.220 A 
ATOM      9  N   UNL     1      -2.609  35.440  23.987  0.00  0.00    -0.283 N 
ATOM     36  H   UNL     1      -3.469  34.920  23.815  0.00  0.00    +0.155 HD
ATOM     37  N   UNL     1      -2.836  34.987  26.277  0.00  0.00    -0.214 NA
BRANCH   4   3
ATOM      1  C   UNL     1      -5.548  33.961  29.685  0.00  0.00    +0.020 A 
ATOM      2  C   UNL     1      -4.746  34.635  28.690  0.00  0.00    +0.013 A 
ATOM      3  C   UNL     1      -3.311  34.395  28.603  0.00  0.00    +0.019 A 
ATOM     38  C   UNL     1      -2.714  33.459  29.543  0.00  0.00    +0.120 A 
ATOM     39  N   UNL     1      -3.511  32.825  30.491  0.00  0.00    -0.263 NA
ATOM     40  C   UNL     1      -4.893  33.049  30.586  0.00  0.00    +0.111 A 
ENDBRANCH   4   3
ENDBRANCH  10   9
BRANCH  12  13
ATOM     13  N   UNL     1       0.892  35.145  20.464  0.00  0.00    -0.281 N 
ATOM     14  C   UNL     1       0.870  34.636  19.175  0.00  0.00    +0.248 C 
ATOM     30  O   UNL     1      -0.138  34.521  18.494  0.00  0.00    -0.270 OA
ATOM     31  H   UNL     1       1.756  35.004  20.987  0.00  0.00    +0.155 HD
BRANCH  14  15
ATOM     15  C   UNL     1       2.151  34.175  18.560  0.00  0.00    +0.037 A 
ATOM     16  C   UNL     1       2.228  32.912  17.821  0.00  0.00    +0.013 A 
ATOM     17  C   UNL     1       3.481  32.482  17.251  0.00  0.00    +0.005 A 
ATOM     18  C   UNL     1       4.667  33.318  17.418  0.00  0.00    -0.033 A 
ATOM     28  C   UNL     1       4.562  34.569  18.151  0.00  0.00    +0.005 A 
ATOM     29  C   UNL     1       3.336  34.993  18.711  0.00  0.00    +0.013 A 
BRANCH  18  19
ATOM     19  C   UNL     1       6.050  32.928  16.862  0.00  0.00    +0.119 C 
BRANCH  19  20
ATOM     20  N   UNL     1       7.249  33.411  17.610  0.00  0.00    -0.302 NA
ATOM     21  C   UNL     1       8.355  33.897  16.670  0.00  0.00    +0.066 C 
ATOM     22  C   UNL     1       9.593  34.420  17.470  0.00  0.00    -0.064 C 
ATOM     23  N   UNL     1      10.110  33.310  18.387  0.00  0.00    +0.379 N 
ATOM     24  C   UNL     1      11.308  33.779  19.097  0.00  0.00    -0.096 C 
ATOM     25  H   UNL     1      10.413  32.452  17.742  0.00  0.00    -0.082 HD
ATOM     26  C   UNL     1       9.015  32.818  19.323  0.00  0.00    -0.064 C 
ATOM     27  C   UNL     1       7.778  32.329  18.519  0.00  0.00    +0.066 C 
ENDBRANCH  19  20
ENDBRANCH  18  19
ENDBRANCH  14  15
ENDBRANCH  12  13
TORSDOF 6
ENDMDL
MODEL 5
REMARK VINA RESULT:      -7.0      4.858     12.646
REMARK  Name = C:\Users\Docking\Desktop\test protocol\1iep_ligandH.pdb
REMARK  8 active torsions:
REMARK  status: ('A' for Active; 'I' for Inactive)
REMARK    1  A    between atoms: _5  and  _11
REMARK    2  A    between atoms: _19  and  _21
REMARK    3  A    between atoms: _22  and  _66
REMARK    4  A    between atoms: _27  and  _30
REMARK    5  A    between atoms: _32  and  _33
REMARK    6  A    between atoms: _38  and  _43
REMARK    7  A    between atoms: _43  and  _46
REMARK    8  A    between atoms: _53  and  _55
REMARK                            x       y       z     vdW  Elec       q    Type
REMARK                         _______ _______ _______ _____ _____    ______ ____
ROOT
ATOM     10  C   UNL     1       1.728  36.458  18.266  0.00  0.00    +0.038 A 
ATOM     11  C   UNL     1       1.043  36.628  17.036  0.00  0.00    +0.047 A 
ATOM     12  C   UNL     1      -0.371  36.968  17.004  0.00  0.00    +0.035 A 
ATOM     32  C   UNL     1      -1.056  37.130  18.243  0.00  0.00    +0.024 A 
ATOM     33  C   UNL     1      -0.375  36.960  19.503  0.00  0.00    +0.007 A 
ATOM     34  C   UNL     1       1.020  36.622  19.541  0.00  0.00    -0.029 A 
ATOM     35  C   UNL     1       1.697  36.445  20.920  0.00  0.00    +0.045 C 
ENDROOT
BRANCH  10   9
ATOM      4  C   UNL     1       5.317  33.315  17.736  0.00  0.00    +0.077 A 
ATOM      5  C   UNL     1       4.409  32.225  17.523  0.00  0.00    +0.048 A 
ATOM      6  C   UNL     1       3.027  32.514  17.565  0.00  0.00    +0.116 A 
ATOM      7  N   UNL     1       2.595  33.801  17.802  0.00  0.00    -0.223 NA
ATOM      8  C   UNL     1       3.497  34.829  18.005  0.00  0.00    +0.220 A 
ATOM      9  N   UNL     1       3.086  36.132  18.238  0.00  0.00    -0.283 N 
ATOM     36  H   UNL     1       3.783  36.861  18.391  0.00  0.00    +0.155 HD
ATOM     37  N   UNL     1       4.823  34.579  17.972  0.00  0.00    -0.214 NA
BRANCH   4   3
ATOM      1  C   UNL     1       8.963  32.144  18.534  0.00  0.00    +0.020 A 
ATOM      2  C   UNL     1       7.523  32.246  18.590  0.00  0.00    +0.013 A 
ATOM      3  C   UNL     1       6.807  33.170  17.719  0.00  0.00    +0.019 A 
ATOM     38  C   UNL     1       7.584  33.981  16.794  0.00  0.00    +0.120 A 
ATOM     39  N   UNL     1       8.970  33.862  16.763  0.00  0.00    -0.263 NA
ATOM     40  C   UNL     1       9.670  32.978  17.598  0.00  0.00    +0.111 A 
ENDBRANCH   4   3
ENDBRANCH  10   9
BRANCH  12  13
ATOM     13  N   UNL     1      -1.122  37.145  15.786  0.00  0.00    -0.281 N 
ATOM     14  C   UNL     1      -1.123  38.240  14.937  0.00  0.00    +0.248 C 
ATOM     30  O   UNL     1      -0.636  39.327  15.211  0.00  0.00    -0.270 OA
ATOM     31  H   UNL     1      -1.727  36.369  15.516  0.00  0.00    +0.155 HD
BRANCH  14  15
ATOM     15  C   UNL     1      -1.770  38.114  13.596  0.00  0.00    +0.037 A 
ATOM     16  C   UNL     1      -1.712  36.861  12.839  0.00  0.00    +0.013 A 
ATOM     17  C   UNL     1      -2.330  36.772  11.540  0.00  0.00    +0.005 A 
ATOM     18  C   UNL     1      -3.014  37.940  10.990  0.00  0.00    -0.033 A 
ATOM     28  C   UNL     1      -3.060  39.169  11.765  0.00  0.00    +0.005 A 
ATOM     29  C   UNL     1      -2.455  39.261  13.038  0.00  0.00    +0.013 A 
BRANCH  18  19
ATOM     19  C   UNL     1      -3.683  37.942   9.603  0.00  0.00    +0.119 C 
BRANCH  19  20
ATOM     20  N   UNL     1      -4.869  37.054   9.415  0.00  0.00    -0.302 NA
ATOM     21  C   UNL     1      -5.057  36.090  10.590  0.00  0.00    +0.066 C 
ATOM     22  C   UNL     1      -6.315  35.184  10.387  0.00  0.00    -0.064 C 
ATOM     23  N   UNL     1      -6.179  34.414   9.073  0.00  0.00    +0.379 N 
ATOM     24  C   UNL     1      -7.333  33.518   8.907  0.00  0.00    -0.096 C 
ATOM     25  H   UNL     1      -5.266  33.780   9.146  0.00  0.00    -0.082 HD
ATOM     26  C   UNL     1      -5.989  35.365   7.899  0.00  0.00    -0.064 C 
ATOM     27  C   UNL     1      -4.753  36.280   8.124  0.00  0.00    +0.066 C 
ENDBRANCH  19  20
ENDBRANCH  18  19
ENDBRANCH  14  15
ENDBRANCH  12  13
TORSDOF 6
ENDMDL
