MODEL 1
REMARK VINA RESULT:      -8.3      0.000      0.000
REMARK  Name = C:\Users\Docking\Desktop\test protocol\1iep_ligandH.pdb
REMARK  8 active torsions:
REMARK  status: ('A' for Active; 'I' for Inactive)
REMARK    1  A    between atoms: _5  and  _11
REMARK    2  A    between atoms: _19  and  _21
REMARK    3  A    between atoms: _22  and  _66
REMARK    4  A    between atoms: _27  and  _30
REMARK    5  A    between atoms: _32  and  _33
REMARK    6  A    between atoms: _38  and  _43
REMARK    7  A    between atoms: _43  and  _46
REMARK    8  A    between atoms: _53  and  _55
REMARK                            x       y       z     vdW  Elec       q    Type
REMARK                         _______ _______ _______ _____ _____    ______ ____
ROOT
ATOM     10  C   UNL     1      26.639   1.560  -2.702  0.00  0.00    +0.038 A 
ATOM     11  C   UNL     1      25.759   0.467  -2.903  0.00  0.00    +0.047 A 
ATOM     12  C   UNL     1      25.903  -0.414  -4.052  0.00  0.00    +0.035 A 
ATOM     32  C   UNL     1      26.957  -0.153  -4.975  0.00  0.00    +0.024 A 
ATOM     33  C   UNL     1      27.860   0.955  -4.787  0.00  0.00    +0.007 A 
ATOM     34  C   UNL     1      27.722   1.828  -3.657  0.00  0.00    -0.029 A 
ATOM     35  C   UNL     1      28.715   3.005  -3.509  0.00  0.00    +0.045 C 
ENDROOT
BRANCH  10   9
ATOM      4  C   UNL     1      24.569   5.260  -0.453  0.00  0.00    +0.077 A 
ATOM      5  C   UNL     1      23.810   5.619  -1.616  0.00  0.00    +0.048 A 
ATOM      6  C   UNL     1      23.986   4.831  -2.775  0.00  0.00    +0.116 A 
ATOM      7  N   UNL     1      24.859   3.764  -2.760  0.00  0.00    -0.223 NA
ATOM      8  C   UNL     1      25.577   3.446  -1.622  0.00  0.00    +0.220 A 
ATOM      9  N   UNL     1      26.455   2.374  -1.582  0.00  0.00    -0.283 N 
ATOM     36  H   UNL     1      26.972   2.177  -0.725  0.00  0.00    +0.155 HD
ATOM     37  N   UNL     1      25.427   4.185  -0.503  0.00  0.00    -0.214 NA
BRANCH   4   3
ATOM      1  C   UNL     1      23.204   7.110   2.713  0.00  0.00    +0.020 A 
ATOM      2  C   UNL     1      23.226   6.402   1.453  0.00  0.00    +0.013 A 
ATOM      3  C   UNL     1      24.489   5.995   0.849  0.00  0.00    +0.019 A 
ATOM     38  C   UNL     1      25.721   6.320   1.552  0.00  0.00    +0.120 A 
ATOM     39  N   UNL     1      25.669   7.003   2.763  0.00  0.00    -0.263 NA
ATOM     40  C   UNL     1      24.460   7.402   3.353  0.00  0.00    +0.111 A 
ENDBRANCH   4   3
ENDBRANCH  10   9
BRANCH  12  13
ATOM     13  N   UNL     1      25.034  -1.535  -4.313  0.00  0.00    -0.281 N 
ATOM     14  C   UNL     1      25.075  -2.795  -3.739  0.00  0.00    +0.248 C 
ATOM     30  O   UNL     1      26.003  -3.219  -3.066  0.00  0.00    -0.270 OA
ATOM     31  H   UNL     1      24.300  -1.381  -5.004  0.00  0.00    +0.155 HD
BRANCH  14  15
ATOM     15  C   UNL     1      23.925  -3.725  -3.956  0.00  0.00    +0.037 A 
ATOM     16  C   UNL     1      23.143  -3.690  -5.194  0.00  0.00    +0.013 A 
ATOM     17  C   UNL     1      22.027  -4.586  -5.370  0.00  0.00    +0.005 A 
ATOM     18  C   UNL     1      21.689  -5.526  -4.305  0.00  0.00    -0.033 A 
ATOM     28  C   UNL     1      22.485  -5.543  -3.089  0.00  0.00    +0.005 A 
ATOM     29  C   UNL     1      23.578  -4.666  -2.912  0.00  0.00    +0.013 A 
BRANCH  18  19
ATOM     19  C   UNL     1      20.502  -6.504  -4.398  0.00  0.00    +0.119 C 
BRANCH  19  20
ATOM     20  N   UNL     1      19.131  -5.931  -4.255  0.00  0.00    -0.302 NA
ATOM     21  C   UNL     1      18.707  -5.814  -2.788  0.00  0.00    +0.066 C 
ATOM     22  C   UNL     1      17.279  -5.192  -2.656  0.00  0.00    -0.064 C 
ATOM     23  N   UNL     1      16.280  -6.043  -3.442  0.00  0.00    +0.379 N 
ATOM     24  C   UNL     1      14.927  -5.494  -3.273  0.00  0.00    -0.096 C 
ATOM     25  H   UNL     1      16.288  -7.067  -3.001  0.00  0.00    -0.082 HD
ATOM     26  C   UNL     1      16.695  -6.167  -4.902  0.00  0.00    -0.064 C 
ATOM     27  C   UNL     1      18.128  -6.759  -5.020  0.00  0.00    +0.066 C 
ENDBRANCH  19  20
ENDBRANCH  18  19
ENDBRANCH  14  15
ENDBRANCH  12  13
TORSDOF 6
ENDMDL
MODEL 2
REMARK VINA RESULT:      -7.3      1.729      2.721
REMARK  Name = C:\Users\Docking\Desktop\test protocol\1iep_ligandH.pdb
REMARK  8 active torsions:
REMARK  status: ('A' for Active; 'I' for Inactive)
REMARK    1  A    between atoms: _5  and  _11
REMARK    2  A    between atoms: _19  and  _21
REMARK    3  A    between atoms: _22  and  _66
REMARK    4  A    between atoms: _27  and  _30
REMARK    5  A    between atoms: _32  and  _33
REMARK    6  A    between atoms: _38  and  _43
REMARK    7  A    between atoms: _43  and  _46
REMARK    8  A    between atoms: _53  and  _55
REMARK                            x       y       z     vdW  Elec       q    Type
REMARK                         _______ _______ _______ _____ _____    ______ ____
ROOT
ATOM     10  C   UNL     1      26.717   1.475  -2.470  0.00  0.00    +0.038 A 
ATOM     11  C   UNL     1      25.806   0.414  -2.705  0.00  0.00    +0.047 A 
ATOM     12  C   UNL     1      25.973  -0.484  -3.837  0.00  0.00    +0.035 A 
ATOM     32  C   UNL     1      27.081  -0.275  -4.708  0.00  0.00    +0.024 A 
ATOM     33  C   UNL     1      28.016   0.800  -4.485  0.00  0.00    +0.007 A 
ATOM     34  C   UNL     1      27.855   1.691  -3.372  0.00  0.00    -0.029 A 
ATOM     35  C   UNL     1      28.885   2.829  -3.185  0.00  0.00    +0.045 C 
ENDROOT
BRANCH  10   9
ATOM      4  C   UNL     1      24.682   5.276  -0.361  0.00  0.00    +0.077 A 
ATOM      5  C   UNL     1      23.996   5.651  -1.564  0.00  0.00    +0.048 A 
ATOM      6  C   UNL     1      24.199   4.843  -2.705  0.00  0.00    +0.116 A 
ATOM      7  N   UNL     1      25.029   3.744  -2.637  0.00  0.00    -0.223 NA
ATOM      8  C   UNL     1      25.677   3.412  -1.462  0.00  0.00    +0.220 A 
ATOM      9  N   UNL     1      26.509   2.308  -1.368  0.00  0.00    -0.283 N 
ATOM     36  H   UNL     1      26.975   2.101  -0.485  0.00  0.00    +0.155 HD
ATOM     37  N   UNL     1      25.500   4.169  -0.358  0.00  0.00    -0.214 NA
BRANCH   4   3
ATOM      1  C   UNL     1      23.231   7.170   2.739  0.00  0.00    +0.020 A 
ATOM      2  C   UNL     1      23.288   6.446   1.490  0.00  0.00    +0.013 A 
ATOM      3  C   UNL     1      24.566   6.028   0.928  0.00  0.00    +0.019 A 
ATOM     38  C   UNL     1      25.778   6.360   1.662  0.00  0.00    +0.120 A 
ATOM     39  N   UNL     1      25.693   7.059   2.862  0.00  0.00    -0.263 NA
ATOM     40  C   UNL     1      24.469   7.468   3.411  0.00  0.00    +0.111 A 
ENDBRANCH   4   3
ENDBRANCH  10   9
BRANCH  12  13
ATOM     13  N   UNL     1      25.075  -1.574  -4.130  0.00  0.00    -0.281 N 
ATOM     14  C   UNL     1      25.097  -2.858  -3.611  0.00  0.00    +0.248 C 
ATOM     30  O   UNL     1      26.025  -3.330  -2.972  0.00  0.00    -0.270 OA
ATOM     31  H   UNL     1      24.334  -1.375  -4.802  0.00  0.00    +0.155 HD
BRANCH  14  15
ATOM     15  C   UNL     1      23.922  -3.753  -3.847  0.00  0.00    +0.037 A 
ATOM     16  C   UNL     1      23.504  -4.738  -2.847  0.00  0.00    +0.013 A 
ATOM     17  C   UNL     1      22.378  -5.600  -3.108  0.00  0.00    +0.005 A 
ATOM     18  C   UNL     1      21.662  -5.478  -4.375  0.00  0.00    -0.033 A 
ATOM     28  C   UNL     1      22.095  -4.489  -5.348  0.00  0.00    +0.005 A 
ATOM     29  C   UNL     1      23.199  -3.643  -5.096  0.00  0.00    +0.013 A 
BRANCH  18  19
ATOM     19  C   UNL     1      20.463  -6.371  -4.747  0.00  0.00    +0.119 C 
BRANCH  19  20
ATOM     20  N   UNL     1      20.750  -7.798  -5.081  0.00  0.00    -0.302 NA
ATOM     21  C   UNL     1      21.324  -7.953  -6.492  0.00  0.00    +0.066 C 
ATOM     22  C   UNL     1      21.640  -9.450  -6.817  0.00  0.00    -0.064 C 
ATOM     23  N   UNL     1      20.368 -10.283  -6.655  0.00  0.00    +0.379 N 
ATOM     24  C   UNL     1      20.647 -11.681  -7.015  0.00  0.00    -0.096 C 
ATOM     25  H   UNL     1      19.613  -9.892  -7.377  0.00  0.00    -0.082 HD
ATOM     26  C   UNL     1      19.789 -10.132  -5.255  0.00  0.00    -0.064 C 
ATOM     27  C   UNL     1      19.506  -8.638  -4.932  0.00  0.00    +0.066 C 
ENDBRANCH  19  20
ENDBRANCH  18  19
ENDBRANCH  14  15
ENDBRANCH  12  13
TORSDOF 6
ENDMDL
MODEL 3
REMARK VINA RESULT:      -6.7     22.289     24.136
REMARK  Name = C:\Users\Docking\Desktop\test protocol\1iep_ligandH.pdb
REMARK  8 active torsions:
REMARK  status: ('A' for Active; 'I' for Inactive)
REMARK    1  A    between atoms: _5  and  _11
REMARK    2  A    between atoms: _19  and  _21
REMARK    3  A    between atoms: _22  and  _66
REMARK    4  A    between atoms: _27  and  _30
REMARK    5  A    between atoms: _32  and  _33
REMARK    6  A    between atoms: _38  and  _43
REMARK    7  A    between atoms: _43  and  _46
REMARK    8  A    between atoms: _53  and  _55
REMARK                            x       y       z     vdW  Elec       q    Type
REMARK                         _______ _______ _______ _____ _____    ______ ____
ROOT
ATOM     10  C   UNL     1       5.546  11.403  12.225  0.00  0.00    +0.038 A 
ATOM     11  C   UNL     1       5.922  10.046  12.053  0.00  0.00    +0.047 A 
ATOM     12  C   UNL     1       5.020   9.089  11.431  0.00  0.00    +0.035 A 
ATOM     32  C   UNL     1       3.744   9.548  10.993  0.00  0.00    +0.024 A 
ATOM     33  C   UNL     1       3.345  10.923  11.162  0.00  0.00    +0.007 A 
ATOM     34  C   UNL     1       4.229  11.872  11.777  0.00  0.00    -0.029 A 
ATOM     35  C   UNL     1       3.747  13.332  11.937  0.00  0.00    +0.045 C 
ENDROOT
BRANCH  10   9
ATOM      4  C   UNL     1       8.925  14.805  12.014  0.00  0.00    +0.077 A 
ATOM      5  C   UNL     1       8.904  14.820  10.580  0.00  0.00    +0.048 A 
ATOM      6  C   UNL     1       8.015  13.931   9.935  0.00  0.00    +0.116 A 
ATOM      7  N   UNL     1       7.211  13.095  10.678  0.00  0.00    -0.223 NA
ATOM      8  C   UNL     1       7.257  13.105  12.060  0.00  0.00    +0.220 A 
ATOM      9  N   UNL     1       6.451  12.279  12.828  0.00  0.00    -0.283 N 
ATOM     36  H   UNL     1       6.520  12.311  13.845  0.00  0.00    +0.155 HD
ATOM     37  N   UNL     1       8.098  13.944  12.700  0.00  0.00    -0.214 NA
BRANCH   4   3
ATOM      1  C   UNL     1      11.715  16.069  14.447  0.00  0.00    +0.020 A 
ATOM      2  C   UNL     1      10.891  15.173  13.669  0.00  0.00    +0.013 A 
ATOM      3  C   UNL     1       9.808  15.688  12.840  0.00  0.00    +0.019 A 
ATOM     38  C   UNL     1       9.583  17.126  12.821  0.00  0.00    +0.120 A 
ATOM     39  N   UNL     1      10.392  17.964  13.583  0.00  0.00    -0.263 NA
ATOM     40  C   UNL     1      11.436  17.480  14.385  0.00  0.00    +0.111 A 
ENDBRANCH   4   3
ENDBRANCH  10   9
BRANCH  12  13
ATOM     13  N   UNL     1       5.344   7.697  11.236  0.00  0.00    -0.281 N 
ATOM     14  C   UNL     1       5.078   6.634  12.084  0.00  0.00    +0.248 C 
ATOM     30  O   UNL     1       4.708   6.751  13.243  0.00  0.00    -0.270 OA
ATOM     31  H   UNL     1       5.828   7.467  10.369  0.00  0.00    +0.155 HD
BRANCH  14  15
ATOM     15  C   UNL     1       5.262   5.241  11.576  0.00  0.00    +0.037 A 
ATOM     16  C   UNL     1       4.768   4.085  12.328  0.00  0.00    +0.013 A 
ATOM     17  C   UNL     1       4.974   2.751  11.824  0.00  0.00    +0.005 A 
ATOM     18  C   UNL     1       5.679   2.566  10.557  0.00  0.00    -0.033 A 
ATOM     28  C   UNL     1       6.154   3.730   9.829  0.00  0.00    +0.005 A 
ATOM     29  C   UNL     1       5.955   5.039  10.321  0.00  0.00    +0.013 A 
BRANCH  18  19
ATOM     19  C   UNL     1       5.962   1.177   9.954  0.00  0.00    +0.119 C 
BRANCH  19  20
ATOM     20  N   UNL     1       5.374  -0.005  10.651  0.00  0.00    -0.302 NA
ATOM     21  C   UNL     1       6.355  -1.178  10.720  0.00  0.00    +0.066 C 
ATOM     22  C   UNL     1       5.732  -2.398  11.473  0.00  0.00    -0.064 C 
ATOM     23  N   UNL     1       4.436  -2.816  10.775  0.00  0.00    +0.379 N 
ATOM     24  C   UNL     1       3.877  -3.999  11.445  0.00  0.00    -0.096 C 
ATOM     25  H   UNL     1       4.694  -3.109   9.731  0.00  0.00    -0.082 HD
ATOM     26  C   UNL     1       3.456  -1.655  10.699  0.00  0.00    -0.064 C 
ATOM     27  C   UNL     1       4.096  -0.437   9.975  0.00  0.00    +0.066 C 
ENDBRANCH  19  20
ENDBRANCH  18  19
ENDBRANCH  14  15
ENDBRANCH  12  13
TORSDOF 6
ENDMDL
MODEL 4
REMARK VINA RESULT:      -6.6      2.086      2.779
REMARK  Name = C:\Users\Docking\Desktop\test protocol\1iep_ligandH.pdb
REMARK  8 active torsions:
REMARK  status: ('A' for Active; 'I' for Inactive)
REMARK    1  A    between atoms: _5  and  _11
REMARK    2  A    between atoms: _19  and  _21
REMARK    3  A    between atoms: _22  and  _66
REMARK    4  A    between atoms: _27  and  _30
REMARK    5  A    between atoms: _32  and  _33
REMARK    6  A    between atoms: _38  and  _43
REMARK    7  A    between atoms: _43  and  _46
REMARK    8  A    between atoms: _53  and  _55
REMARK                            x       y       z     vdW  Elec       q    Type
REMARK                         _______ _______ _______ _____ _____    ______ ____
ROOT
ATOM     10  C   UNL     1      25.422   2.946  -4.015  0.00  0.00    +0.038 A 
ATOM     11  C   UNL     1      24.778   1.682  -4.040  0.00  0.00    +0.047 A 
ATOM     12  C   UNL     1      25.227   0.627  -4.935  0.00  0.00    +0.035 A 
ATOM     32  C   UNL     1      26.336   0.892  -5.790  0.00  0.00    +0.024 A 
ATOM     33  C   UNL     1      27.002   2.171  -5.778  0.00  0.00    +0.007 A 
ATOM     34  C   UNL     1      26.562   3.216  -4.899  0.00  0.00    -0.029 A 
ATOM     35  C   UNL     1      27.309   4.570  -4.934  0.00  0.00    +0.045 C 
ENDROOT
BRANCH  10   9
ATOM      4  C   UNL     1      25.327   5.085   0.280  0.00  0.00    +0.077 A 
ATOM      5  C   UNL     1      26.279   4.162   0.827  0.00  0.00    +0.048 A 
ATOM      6  C   UNL     1      26.763   3.146  -0.028  0.00  0.00    +0.116 A 
ATOM      7  N   UNL     1      26.322   3.070  -1.331  0.00  0.00    -0.223 NA
ATOM      8  C   UNL     1      25.402   3.976  -1.827  0.00  0.00    +0.220 A 
ATOM      9  N   UNL     1      24.950   3.923  -3.136  0.00  0.00    -0.283 N 
ATOM     36  H   UNL     1      24.265   4.605  -3.461  0.00  0.00    +0.155 HD
ATOM     37  N   UNL     1      24.923   4.954  -1.030  0.00  0.00    -0.214 NA
BRANCH   4   3
ATOM      1  C   UNL     1      24.588   8.642   1.731  0.00  0.00    +0.020 A 
ATOM      2  C   UNL     1      25.205   7.588   0.958  0.00  0.00    +0.013 A 
ATOM      3  C   UNL     1      24.726   6.215   1.057  0.00  0.00    +0.019 A 
ATOM     38  C   UNL     1      23.613   5.940   1.954  0.00  0.00    +0.120 A 
ATOM     39  N   UNL     1      23.041   6.975   2.686  0.00  0.00    -0.263 NA
ATOM     40  C   UNL     1      23.494   8.300   2.600  0.00  0.00    +0.111 A 
ENDBRANCH   4   3
ENDBRANCH  10   9
BRANCH  12  13
ATOM     13  N   UNL     1      24.607  -0.673  -5.010  0.00  0.00    -0.281 N 
ATOM     14  C   UNL     1      25.010  -1.845  -4.391  0.00  0.00    +0.248 C 
ATOM     30  O   UNL     1      26.092  -2.003  -3.846  0.00  0.00    -0.270 OA
ATOM     31  H   UNL     1      23.771  -0.737  -5.590  0.00  0.00    +0.155 HD
BRANCH  14  15
ATOM     15  C   UNL     1      24.081  -3.017  -4.390  0.00  0.00    +0.037 A 
ATOM     16  C   UNL     1      23.226  -3.310  -5.543  0.00  0.00    +0.013 A 
ATOM     17  C   UNL     1      22.327  -4.436  -5.509  0.00  0.00    +0.005 A 
ATOM     18  C   UNL     1      22.280  -5.279  -4.316  0.00  0.00    -0.033 A 
ATOM     28  C   UNL     1      23.143  -4.968  -3.188  0.00  0.00    +0.005 A 
ATOM     29  C   UNL     1      24.024  -3.864  -3.218  0.00  0.00    +0.013 A 
BRANCH  18  19
ATOM     19  C   UNL     1      21.336  -6.489  -4.184  0.00  0.00    +0.119 C 
BRANCH  19  20
ATOM     20  N   UNL     1      20.920  -7.173  -5.444  0.00  0.00    -0.302 NA
ATOM     21  C   UNL     1      19.461  -6.879  -5.804  0.00  0.00    +0.066 C 
ATOM     22  C   UNL     1      19.050  -7.584  -7.137  0.00  0.00    -0.064 C 
ATOM     23  N   UNL     1      19.283  -9.090  -7.007  0.00  0.00    +0.379 N 
ATOM     24  C   UNL     1      18.843  -9.763  -8.238  0.00  0.00    -0.096 C 
ATOM     25  H   UNL     1      18.643  -9.460  -6.172  0.00  0.00    -0.082 HD
ATOM     26  C   UNL     1      20.731  -9.392  -6.647  0.00  0.00    -0.064 C 
ATOM     27  C   UNL     1      21.138  -8.662  -5.336  0.00  0.00    +0.066 C 
ENDBRANCH  19  20
ENDBRANCH  18  19
ENDBRANCH  14  15
ENDBRANCH  12  13
TORSDOF 6
ENDMDL
MODEL 5
REMARK VINA RESULT:      -6.6      8.135     13.533
REMARK  Name = C:\Users\Docking\Desktop\test protocol\1iep_ligandH.pdb
REMARK  8 active torsions:
REMARK  status: ('A' for Active; 'I' for Inactive)
REMARK    1  A    between atoms: _5  and  _11
REMARK    2  A    between atoms: _19  and  _21
REMARK    3  A    between atoms: _22  and  _66
REMARK    4  A    between atoms: _27  and  _30
REMARK    5  A    between atoms: _32  and  _33
REMARK    6  A    between atoms: _38  and  _43
REMARK    7  A    between atoms: _43  and  _46
REMARK    8  A    between atoms: _53  and  _55
REMARK                            x       y       z     vdW  Elec       q    Type
REMARK                         _______ _______ _______ _____ _____    ______ ____
ROOT
ATOM     10  C   UNL     1      25.015  13.485   3.479  0.00  0.00    +0.038 A 
ATOM     11  C   UNL     1      25.110  12.334   2.654  0.00  0.00    +0.047 A 
ATOM     12  C   UNL     1      25.474  11.039   3.209  0.00  0.00    +0.035 A 
ATOM     32  C   UNL     1      25.731  10.952   4.608  0.00  0.00    +0.024 A 
ATOM     33  C   UNL     1      25.640  12.111   5.460  0.00  0.00    +0.007 A 
ATOM     34  C   UNL     1      25.284  13.392   4.919  0.00  0.00    -0.029 A 
ATOM     35  C   UNL     1      25.208  14.602   5.878  0.00  0.00    +0.045 C 
ENDROOT
BRANCH  10   9
ATOM      4  C   UNL     1      26.136  17.688   1.450  0.00  0.00    +0.077 A 
ATOM      5  C   UNL     1      27.543  17.449   1.593  0.00  0.00    +0.048 A 
ATOM      6  C   UNL     1      27.937  16.235   2.199  0.00  0.00    +0.116 A 
ATOM      7  N   UNL     1      26.986  15.335   2.628  0.00  0.00    -0.223 NA
ATOM      8  C   UNL     1      25.636  15.597   2.477  0.00  0.00    +0.220 A 
ATOM      9  N   UNL     1      24.662  14.703   2.893  0.00  0.00    -0.283 N 
ATOM     36  H   UNL     1      23.678  14.937   2.771  0.00  0.00    +0.155 HD
ATOM     37  N   UNL     1      25.235  16.750   1.902  0.00  0.00    -0.214 NA
BRANCH   4   3
ATOM      1  C   UNL     1      23.742  20.174  -0.392  0.00  0.00    +0.020 A 
ATOM      2  C   UNL     1      24.249  18.955   0.196  0.00  0.00    +0.013 A 
ATOM      3  C   UNL     1      25.563  18.922   0.826  0.00  0.00    +0.019 A 
ATOM     38  C   UNL     1      26.345  20.150   0.845  0.00  0.00    +0.120 A 
ATOM     39  N   UNL     1      25.831  21.308   0.270  0.00  0.00    -0.263 NA
ATOM     40  C   UNL     1      24.569  21.351  -0.340  0.00  0.00    +0.111 A 
ENDBRANCH   4   3
ENDBRANCH  10   9
BRANCH  12  13
ATOM     13  N   UNL     1      25.594   9.838   2.420  0.00  0.00    -0.281 N 
ATOM     14  C   UNL     1      24.917   8.641   2.584  0.00  0.00    +0.248 C 
ATOM     30  O   UNL     1      24.257   8.349   3.570  0.00  0.00    -0.270 OA
ATOM     31  H   UNL     1      26.259   9.876   1.647  0.00  0.00    +0.155 HD
BRANCH  14  15
ATOM     15  C   UNL     1      24.996   7.613   1.501  0.00  0.00    +0.037 A 
ATOM     16  C   UNL     1      26.286   7.175   0.962  0.00  0.00    +0.013 A 
ATOM     17  C   UNL     1      26.333   6.195  -0.094  0.00  0.00    +0.005 A 
ATOM     18  C   UNL     1      25.085   5.644  -0.616  0.00  0.00    -0.033 A 
ATOM     28  C   UNL     1      23.819   6.093  -0.060  0.00  0.00    +0.005 A 
ATOM     29  C   UNL     1      23.769   7.055   0.975  0.00  0.00    +0.013 A 
BRANCH  18  19
ATOM     19  C   UNL     1      25.039   4.610  -1.757  0.00  0.00    +0.119 C 
BRANCH  19  20
ATOM     20  N   UNL     1      24.784   5.123  -3.136  0.00  0.00    -0.302 NA
ATOM     21  C   UNL     1      25.693   6.305  -3.486  0.00  0.00    +0.066 C 
ATOM     22  C   UNL     1      25.428   6.815  -4.940  0.00  0.00    -0.064 C 
ATOM     23  N   UNL     1      23.956   7.203  -5.081  0.00  0.00    +0.379 N 
ATOM     24  C   UNL     1      23.717   7.738  -6.430  0.00  0.00    -0.096 C 
ATOM     25  H   UNL     1      23.751   8.021  -4.352  0.00  0.00    -0.082 HD
ATOM     26  C   UNL     1      23.045   6.035  -4.732  0.00  0.00    -0.064 C 
ATOM     27  C   UNL     1      23.336   5.517  -3.296  0.00  0.00    +0.066 C 
ENDBRANCH  19  20
ENDBRANCH  18  19
ENDBRANCH  14  15
ENDBRANCH  12  13
TORSDOF 6
ENDMDL
