MODEL 1
REMARK VINA RESULT:      -8.6      0.000      0.000
REMARK  Name = C:\Users\Docking\Desktop\test protocol\1iep_ligandH.pdb
REMARK  8 active torsions:
REMARK  status: ('A' for Active; 'I' for Inactive)
REMARK    1  A    between atoms: _5  and  _11
REMARK    2  A    between atoms: _19  and  _21
REMARK    3  A    between atoms: _22  and  _66
REMARK    4  A    between atoms: _27  and  _30
REMARK    5  A    between atoms: _32  and  _33
REMARK    6  A    between atoms: _38  and  _43
REMARK    7  A    between atoms: _43  and  _46
REMARK    8  A    between atoms: _53  and  _55
REMARK                            x       y       z     vdW  Elec       q    Type
REMARK                         _______ _______ _______ _____ _____    ______ ____
ROOT
ATOM     10  C   UNL     1      19.943  29.823  22.305  0.00  0.00    +0.038 A 
ATOM     11  C   UNL     1      20.374  29.874  20.955  0.00  0.00    +0.047 A 
ATOM     12  C   UNL     1      19.733  30.757  19.993  0.00  0.00    +0.035 A 
ATOM     32  C   UNL     1      18.657  31.577  20.441  0.00  0.00    +0.024 A 
ATOM     33  C   UNL     1      18.204  31.537  21.809  0.00  0.00    +0.007 A 
ATOM     34  C   UNL     1      18.831  30.666  22.762  0.00  0.00    -0.029 A 
ATOM     35  C   UNL     1      18.300  30.660  24.215  0.00  0.00    +0.045 C 
ENDROOT
BRANCH  10   9
ATOM      4  C   UNL     1      20.175  25.760  24.850  0.00  0.00    +0.077 A 
ATOM      5  C   UNL     1      18.877  25.339  24.407  0.00  0.00    +0.048 A 
ATOM      6  C   UNL     1      18.179  26.201  23.531  0.00  0.00    +0.116 A 
ATOM      7  N   UNL     1      18.747  27.391  23.133  0.00  0.00    -0.223 NA
ATOM      8  C   UNL     1      20.000  27.768  23.580  0.00  0.00    +0.220 A 
ATOM      9  N   UNL     1      20.594  28.957  23.186  0.00  0.00    -0.283 N 
ATOM     36  H   UNL     1      21.517  29.203  23.544  0.00  0.00    +0.155 HD
ATOM     37  N   UNL     1      20.686  26.964  24.419  0.00  0.00    -0.214 NA
BRANCH   4   3
ATOM      1  C   UNL     1      21.384  23.484  27.792  0.00  0.00    +0.020 A 
ATOM      2  C   UNL     1      20.508  24.245  26.931  0.00  0.00    +0.013 A 
ATOM      3  C   UNL     1      21.036  24.958  25.775  0.00  0.00    +0.019 A 
ATOM     38  C   UNL     1      22.466  24.880  25.516  0.00  0.00    +0.120 A 
ATOM     39  N   UNL     1      23.285  24.140  26.363  0.00  0.00    -0.263 NA
ATOM     40  C   UNL     1      22.788  23.451  27.480  0.00  0.00    +0.111 A 
ENDBRANCH   4   3
ENDBRANCH  10   9
BRANCH  12  13
ATOM     13  N   UNL     1      20.123  30.846  18.608  0.00  0.00    -0.281 N 
ATOM     14  C   UNL     1      20.646  31.940  17.938  0.00  0.00    +0.248 C 
ATOM     30  O   UNL     1      20.658  33.079  18.381  0.00  0.00    -0.270 OA
ATOM     31  H   UNL     1      19.998  29.999  18.053  0.00  0.00    +0.155 HD
BRANCH  14  15
ATOM     15  C   UNL     1      21.225  31.744  16.575  0.00  0.00    +0.037 A 
ATOM     16  C   UNL     1      22.494  32.368  16.191  0.00  0.00    +0.013 A 
ATOM     17  C   UNL     1      23.022  32.176  14.864  0.00  0.00    +0.005 A 
ATOM     18  C   UNL     1      22.281  31.354  13.910  0.00  0.00    -0.033 A 
ATOM     28  C   UNL     1      21.028  30.742  14.319  0.00  0.00    +0.005 A 
ATOM     29  C   UNL     1      20.506  30.929  15.619  0.00  0.00    +0.013 A 
BRANCH  18  19
ATOM     19  C   UNL     1      22.759  31.112  12.466  0.00  0.00    +0.119 C 
BRANCH  19  20
ATOM     20  N   UNL     1      23.158  29.720  12.102  0.00  0.00    -0.302 NA
ATOM     21  C   UNL     1      24.461  29.687  11.298  0.00  0.00    +0.066 C 
ATOM     22  C   UNL     1      24.875  28.221  10.945  0.00  0.00    -0.064 C 
ATOM     23  N   UNL     1      23.742  27.547  10.168  0.00  0.00    +0.379 N 
ATOM     24  C   UNL     1      24.152  26.188   9.784  0.00  0.00    -0.096 C 
ATOM     25  H   UNL     1      23.582  28.130   9.231  0.00  0.00    -0.082 HD
ATOM     26  C   UNL     1      22.442  27.578  10.959  0.00  0.00    -0.064 C 
ATOM     27  C   UNL     1      22.055  29.037  11.330  0.00  0.00    +0.066 C 
ENDBRANCH  19  20
ENDBRANCH  18  19
ENDBRANCH  14  15
ENDBRANCH  12  13
TORSDOF 6
ENDMDL
MODEL 2
REMARK VINA RESULT:      -8.5      1.765      2.677
REMARK  Name = C:\Users\Docking\Desktop\test protocol\1iep_ligandH.pdb
REMARK  8 active torsions:
REMARK  status: ('A' for Active; 'I' for Inactive)
REMARK    1  A    between atoms: _5  and  _11
REMARK    2  A    between atoms: _19  and  _21
REMARK    3  A    between atoms: _22  and  _66
REMARK    4  A    between atoms: _27  and  _30
REMARK    5  A    between atoms: _32  and  _33
REMARK    6  A    between atoms: _38  and  _43
REMARK    7  A    between atoms: _43  and  _46
REMARK    8  A    between atoms: _53  and  _55
REMARK                            x       y       z     vdW  Elec       q    Type
REMARK                         _______ _______ _______ _____ _____    ______ ____
ROOT
ATOM     10  C   UNL     1      20.011  29.900  22.031  0.00  0.00    +0.038 A 
ATOM     11  C   UNL     1      20.441  29.933  20.680  0.00  0.00    +0.047 A 
ATOM     12  C   UNL     1      19.829  30.836  19.717  0.00  0.00    +0.035 A 
ATOM     32  C   UNL     1      18.784  31.694  20.166  0.00  0.00    +0.024 A 
ATOM     33  C   UNL     1      18.334  31.674  21.535  0.00  0.00    +0.007 A 
ATOM     34  C   UNL     1      18.932  30.783  22.489  0.00  0.00    -0.029 A 
ATOM     35  C   UNL     1      18.405  30.799  23.943  0.00  0.00    +0.045 C 
ENDROOT
BRANCH  10   9
ATOM      4  C   UNL     1      20.089  25.855  24.613  0.00  0.00    +0.077 A 
ATOM      5  C   UNL     1      18.767  25.490  24.191  0.00  0.00    +0.048 A 
ATOM      6  C   UNL     1      18.099  26.375  23.315  0.00  0.00    +0.116 A 
ATOM      7  N   UNL     1      18.716  27.534  22.898  0.00  0.00    -0.223 NA
ATOM      8  C   UNL     1      19.991  27.857  23.325  0.00  0.00    +0.220 A 
ATOM      9  N   UNL     1      20.633  29.014  22.913  0.00  0.00    -0.283 N 
ATOM     36  H   UNL     1      21.571  29.220  23.256  0.00  0.00    +0.155 HD
ATOM     37  N   UNL     1      20.650  27.030  24.164  0.00  0.00    -0.214 NA
BRANCH   4   3
ATOM      1  C   UNL     1      21.224  23.526  27.544  0.00  0.00    +0.020 A 
ATOM      2  C   UNL     1      20.373  24.317  26.685  0.00  0.00    +0.013 A 
ATOM      3  C   UNL     1      20.925  25.023  25.535  0.00  0.00    +0.019 A 
ATOM     38  C   UNL     1      22.353  24.906  25.280  0.00  0.00    +0.120 A 
ATOM     39  N   UNL     1      23.148  24.139  26.126  0.00  0.00    -0.263 NA
ATOM     40  C   UNL     1      22.628  23.456  27.236  0.00  0.00    +0.111 A 
ENDBRANCH   4   3
ENDBRANCH  10   9
BRANCH  12  13
ATOM     13  N   UNL     1      20.219  30.907  18.330  0.00  0.00    -0.281 N 
ATOM     14  C   UNL     1      20.812  31.968  17.666  0.00  0.00    +0.248 C 
ATOM     30  O   UNL     1      20.904  33.101  18.116  0.00  0.00    -0.270 OA
ATOM     31  H   UNL     1      20.034  30.075  17.771  0.00  0.00    +0.155 HD
BRANCH  14  15
ATOM     15  C   UNL     1      21.371  31.742  16.299  0.00  0.00    +0.037 A 
ATOM     16  C   UNL     1      20.756  30.785  15.375  0.00  0.00    +0.013 A 
ATOM     17  C   UNL     1      21.325  30.574  14.068  0.00  0.00    +0.005 A 
ATOM     18  C   UNL     1      22.517  31.322  13.676  0.00  0.00    -0.033 A 
ATOM     28  C   UNL     1      23.104  32.269  14.610  0.00  0.00    +0.005 A 
ATOM     29  C   UNL     1      22.549  32.478  15.893  0.00  0.00    +0.013 A 
BRANCH  18  19
ATOM     19  C   UNL     1      23.205  31.145  12.309  0.00  0.00    +0.119 C 
BRANCH  19  20
ATOM     20  N   UNL     1      23.135  32.291  11.355  0.00  0.00    -0.302 NA
ATOM     21  C   UNL     1      21.692  32.716  11.072  0.00  0.00    +0.066 C 
ATOM     22  C   UNL     1      21.638  33.931  10.089  0.00  0.00    -0.064 C 
ATOM     23  N   UNL     1      22.359  33.565   8.791  0.00  0.00    +0.379 N 
ATOM     24  C   UNL     1      22.261  34.685   7.843  0.00  0.00    -0.096 C 
ATOM     25  H   UNL     1      21.827  32.694   8.343  0.00  0.00    -0.082 HD
ATOM     26  C   UNL     1      23.795  33.139   9.063  0.00  0.00    -0.064 C 
ATOM     27  C   UNL     1      23.838  31.950  10.064  0.00  0.00    +0.066 C 
ENDBRANCH  19  20
ENDBRANCH  18  19
ENDBRANCH  14  15
ENDBRANCH  12  13
TORSDOF 6
ENDMDL
MODEL 3
REMARK VINA RESULT:      -8.1      1.249      1.922
REMARK  Name = C:\Users\Docking\Desktop\test protocol\1iep_ligandH.pdb
REMARK  8 active torsions:
REMARK  status: ('A' for Active; 'I' for Inactive)
REMARK    1  A    between atoms: _5  and  _11
REMARK    2  A    between atoms: _19  and  _21
REMARK    3  A    between atoms: _22  and  _66
REMARK    4  A    between atoms: _27  and  _30
REMARK    5  A    between atoms: _32  and  _33
REMARK    6  A    between atoms: _38  and  _43
REMARK    7  A    between atoms: _43  and  _46
REMARK    8  A    between atoms: _53  and  _55
REMARK                            x       y       z     vdW  Elec       q    Type
REMARK                         _______ _______ _______ _____ _____    ______ ____
ROOT
ATOM     10  C   UNL     1      20.037  29.741  22.144  0.00  0.00    +0.038 A 
ATOM     11  C   UNL     1      20.377  29.621  20.772  0.00  0.00    +0.047 A 
ATOM     12  C   UNL     1      19.751  30.463  19.766  0.00  0.00    +0.035 A 
ATOM     32  C   UNL     1      18.785  31.420  20.192  0.00  0.00    +0.024 A 
ATOM     33  C   UNL     1      18.427  31.555  21.582  0.00  0.00    +0.007 A 
ATOM     34  C   UNL     1      19.039  30.725  22.579  0.00  0.00    -0.029 A 
ATOM     35  C   UNL     1      18.612  30.908  24.054  0.00  0.00    +0.045 C 
ENDROOT
BRANCH  10   9
ATOM      4  C   UNL     1      20.205  25.777  24.846  0.00  0.00    +0.077 A 
ATOM      5  C   UNL     1      18.911  25.347  24.399  0.00  0.00    +0.048 A 
ATOM      6  C   UNL     1      18.233  26.177  23.479  0.00  0.00    +0.116 A 
ATOM      7  N   UNL     1      18.814  27.349  23.045  0.00  0.00    -0.223 NA
ATOM      8  C   UNL     1      20.063  27.736  23.498  0.00  0.00    +0.220 A 
ATOM      9  N   UNL     1      20.670  28.906  23.068  0.00  0.00    -0.283 N 
ATOM     36  H   UNL     1      21.588  29.160  23.431  0.00  0.00    +0.155 HD
ATOM     37  N   UNL     1      20.730  26.960  24.377  0.00  0.00    -0.214 NA
BRANCH   4   3
ATOM      1  C   UNL     1      23.271  24.251  26.736  0.00  0.00    +0.020 A 
ATOM      2  C   UNL     1      22.504  25.012  25.777  0.00  0.00    +0.013 A 
ATOM      3  C   UNL     1      21.047  25.006  25.815  0.00  0.00    +0.019 A 
ATOM     38  C   UNL     1      20.391  24.214  26.844  0.00  0.00    +0.120 A 
ATOM     39  N   UNL     1      21.156  23.489  27.753  0.00  0.00    -0.263 NA
ATOM     40  C   UNL     1      22.558  23.486  27.726  0.00  0.00    +0.111 A 
ENDBRANCH   4   3
ENDBRANCH  10   9
BRANCH  12  13
ATOM     13  N   UNL     1      20.050  30.381  18.357  0.00  0.00    -0.281 N 
ATOM     14  C   UNL     1      19.177  30.114  17.316  0.00  0.00    +0.248 C 
ATOM     30  O   UNL     1      18.039  29.692  17.459  0.00  0.00    -0.270 OA
ATOM     31  H   UNL     1      21.023  30.539  18.097  0.00  0.00    +0.155 HD
BRANCH  14  15
ATOM     15  C   UNL     1      19.639  30.334  15.912  0.00  0.00    +0.037 A 
ATOM     16  C   UNL     1      18.831  29.901  14.769  0.00  0.00    +0.013 A 
ATOM     17  C   UNL     1      19.308  30.110  13.425  0.00  0.00    +0.005 A 
ATOM     18  C   UNL     1      20.602  30.757  13.217  0.00  0.00    -0.033 A 
ATOM     28  C   UNL     1      21.380  31.181  14.368  0.00  0.00    +0.005 A 
ATOM     29  C   UNL     1      20.916  30.977  15.687  0.00  0.00    +0.013 A 
BRANCH  18  19
ATOM     19  C   UNL     1      21.199  31.001  11.818  0.00  0.00    +0.119 C 
BRANCH  19  20
ATOM     20  N   UNL     1      22.146  29.974  11.290  0.00  0.00    -0.302 NA
ATOM     21  C   UNL     1      21.814  28.570  11.803  0.00  0.00    +0.066 C 
ATOM     22  C   UNL     1      22.801  27.505  11.223  0.00  0.00    -0.064 C 
ATOM     23  N   UNL     1      24.235  27.890  11.588  0.00  0.00    +0.379 N 
ATOM     24  C   UNL     1      25.161  26.860  11.094  0.00  0.00    -0.096 C 
ATOM     25  H   UNL     1      24.309  27.905  12.700  0.00  0.00    -0.082 HD
ATOM     26  C   UNL     1      24.572  29.286  11.084  0.00  0.00    -0.064 C 
ATOM     27  C   UNL     1      23.568  30.333  11.643  0.00  0.00    +0.066 C 
ENDBRANCH  19  20
ENDBRANCH  18  19
ENDBRANCH  14  15
ENDBRANCH  12  13
TORSDOF 6
ENDMDL
MODEL 4
REMARK VINA RESULT:      -8.0      2.355     12.258
REMARK  Name = C:\Users\Docking\Desktop\test protocol\1iep_ligandH.pdb
REMARK  8 active torsions:
REMARK  status: ('A' for Active; 'I' for Inactive)
REMARK    1  A    between atoms: _5  and  _11
REMARK    2  A    between atoms: _19  and  _21
REMARK    3  A    between atoms: _22  and  _66
REMARK    4  A    between atoms: _27  and  _30
REMARK    5  A    between atoms: _32  and  _33
REMARK    6  A    between atoms: _38  and  _43
REMARK    7  A    between atoms: _43  and  _46
REMARK    8  A    between atoms: _53  and  _55
REMARK                            x       y       z     vdW  Elec       q    Type
REMARK                         _______ _______ _______ _____ _____    ______ ____
ROOT
ATOM     10  C   UNL     1      22.463  30.261  12.372  0.00  0.00    +0.038 A 
ATOM     11  C   UNL     1      21.948  30.292  13.693  0.00  0.00    +0.047 A 
ATOM     12  C   UNL     1      22.372  31.308  14.643  0.00  0.00    +0.035 A 
ATOM     32  C   UNL     1      23.321  32.281  14.213  0.00  0.00    +0.024 A 
ATOM     33  C   UNL     1      23.856  32.264  12.874  0.00  0.00    +0.007 A 
ATOM     34  C   UNL     1      23.443  31.262  11.934  0.00  0.00    -0.029 A 
ATOM     35  C   UNL     1      24.054  31.289  10.513  0.00  0.00    +0.045 C 
ENDROOT
BRANCH  10   9
ATOM      4  C   UNL     1      22.910  25.962  10.286  0.00  0.00    +0.077 A 
ATOM      5  C   UNL     1      24.143  25.693  10.969  0.00  0.00    +0.048 A 
ATOM      6  C   UNL     1      24.632  26.690  11.842  0.00  0.00    +0.116 A 
ATOM      7  N   UNL     1      23.931  27.864  12.013  0.00  0.00    -0.223 NA
ATOM      8  C   UNL     1      22.746  28.092  11.339  0.00  0.00    +0.220 A 
ATOM      9  N   UNL     1      22.021  29.263  11.502  0.00  0.00    -0.283 N 
ATOM     36  H   UNL     1      21.154  29.396  10.980  0.00  0.00    +0.155 HD
ATOM     37  N   UNL     1      22.259  27.156  10.498  0.00  0.00    -0.214 NA
BRANCH   4   3
ATOM      1  C   UNL     1      22.295  23.505   7.305  0.00  0.00    +0.020 A 
ATOM      2  C   UNL     1      22.965  24.424   8.195  0.00  0.00    +0.013 A 
ATOM      3  C   UNL     1      22.264  25.005   9.333  0.00  0.00    +0.019 A 
ATOM     38  C   UNL     1      20.873  24.630   9.545  0.00  0.00    +0.120 A 
ATOM     39  N   UNL     1      20.254  23.743   8.670  0.00  0.00    -0.263 NA
ATOM     40  C   UNL     1      20.918  23.180   7.571  0.00  0.00    +0.111 A 
ENDBRANCH   4   3
ENDBRANCH  10   9
BRANCH  12  13
ATOM     13  N   UNL     1      21.890  31.384  16.000  0.00  0.00    -0.281 N 
ATOM     14  C   UNL     1      20.951  32.259  16.522  0.00  0.00    +0.248 C 
ATOM     30  O   UNL     1      20.539  33.255  15.946  0.00  0.00    -0.270 OA
ATOM     31  H   UNL     1      22.288  30.711  16.655  0.00  0.00    +0.155 HD
BRANCH  14  15
ATOM     15  C   UNL     1      20.403  31.999  17.888  0.00  0.00    +0.037 A 
ATOM     16  C   UNL     1      20.263  33.077  18.870  0.00  0.00    +0.013 A 
ATOM     17  C   UNL     1      19.746  32.795  20.186  0.00  0.00    +0.005 A 
ATOM     18  C   UNL     1      19.364  31.427  20.527  0.00  0.00    -0.033 A 
ATOM     28  C   UNL     1      19.508  30.377  19.532  0.00  0.00    +0.005 A 
ATOM     29  C   UNL     1      20.015  30.649  18.242  0.00  0.00    +0.013 A 
BRANCH  18  19
ATOM     19  C   UNL     1      18.824  31.031  21.914  0.00  0.00    +0.119 C 
BRANCH  19  20
ATOM     20  N   UNL     1      18.723  29.572  22.217  0.00  0.00    -0.302 NA
ATOM     21  C   UNL     1      17.423  29.226  22.948  0.00  0.00    +0.066 C 
ATOM     22  C   UNL     1      17.323  27.693  23.237  0.00  0.00    -0.064 C 
ATOM     23  N   UNL     1      18.538  27.251  24.055  0.00  0.00    +0.379 N 
ATOM     24  C   UNL     1      18.418  25.822  24.378  0.00  0.00    -0.096 C 
ATOM     25  H   UNL     1      18.524  27.817  25.015  0.00  0.00    -0.082 HD
ATOM     26  C   UNL     1      19.835  27.593  23.336  0.00  0.00    -0.064 C 
ATOM     27  C   UNL     1      19.911  29.115  23.027  0.00  0.00    +0.066 C 
ENDBRANCH  19  20
ENDBRANCH  18  19
ENDBRANCH  14  15
ENDBRANCH  12  13
TORSDOF 6
ENDMDL
MODEL 5
REMARK VINA RESULT:      -7.9      9.982     13.651
REMARK  Name = C:\Users\Docking\Desktop\test protocol\1iep_ligandH.pdb
REMARK  8 active torsions:
REMARK  status: ('A' for Active; 'I' for Inactive)
REMARK    1  A    between atoms: _5  and  _11
REMARK    2  A    between atoms: _19  and  _21
REMARK    3  A    between atoms: _22  and  _66
REMARK    4  A    between atoms: _27  and  _30
REMARK    5  A    between atoms: _32  and  _33
REMARK    6  A    between atoms: _38  and  _43
REMARK    7  A    between atoms: _43  and  _46
REMARK    8  A    between atoms: _53  and  _55
REMARK                            x       y       z     vdW  Elec       q    Type
REMARK                         _______ _______ _______ _____ _____    ______ ____
ROOT
ATOM     10  C   UNL     1      21.686  34.261  10.610  0.00  0.00    +0.038 A 
ATOM     11  C   UNL     1      22.195  34.910   9.456  0.00  0.00    +0.047 A 
ATOM     12  C   UNL     1      22.192  36.360   9.345  0.00  0.00    +0.035 A 
ATOM     32  C   UNL     1      21.667  37.120  10.431  0.00  0.00    +0.024 A 
ATOM     33  C   UNL     1      21.145  36.477  11.611  0.00  0.00    +0.007 A 
ATOM     34  C   UNL     1      21.142  35.046  11.725  0.00  0.00    -0.029 A 
ATOM     35  C   UNL     1      20.564  34.411  13.011  0.00  0.00    +0.045 C 
ENDROOT
BRANCH  10   9
ATOM      4  C   UNL     1      24.023  30.083  10.962  0.00  0.00    +0.077 A 
ATOM      5  C   UNL     1      25.300  30.735  11.017  0.00  0.00    +0.048 A 
ATOM      6  C   UNL     1      25.312  32.146  10.945  0.00  0.00    +0.116 A 
ATOM      7  N   UNL     1      24.130  32.843  10.827  0.00  0.00    -0.223 NA
ATOM      8  C   UNL     1      22.915  32.184  10.774  0.00  0.00    +0.220 A 
ATOM      9  N   UNL     1      21.713  32.866  10.664  0.00  0.00    -0.283 N 
ATOM     36  H   UNL     1      20.839  32.343  10.621  0.00  0.00    +0.155 HD
ATOM     37  N   UNL     1      22.877  30.837  10.840  0.00  0.00    -0.214 NA
BRANCH   4   3
ATOM      1  C   UNL     1      24.731  26.237  10.994  0.00  0.00    +0.020 A 
ATOM      2  C   UNL     1      24.957  27.662  10.922  0.00  0.00    +0.013 A 
ATOM      3  C   UNL     1      23.845  28.598  11.030  0.00  0.00    +0.019 A 
ATOM     38  C   UNL     1      22.507  28.056  11.212  0.00  0.00    +0.120 A 
ATOM     39  N   UNL     1      22.320  26.679  11.277  0.00  0.00    -0.263 NA
ATOM     40  C   UNL     1      23.382  25.768  11.173  0.00  0.00    +0.111 A 
ENDBRANCH   4   3
ENDBRANCH  10   9
BRANCH  12  13
ATOM     13  N   UNL     1      22.688  37.074   8.195  0.00  0.00    -0.281 N 
ATOM     14  C   UNL     1      23.813  37.877   8.110  0.00  0.00    +0.248 C 
ATOM     30  O   UNL     1      24.451  38.276   9.073  0.00  0.00    -0.270 OA
ATOM     31  H   UNL     1      22.142  36.976   7.338  0.00  0.00    +0.155 HD
BRANCH  14  15
ATOM     15  C   UNL     1      24.292  38.310   6.762  0.00  0.00    +0.037 A 
ATOM     16  C   UNL     1      23.412  38.260   5.591  0.00  0.00    +0.013 A 
ATOM     17  C   UNL     1      23.904  38.668   4.299  0.00  0.00    +0.005 A 
ATOM     18  C   UNL     1      25.284  39.131   4.172  0.00  0.00    -0.033 A 
ATOM     28  C   UNL     1      26.133  39.176   5.351  0.00  0.00    +0.005 A 
ATOM     29  C   UNL     1      25.655  38.776   6.619  0.00  0.00    +0.013 A 
BRANCH  18  19
ATOM     19  C   UNL     1      25.899  39.565   2.829  0.00  0.00    +0.119 C 
BRANCH  19  20
ATOM     20  N   UNL     1      26.266  38.486   1.864  0.00  0.00    -0.302 NA
ATOM     21  C   UNL     1      25.041  37.923   1.138  0.00  0.00    +0.066 C 
ATOM     22  C   UNL     1      25.446  36.811   0.116  0.00  0.00    -0.064 C 
ATOM     23  N   UNL     1      26.199  35.700   0.849  0.00  0.00    +0.379 N 
ATOM     24  C   UNL     1      26.531  34.625  -0.098  0.00  0.00    -0.096 C 
ATOM     25  H   UNL     1      25.512  35.274   1.616  0.00  0.00    -0.082 HD
ATOM     26  C   UNL     1      27.418  36.251   1.575  0.00  0.00    -0.064 C 
ATOM     27  C   UNL     1      27.008  37.376   2.567  0.00  0.00    +0.066 C 
ENDBRANCH  19  20
ENDBRANCH  18  19
ENDBRANCH  14  15
ENDBRANCH  12  13
TORSDOF 6
ENDMDL
