MODEL 1
REMARK VINA RESULT:      -7.4      0.000      0.000
REMARK  Name = C:\Users\Docking\Desktop\test protocol\1iep_ligandH.pdb
REMARK  8 active torsions:
REMARK  status: ('A' for Active; 'I' for Inactive)
REMARK    1  A    between atoms: _5  and  _11
REMARK    2  A    between atoms: _19  and  _21
REMARK    3  A    between atoms: _22  and  _66
REMARK    4  A    between atoms: _27  and  _30
REMARK    5  A    between atoms: _32  and  _33
REMARK    6  A    between atoms: _38  and  _43
REMARK    7  A    between atoms: _43  and  _46
REMARK    8  A    between atoms: _53  and  _55
REMARK                            x       y       z     vdW  Elec       q    Type
REMARK                         _______ _______ _______ _____ _____    ______ ____
ROOT
ATOM     10  C   UNL     1      47.483 -38.098  23.438  0.00  0.00    +0.038 A 
ATOM     11  C   UNL     1      47.639 -37.062  22.483  0.00  0.00    +0.047 A 
ATOM     12  C   UNL     1      48.954 -36.690  21.984  0.00  0.00    +0.035 A 
ATOM     32  C   UNL     1      50.089 -37.396  22.479  0.00  0.00    +0.024 A 
ATOM     33  C   UNL     1      49.948 -38.452  23.451  0.00  0.00    +0.007 A 
ATOM     34  C   UNL     1      48.654 -38.822  23.948  0.00  0.00    -0.029 A 
ATOM     35  C   UNL     1      48.564 -39.957  24.995  0.00  0.00    +0.045 C 
ENDROOT
BRANCH  10   9
ATOM      4  C   UNL     1      43.372 -36.975  25.646  0.00  0.00    +0.077 A 
ATOM      5  C   UNL     1      43.835 -35.655  25.965  0.00  0.00    +0.048 A 
ATOM      6  C   UNL     1      45.140 -35.308  25.550  0.00  0.00    +0.116 A 
ATOM      7  N   UNL     1      45.915 -36.219  24.866  0.00  0.00    -0.223 NA
ATOM      8  C   UNL     1      45.438 -37.484  24.576  0.00  0.00    +0.220 A 
ATOM      9  N   UNL     1      46.197 -38.415  23.882  0.00  0.00    -0.283 N 
ATOM     36  H   UNL     1      45.812 -39.340  23.694  0.00  0.00    +0.155 HD
ATOM     37  N   UNL     1      44.196 -37.841  24.963  0.00  0.00    -0.214 NA
BRANCH   4   3
ATOM      1  C   UNL     1      39.515 -37.241  26.241  0.00  0.00    +0.020 A 
ATOM      2  C   UNL     1      40.801 -36.696  25.871  0.00  0.00    +0.013 A 
ATOM      3  C   UNL     1      42.015 -37.489  26.014  0.00  0.00    +0.019 A 
ATOM     38  C   UNL     1      41.893 -38.841  26.539  0.00  0.00    +0.120 A 
ATOM     39  N   UNL     1      40.641 -39.339  26.888  0.00  0.00    -0.263 NA
ATOM     40  C   UNL     1      39.466 -38.584  26.756  0.00  0.00    +0.111 A 
ENDBRANCH   4   3
ENDBRANCH  10   9
BRANCH  12  13
ATOM     13  N   UNL     1      49.175 -35.641  21.020  0.00  0.00    -0.281 N 
ATOM     14  C   UNL     1      49.855 -34.447  21.201  0.00  0.00    +0.248 C 
ATOM     30  O   UNL     1      50.196 -34.004  22.288  0.00  0.00    -0.270 OA
ATOM     31  H   UNL     1      48.782 -35.796  20.092  0.00  0.00    +0.155 HD
BRANCH  14  15
ATOM     15  C   UNL     1      50.193 -33.620  20.003  0.00  0.00    +0.037 A 
ATOM     16  C   UNL     1      50.665 -32.240  20.141  0.00  0.00    +0.013 A 
ATOM     17  C   UNL     1      50.968 -31.459  18.968  0.00  0.00    +0.005 A 
ATOM     18  C   UNL     1      50.801 -32.057  17.646  0.00  0.00    -0.033 A 
ATOM     28  C   UNL     1      50.337 -33.430  17.538  0.00  0.00    +0.005 A 
ATOM     29  C   UNL     1      50.038 -34.199  18.685  0.00  0.00    +0.013 A 
BRANCH  18  19
ATOM     19  C   UNL     1      51.081 -31.291  16.339  0.00  0.00    +0.119 C 
BRANCH  19  20
ATOM     20  N   UNL     1      49.901 -30.894  15.514  0.00  0.00    -0.302 NA
ATOM     21  C   UNL     1      50.302 -30.514  14.086  0.00  0.00    +0.066 C 
ATOM     22  C   UNL     1      49.053 -30.123  13.230  0.00  0.00    -0.064 C 
ATOM     23  N   UNL     1      48.312 -28.971  13.910  0.00  0.00    +0.379 N 
ATOM     24  C   UNL     1      47.171 -28.562  13.078  0.00  0.00    -0.096 C 
ATOM     25  H   UNL     1      49.014 -28.106  13.969  0.00  0.00    -0.082 HD
ATOM     26  C   UNL     1      47.913 -29.339  15.331  0.00  0.00    -0.064 C 
ATOM     27  C   UNL     1      49.157 -29.754  16.165  0.00  0.00    +0.066 C 
ENDBRANCH  19  20
ENDBRANCH  18  19
ENDBRANCH  14  15
ENDBRANCH  12  13
TORSDOF 6
ENDMDL
MODEL 2
REMARK VINA RESULT:      -7.0     10.940     13.234
REMARK  Name = C:\Users\Docking\Desktop\test protocol\1iep_ligandH.pdb
REMARK  8 active torsions:
REMARK  status: ('A' for Active; 'I' for Inactive)
REMARK    1  A    between atoms: _5  and  _11
REMARK    2  A    between atoms: _19  and  _21
REMARK    3  A    between atoms: _22  and  _66
REMARK    4  A    between atoms: _27  and  _30
REMARK    5  A    between atoms: _32  and  _33
REMARK    6  A    between atoms: _38  and  _43
REMARK    7  A    between atoms: _43  and  _46
REMARK    8  A    between atoms: _53  and  _55
REMARK                            x       y       z     vdW  Elec       q    Type
REMARK                         _______ _______ _______ _____ _____    ______ ____
ROOT
ATOM     10  C   UNL     1      38.942 -41.137  26.714  0.00  0.00    +0.038 A 
ATOM     11  C   UNL     1      38.613 -39.759  26.667  0.00  0.00    +0.047 A 
ATOM     12  C   UNL     1      39.649 -38.738  26.628  0.00  0.00    +0.035 A 
ATOM     32  C   UNL     1      41.011 -39.158  26.635  0.00  0.00    +0.024 A 
ATOM     33  C   UNL     1      41.364 -40.555  26.684  0.00  0.00    +0.007 A 
ATOM     34  C   UNL     1      40.346 -41.566  26.725  0.00  0.00    -0.029 A 
ATOM     35  C   UNL     1      40.783 -43.048  26.783  0.00  0.00    +0.045 C 
ENDROOT
BRANCH  10   9
ATOM      4  C   UNL     1      35.727 -43.804  29.078  0.00  0.00    +0.077 A 
ATOM      5  C   UNL     1      36.164 -43.308  30.352  0.00  0.00    +0.048 A 
ATOM      6  C   UNL     1      37.224 -42.374  30.355  0.00  0.00    +0.116 A 
ATOM      7  N   UNL     1      37.796 -41.972  29.167  0.00  0.00    -0.223 NA
ATOM      8  C   UNL     1      37.352 -42.471  27.957  0.00  0.00    +0.220 A 
ATOM      9  N   UNL     1      37.907 -42.075  26.750  0.00  0.00    -0.283 N 
ATOM     36  H   UNL     1      37.556 -42.472  25.879  0.00  0.00    +0.155 HD
ATOM     37  N   UNL     1      36.342 -43.365  27.927  0.00  0.00    -0.214 NA
BRANCH   4   3
ATOM      1  C   UNL     1      33.661 -46.954  28.025  0.00  0.00    +0.020 A 
ATOM      2  C   UNL     1      34.766 -46.032  28.156  0.00  0.00    +0.013 A 
ATOM      3  C   UNL     1      34.616 -44.793  28.910  0.00  0.00    +0.019 A 
ATOM     38  C   UNL     1      33.327 -44.516  29.524  0.00  0.00    +0.120 A 
ATOM     39  N   UNL     1      32.281 -45.422  29.379  0.00  0.00    -0.263 NA
ATOM     40  C   UNL     1      32.412 -46.616  28.655  0.00  0.00    +0.111 A 
ENDBRANCH   4   3
ENDBRANCH  10   9
BRANCH  12  13
ATOM     13  N   UNL     1      39.374 -37.323  26.588  0.00  0.00    -0.281 N 
ATOM     14  C   UNL     1      39.015 -36.495  27.638  0.00  0.00    +0.248 C 
ATOM     30  O   UNL     1      38.665 -36.890  28.741  0.00  0.00    -0.270 OA
ATOM     31  H   UNL     1      39.455 -36.878  25.673  0.00  0.00    +0.155 HD
BRANCH  14  15
ATOM     15  C   UNL     1      39.034 -35.015  27.430  0.00  0.00    +0.037 A 
ATOM     16  C   UNL     1      39.964 -34.156  28.167  0.00  0.00    +0.013 A 
ATOM     17  C   UNL     1      39.949 -32.729  27.960  0.00  0.00    +0.005 A 
ATOM     18  C   UNL     1      39.000 -32.153  27.009  0.00  0.00    -0.033 A 
ATOM     28  C   UNL     1      38.092 -33.030  26.289  0.00  0.00    +0.005 A 
ATOM     29  C   UNL     1      38.103 -34.428  26.490  0.00  0.00    +0.013 A 
BRANCH  18  19
ATOM     19  C   UNL     1      38.900 -30.640  26.741  0.00  0.00    +0.119 C 
BRANCH  19  20
ATOM     20  N   UNL     1      38.465 -29.772  27.875  0.00  0.00    -0.302 NA
ATOM     21  C   UNL     1      36.942 -29.623  27.934  0.00  0.00    +0.066 C 
ATOM     22  C   UNL     1      36.503 -28.730  29.140  0.00  0.00    -0.064 C 
ATOM     23  N   UNL     1      37.177 -27.361  29.029  0.00  0.00    +0.379 N 
ATOM     24  C   UNL     1      36.721 -26.500  30.129  0.00  0.00    -0.096 C 
ATOM     25  H   UNL     1      36.842 -26.896  28.073  0.00  0.00    -0.082 HD
ATOM     26  C   UNL     1      38.692 -27.500  28.967  0.00  0.00    -0.064 C 
ATOM     27  C   UNL     1      39.116 -28.413  27.783  0.00  0.00    +0.066 C 
ENDBRANCH  19  20
ENDBRANCH  18  19
ENDBRANCH  14  15
ENDBRANCH  12  13
TORSDOF 6
ENDMDL
MODEL 3
REMARK VINA RESULT:      -6.7      3.119     11.482
REMARK  Name = C:\Users\Docking\Desktop\test protocol\1iep_ligandH.pdb
REMARK  8 active torsions:
REMARK  status: ('A' for Active; 'I' for Inactive)
REMARK    1  A    between atoms: _5  and  _11
REMARK    2  A    between atoms: _19  and  _21
REMARK    3  A    between atoms: _22  and  _66
REMARK    4  A    between atoms: _27  and  _30
REMARK    5  A    between atoms: _32  and  _33
REMARK    6  A    between atoms: _38  and  _43
REMARK    7  A    between atoms: _43  and  _46
REMARK    8  A    between atoms: _53  and  _55
REMARK                            x       y       z     vdW  Elec       q    Type
REMARK                         _______ _______ _______ _____ _____    ______ ____
ROOT
ATOM     10  C   UNL     1      49.298 -36.641  21.529  0.00  0.00    +0.038 A 
ATOM     11  C   UNL     1      48.259 -36.197  22.387  0.00  0.00    +0.047 A 
ATOM     12  C   UNL     1      48.147 -36.691  23.751  0.00  0.00    +0.035 A 
ATOM     32  C   UNL     1      49.112 -37.635  24.209  0.00  0.00    +0.024 A 
ATOM     33  C   UNL     1      50.173 -38.097  23.350  0.00  0.00    +0.007 A 
ATOM     34  C   UNL     1      50.288 -37.616  22.003  0.00  0.00    -0.029 A 
ATOM     35  C   UNL     1      51.442 -38.151  21.125  0.00  0.00    +0.045 C 
ENDROOT
BRANCH  10   9
ATOM      4  C   UNL     1      50.376 -33.182  18.381  0.00  0.00    +0.077 A 
ATOM      5  C   UNL     1      50.832 -32.300  19.417  0.00  0.00    +0.048 A 
ATOM      6  C   UNL     1      50.767 -32.773  20.747  0.00  0.00    +0.116 A 
ATOM      7  N   UNL     1      50.279 -34.034  21.010  0.00  0.00    -0.223 NA
ATOM      8  C   UNL     1      49.845 -34.859  19.988  0.00  0.00    +0.220 A 
ATOM      9  N   UNL     1      49.358 -36.134  20.229  0.00  0.00    -0.283 N 
ATOM     36  H   UNL     1      49.041 -36.708  19.449  0.00  0.00    +0.155 HD
ATOM     37  N   UNL     1      49.896 -34.430  18.710  0.00  0.00    -0.214 NA
BRANCH   4   3
ATOM      1  C   UNL     1      49.902 -33.327  14.501  0.00  0.00    +0.020 A 
ATOM      2  C   UNL     1      49.870 -33.716  15.892  0.00  0.00    +0.013 A 
ATOM      3  C   UNL     1      50.385 -32.828  16.927  0.00  0.00    +0.019 A 
ATOM     38  C   UNL     1      50.930 -31.543  16.517  0.00  0.00    +0.120 A 
ATOM     39  N   UNL     1      50.949 -31.195  15.170  0.00  0.00    -0.263 NA
ATOM     40  C   UNL     1      50.457 -32.042  14.165  0.00  0.00    +0.111 A 
ENDBRANCH   4   3
ENDBRANCH  10   9
BRANCH  12  13
ATOM     13  N   UNL     1      47.109 -36.283  24.665  0.00  0.00    -0.281 N 
ATOM     14  C   UNL     1      46.602 -35.009  24.864  0.00  0.00    +0.248 C 
ATOM     30  O   UNL     1      47.116 -33.986  24.436  0.00  0.00    -0.270 OA
ATOM     31  H   UNL     1      46.698 -37.023  25.234  0.00  0.00    +0.155 HD
BRANCH  14  15
ATOM     15  C   UNL     1      45.352 -34.847  25.667  0.00  0.00    +0.037 A 
ATOM     16  C   UNL     1      44.242 -35.796  25.545  0.00  0.00    +0.013 A 
ATOM     17  C   UNL     1      43.040 -35.606  26.318  0.00  0.00    +0.005 A 
ATOM     18  C   UNL     1      42.944 -34.463  27.223  0.00  0.00    -0.033 A 
ATOM     28  C   UNL     1      44.062 -33.540  27.328  0.00  0.00    +0.005 A 
ATOM     29  C   UNL     1      45.241 -33.722  26.571  0.00  0.00    +0.013 A 
BRANCH  18  19
ATOM     19  C   UNL     1      41.691 -34.171  28.071  0.00  0.00    +0.119 C 
BRANCH  19  20
ATOM     20  N   UNL     1      40.781 -33.087  27.595  0.00  0.00    -0.302 NA
ATOM     21  C   UNL     1      40.799 -31.872  28.527  0.00  0.00    +0.066 C 
ATOM     22  C   UNL     1      39.858 -30.738  28.003  0.00  0.00    -0.064 C 
ATOM     23  N   UNL     1      38.438 -31.286  27.854  0.00  0.00    +0.379 N 
ATOM     24  C   UNL     1      37.540 -30.208  27.416  0.00  0.00    -0.096 C 
ATOM     25  H   UNL     1      38.098 -31.622  28.861  0.00  0.00    -0.082 HD
ATOM     26  C   UNL     1      38.412 -32.496  26.931  0.00  0.00    -0.064 C 
ATOM     27  C   UNL     1      39.372 -33.605  27.445  0.00  0.00    +0.066 C 
ENDBRANCH  19  20
ENDBRANCH  18  19
ENDBRANCH  14  15
ENDBRANCH  12  13
TORSDOF 6
ENDMDL
MODEL 4
REMARK VINA RESULT:      -6.6     10.712     12.847
REMARK  Name = C:\Users\Docking\Desktop\test protocol\1iep_ligandH.pdb
REMARK  8 active torsions:
REMARK  status: ('A' for Active; 'I' for Inactive)
REMARK    1  A    between atoms: _5  and  _11
REMARK    2  A    between atoms: _19  and  _21
REMARK    3  A    between atoms: _22  and  _66
REMARK    4  A    between atoms: _27  and  _30
REMARK    5  A    between atoms: _32  and  _33
REMARK    6  A    between atoms: _38  and  _43
REMARK    7  A    between atoms: _43  and  _46
REMARK    8  A    between atoms: _53  and  _55
REMARK                            x       y       z     vdW  Elec       q    Type
REMARK                         _______ _______ _______ _____ _____    ______ ____
ROOT
ATOM     10  C   UNL     1      43.744 -26.941  23.097  0.00  0.00    +0.038 A 
ATOM     11  C   UNL     1      43.342 -25.785  22.381  0.00  0.00    +0.047 A 
ATOM     12  C   UNL     1      44.298 -24.748  22.026  0.00  0.00    +0.035 A 
ATOM     32  C   UNL     1      45.659 -24.923  22.414  0.00  0.00    +0.024 A 
ATOM     33  C   UNL     1      46.085 -26.092  23.143  0.00  0.00    +0.007 A 
ATOM     34  C   UNL     1      45.145 -27.116  23.498  0.00  0.00    -0.029 A 
ATOM     35  C   UNL     1      45.657 -28.345  24.286  0.00  0.00    +0.045 C 
ENDROOT
BRANCH  10   9
ATOM      4  C   UNL     1      40.384 -28.782  25.988  0.00  0.00    +0.077 A 
ATOM      5  C   UNL     1      40.578 -27.752  26.967  0.00  0.00    +0.048 A 
ATOM      6  C   UNL     1      41.557 -26.771  26.692  0.00  0.00    +0.116 A 
ATOM      7  N   UNL     1      42.282 -26.826  25.521  0.00  0.00    -0.223 NA
ATOM      8  C   UNL     1      42.071 -27.834  24.599  0.00  0.00    +0.220 A 
ATOM      9  N   UNL     1      42.783 -27.905  23.411  0.00  0.00    -0.283 N 
ATOM     36  H   UNL     1      42.603 -28.669  22.760  0.00  0.00    +0.155 HD
ATOM     37  N   UNL     1      41.143 -28.784  24.839  0.00  0.00    -0.214 NA
BRANCH   4   3
ATOM      1  C   UNL     1      37.805 -31.612  25.187  0.00  0.00    +0.020 A 
ATOM      2  C   UNL     1      38.765 -30.550  24.992  0.00  0.00    +0.013 A 
ATOM      3  C   UNL     1      39.384 -29.887  26.133  0.00  0.00    +0.019 A 
ATOM     38  C   UNL     1      39.009 -30.327  27.468  0.00  0.00    +0.120 A 
ATOM     39  N   UNL     1      38.081 -31.352  27.625  0.00  0.00    -0.263 NA
ATOM     40  C   UNL     1      37.477 -31.996  26.535  0.00  0.00    +0.111 A 
ENDBRANCH   4   3
ENDBRANCH  10   9
BRANCH  12  13
ATOM     13  N   UNL     1      43.947 -23.549  21.307  0.00  0.00    -0.281 N 
ATOM     14  C   UNL     1      43.892 -23.364  19.935  0.00  0.00    +0.248 C 
ATOM     30  O   UNL     1      44.346 -24.146  19.113  0.00  0.00    -0.270 OA
ATOM     31  H   UNL     1      43.709 -22.738  21.878  0.00  0.00    +0.155 HD
BRANCH  14  15
ATOM     15  C   UNL     1      43.252 -22.124  19.399  0.00  0.00    +0.037 A 
ATOM     16  C   UNL     1      42.799 -21.055  20.293  0.00  0.00    +0.013 A 
ATOM     17  C   UNL     1      42.170 -19.877  19.751  0.00  0.00    +0.005 A 
ATOM     18  C   UNL     1      41.991 -19.761  18.305  0.00  0.00    -0.033 A 
ATOM     28  C   UNL     1      42.455 -20.834  17.441  0.00  0.00    +0.005 A 
ATOM     29  C   UNL     1      43.071 -21.991  17.969  0.00  0.00    +0.013 A 
BRANCH  18  19
ATOM     19  C   UNL     1      41.311 -18.549  17.641  0.00  0.00    +0.119 C 
BRANCH  19  20
ATOM     20  N   UNL     1      40.223 -17.871  18.407  0.00  0.00    -0.302 NA
ATOM     21  C   UNL     1      39.063 -17.447  17.502  0.00  0.00    +0.066 C 
ATOM     22  C   UNL     1      37.923 -16.760  18.322  0.00  0.00    -0.064 C 
ATOM     23  N   UNL     1      38.494 -15.555  19.072  0.00  0.00    +0.379 N 
ATOM     24  C   UNL     1      37.413 -14.872  19.798  0.00  0.00    -0.096 C 
ATOM     25  H   UNL     1      38.894 -14.843  18.313  0.00  0.00    -0.082 HD
ATOM     26  C   UNL     1      39.650 -15.967  19.972  0.00  0.00    -0.064 C 
ATOM     27  C   UNL     1      40.764 -16.676  19.151  0.00  0.00    +0.066 C 
ENDBRANCH  19  20
ENDBRANCH  18  19
ENDBRANCH  14  15
ENDBRANCH  12  13
TORSDOF 6
ENDMDL
MODEL 5
REMARK VINA RESULT:      -6.5     14.359     15.833
REMARK  Name = C:\Users\Docking\Desktop\test protocol\1iep_ligandH.pdb
REMARK  8 active torsions:
REMARK  status: ('A' for Active; 'I' for Inactive)
REMARK    1  A    between atoms: _5  and  _11
REMARK    2  A    between atoms: _19  and  _21
REMARK    3  A    between atoms: _22  and  _66
REMARK    4  A    between atoms: _27  and  _30
REMARK    5  A    between atoms: _32  and  _33
REMARK    6  A    between atoms: _38  and  _43
REMARK    7  A    between atoms: _43  and  _46
REMARK    8  A    between atoms: _53  and  _55
REMARK                            x       y       z     vdW  Elec       q    Type
REMARK                         _______ _______ _______ _____ _____    ______ ____
ROOT
ATOM     10  C   UNL     1      44.999 -48.664  13.120  0.00  0.00    +0.038 A 
ATOM     11  C   UNL     1      44.812 -47.395  12.515  0.00  0.00    +0.047 A 
ATOM     12  C   UNL     1      44.653 -47.265  11.075  0.00  0.00    +0.035 A 
ATOM     32  C   UNL     1      44.687 -48.449  10.281  0.00  0.00    +0.024 A 
ATOM     33  C   UNL     1      44.877 -49.747  10.881  0.00  0.00    +0.007 A 
ATOM     34  C   UNL     1      45.036 -49.881  12.300  0.00  0.00    -0.029 A 
ATOM     35  C   UNL     1      45.243 -51.297  12.888  0.00  0.00    +0.045 C 
ENDROOT
BRANCH  10   9
ATOM      4  C   UNL     1      47.681 -48.596  17.100  0.00  0.00    +0.077 A 
ATOM      5  C   UNL     1      48.894 -48.441  16.351  0.00  0.00    +0.048 A 
ATOM      6  C   UNL     1      48.786 -48.390  14.943  0.00  0.00    +0.116 A 
ATOM      7  N   UNL     1      47.550 -48.488  14.340  0.00  0.00    -0.223 NA
ATOM      8  C   UNL     1      46.400 -48.639  15.092  0.00  0.00    +0.220 A 
ATOM      9  N   UNL     1      45.146 -48.731  14.508  0.00  0.00    -0.283 N 
ATOM     36  H   UNL     1      44.322 -48.849  15.097  0.00  0.00    +0.155 HD
ATOM     37  N   UNL     1      46.477 -48.691  16.439  0.00  0.00    -0.214 NA
BRANCH   4   3
ATOM      1  C   UNL     1      48.679 -48.435  20.879  0.00  0.00    +0.020 A 
ATOM      2  C   UNL     1      48.779 -48.356  19.440  0.00  0.00    +0.013 A 
ATOM      3  C   UNL     1      47.632 -48.663  18.595  0.00  0.00    +0.019 A 
ATOM     38  C   UNL     1      46.388 -49.049  19.243  0.00  0.00    +0.120 A 
ATOM     39  N   UNL     1      46.321 -49.119  20.631  0.00  0.00    -0.263 NA
ATOM     40  C   UNL     1      47.419 -48.827  21.454  0.00  0.00    +0.111 A 
ENDBRANCH   4   3
ENDBRANCH  10   9
BRANCH  12  13
ATOM     13  N   UNL     1      44.469 -46.003  10.403  0.00  0.00    -0.281 N 
ATOM     14  C   UNL     1      45.320 -45.386   9.500  0.00  0.00    +0.248 C 
ATOM     30  O   UNL     1      46.475 -45.728   9.295  0.00  0.00    -0.270 OA
ATOM     31  H   UNL     1      43.606 -45.503  10.618  0.00  0.00    +0.155 HD
BRANCH  14  15
ATOM     15  C   UNL     1      44.820 -44.211   8.723  0.00  0.00    +0.037 A 
ATOM     16  C   UNL     1      45.100 -42.840   9.156  0.00  0.00    +0.013 A 
ATOM     17  C   UNL     1      44.592 -41.724   8.398  0.00  0.00    +0.005 A 
ATOM     18  C   UNL     1      43.798 -41.976   7.197  0.00  0.00    -0.033 A 
ATOM     28  C   UNL     1      43.540 -43.347   6.788  0.00  0.00    +0.005 A 
ATOM     29  C   UNL     1      44.036 -44.443   7.529  0.00  0.00    +0.013 A 
BRANCH  18  19
ATOM     19  C   UNL     1      43.198 -40.847   6.339  0.00  0.00    +0.119 C 
BRANCH  19  20
ATOM     20  N   UNL     1      43.457 -40.894   4.869  0.00  0.00    -0.302 NA
ATOM     21  C   UNL     1      44.934 -40.659   4.538  0.00  0.00    +0.066 C 
ATOM     22  C   UNL     1      45.190 -40.734   2.998  0.00  0.00    -0.064 C 
ATOM     23  N   UNL     1      44.307 -39.709   2.286  0.00  0.00    +0.379 N 
ATOM     24  C   UNL     1      44.588 -39.736   0.843  0.00  0.00    -0.096 C 
ATOM     25  H   UNL     1      44.587 -38.699   2.666  0.00  0.00    -0.082 HD
ATOM     26  C   UNL     1      42.837 -39.933   2.612  0.00  0.00    -0.064 C 
ATOM     27  C   UNL     1      42.597 -39.886   4.147  0.00  0.00    +0.066 C 
ENDBRANCH  19  20
ENDBRANCH  18  19
ENDBRANCH  14  15
ENDBRANCH  12  13
TORSDOF 6
ENDMDL
