MODEL 1
REMARK VINA RESULT:      -7.7      0.000      0.000
REMARK  Name = C:\Users\Docking\Desktop\test protocol\1iep_ligandH.pdb
REMARK  8 active torsions:
REMARK  status: ('A' for Active; 'I' for Inactive)
REMARK    1  A    between atoms: _5  and  _11
REMARK    2  A    between atoms: _19  and  _21
REMARK    3  A    between atoms: _22  and  _66
REMARK    4  A    between atoms: _27  and  _30
REMARK    5  A    between atoms: _32  and  _33
REMARK    6  A    between atoms: _38  and  _43
REMARK    7  A    between atoms: _43  and  _46
REMARK    8  A    between atoms: _53  and  _55
REMARK                            x       y       z     vdW  Elec       q    Type
REMARK                         _______ _______ _______ _____ _____    ______ ____
ROOT
ATOM     10  C   UNL     1      27.055  44.059   8.433  0.00  0.00    +0.038 A 
ATOM     11  C   UNL     1      28.111  43.349   7.806  0.00  0.00    +0.047 A 
ATOM     12  C   UNL     1      28.679  43.802   6.546  0.00  0.00    +0.035 A 
ATOM     32  C   UNL     1      28.149  44.985   5.953  0.00  0.00    +0.024 A 
ATOM     33  C   UNL     1      27.076  45.719   6.576  0.00  0.00    +0.007 A 
ATOM     34  C   UNL     1      26.509  45.275   7.817  0.00  0.00    -0.029 A 
ATOM     35  C   UNL     1      25.355  46.097   8.436  0.00  0.00    +0.045 C 
ENDROOT
BRANCH  10   9
ATOM      4  C   UNL     1      24.360  41.011  10.979  0.00  0.00    +0.077 A 
ATOM      5  C   UNL     1      23.904  40.335   9.798  0.00  0.00    +0.048 A 
ATOM      6  C   UNL     1      24.382  40.807   8.555  0.00  0.00    +0.116 A 
ATOM      7  N   UNL     1      25.250  41.876   8.508  0.00  0.00    -0.223 NA
ATOM      8  C   UNL     1      25.668  42.507   9.665  0.00  0.00    +0.220 A 
ATOM      9  N   UNL     1      26.547  43.579   9.642  0.00  0.00    -0.283 N 
ATOM     36  H   UNL     1      26.826  44.021  10.517  0.00  0.00    +0.155 HD
ATOM     37  N   UNL     1      25.226  42.075  10.865  0.00  0.00    -0.214 NA
BRANCH   4   3
ATOM      1  C   UNL     1      23.977  40.926  14.871  0.00  0.00    +0.020 A 
ATOM      2  C   UNL     1      24.405  41.337  13.554  0.00  0.00    +0.013 A 
ATOM      3  C   UNL     1      23.948  40.627  12.366  0.00  0.00    +0.019 A 
ATOM     38  C   UNL     1      23.049  39.497  12.547  0.00  0.00    +0.120 A 
ATOM     39  N   UNL     1      22.655  39.123  13.828  0.00  0.00    -0.263 NA
ATOM     40  C   UNL     1      23.090  39.798  14.978  0.00  0.00    +0.111 A 
ENDBRANCH   4   3
ENDBRANCH  10   9
BRANCH  12  13
ATOM     13  N   UNL     1      29.746  43.118   5.859  0.00  0.00    -0.281 N 
ATOM     14  C   UNL     1      29.655  42.005   5.039  0.00  0.00    +0.248 C 
ATOM     30  O   UNL     1      28.664  41.298   4.941  0.00  0.00    -0.270 OA
ATOM     31  H   UNL     1      30.682  43.500   5.995  0.00  0.00    +0.155 HD
BRANCH  14  15
ATOM     15  C   UNL     1      30.842  41.614   4.219  0.00  0.00    +0.037 A 
ATOM     16  C   UNL     1      30.695  41.185   2.826  0.00  0.00    +0.013 A 
ATOM     17  C   UNL     1      31.855  40.796   2.063  0.00  0.00    +0.005 A 
ATOM     18  C   UNL     1      33.173  40.837   2.692  0.00  0.00    -0.033 A 
ATOM     28  C   UNL     1      33.290  41.273   4.073  0.00  0.00    +0.005 A 
ATOM     29  C   UNL     1      32.156  41.653   4.825  0.00  0.00    +0.013 A 
BRANCH  18  19
ATOM     19  C   UNL     1      34.462  40.421   1.959  0.00  0.00    +0.119 C 
BRANCH  19  20
ATOM     20  N   UNL     1      35.460  39.622   2.732  0.00  0.00    -0.302 NA
ATOM     21  C   UNL     1      36.884  40.155   2.554  0.00  0.00    +0.066 C 
ATOM     22  C   UNL     1      37.912  39.322   3.387  0.00  0.00    -0.064 C 
ATOM     23  N   UNL     1      37.828  37.852   2.974  0.00  0.00    +0.379 N 
ATOM     24  C   UNL     1      38.833  37.075   3.714  0.00  0.00    -0.096 C 
ATOM     25  H   UNL     1      38.083  37.790   1.890  0.00  0.00    -0.082 HD
ATOM     26  C   UNL     1      36.414  37.315   3.145  0.00  0.00    -0.064 C 
ATOM     27  C   UNL     1      35.397  38.168   2.337  0.00  0.00    +0.066 C 
ENDBRANCH  19  20
ENDBRANCH  18  19
ENDBRANCH  14  15
ENDBRANCH  12  13
TORSDOF 6
ENDMDL
MODEL 2
REMARK VINA RESULT:      -7.3     19.421     25.519
REMARK  Name = C:\Users\Docking\Desktop\test protocol\1iep_ligandH.pdb
REMARK  8 active torsions:
REMARK  status: ('A' for Active; 'I' for Inactive)
REMARK    1  A    between atoms: _5  and  _11
REMARK    2  A    between atoms: _19  and  _21
REMARK    3  A    between atoms: _22  and  _66
REMARK    4  A    between atoms: _27  and  _30
REMARK    5  A    between atoms: _32  and  _33
REMARK    6  A    between atoms: _38  and  _43
REMARK    7  A    between atoms: _43  and  _46
REMARK    8  A    between atoms: _53  and  _55
REMARK                            x       y       z     vdW  Elec       q    Type
REMARK                         _______ _______ _______ _____ _____    ______ ____
ROOT
ATOM     10  C   UNL     1      43.519  27.335  19.340  0.00  0.00    +0.038 A 
ATOM     11  C   UNL     1      42.361  28.039  19.757  0.00  0.00    +0.047 A 
ATOM     12  C   UNL     1      41.048  27.413  19.729  0.00  0.00    +0.035 A 
ATOM     32  C   UNL     1      40.952  26.066  19.274  0.00  0.00    +0.024 A 
ATOM     33  C   UNL     1      42.119  25.335  18.845  0.00  0.00    +0.007 A 
ATOM     34  C   UNL     1      43.416  25.948  18.868  0.00  0.00    -0.029 A 
ATOM     35  C   UNL     1      44.631  25.120  18.391  0.00  0.00    +0.045 C 
ENDROOT
BRANCH  10   9
ATOM      4  C   UNL     1      47.565  28.574  21.605  0.00  0.00    +0.077 A 
ATOM      5  C   UNL     1      47.173  27.892  22.804  0.00  0.00    +0.048 A 
ATOM      6  C   UNL     1      45.920  27.240  22.800  0.00  0.00    +0.116 A 
ATOM      7  N   UNL     1      45.126  27.274  21.674  0.00  0.00    -0.223 NA
ATOM      8  C   UNL     1      45.533  27.943  20.534  0.00  0.00    +0.220 A 
ATOM      9  N   UNL     1      44.754  27.985  19.388  0.00  0.00    -0.283 N 
ATOM     36  H   UNL     1      45.087  28.495  18.570  0.00  0.00    +0.155 HD
ATOM     37  N   UNL     1      46.725  28.575  20.514  0.00  0.00    -0.214 NA
BRANCH   4   3
ATOM      1  C   UNL     1      50.273  31.397  21.537  0.00  0.00    +0.020 A 
ATOM      2  C   UNL     1      48.997  30.738  21.697  0.00  0.00    +0.013 A 
ATOM      3  C   UNL     1      48.862  29.307  21.454  0.00  0.00    +0.019 A 
ATOM     38  C   UNL     1      50.047  28.566  21.047  0.00  0.00    +0.120 A 
ATOM     39  N   UNL     1      51.262  29.228  20.900  0.00  0.00    -0.263 NA
ATOM     40  C   UNL     1      51.403  30.605  21.130  0.00  0.00    +0.111 A 
ENDBRANCH   4   3
ENDBRANCH  10   9
BRANCH  12  13
ATOM     13  N   UNL     1      39.836  28.081  20.133  0.00  0.00    -0.281 N 
ATOM     14  C   UNL     1      38.807  28.539  19.326  0.00  0.00    +0.248 C 
ATOM     30  O   UNL     1      38.873  28.634  18.109  0.00  0.00    -0.270 OA
ATOM     31  H   UNL     1      39.723  28.236  21.135  0.00  0.00    +0.155 HD
BRANCH  14  15
ATOM     15  C   UNL     1      37.525  28.967  19.964  0.00  0.00    +0.037 A 
ATOM     16  C   UNL     1      37.055  28.355  21.209  0.00  0.00    +0.013 A 
ATOM     17  C   UNL     1      35.806  28.774  21.794  0.00  0.00    +0.005 A 
ATOM     18  C   UNL     1      35.019  29.813  21.134  0.00  0.00    -0.033 A 
ATOM     28  C   UNL     1      35.512  30.407  19.903  0.00  0.00    +0.005 A 
ATOM     29  C   UNL     1      36.735  29.998  19.326  0.00  0.00    +0.013 A 
BRANCH  18  19
ATOM     19  C   UNL     1      33.664  30.307  21.676  0.00  0.00    +0.119 C 
BRANCH  19  20
ATOM     20  N   UNL     1      33.673  31.027  22.984  0.00  0.00    -0.302 NA
ATOM     21  C   UNL     1      32.833  30.306  24.043  0.00  0.00    +0.066 C 
ATOM     22  C   UNL     1      32.872  31.062  25.411  0.00  0.00    -0.064 C 
ATOM     23  N   UNL     1      32.378  32.496  25.213  0.00  0.00    +0.379 N 
ATOM     24  C   UNL     1      32.358  33.191  26.508  0.00  0.00    -0.096 C 
ATOM     25  H   UNL     1      31.328  32.443  24.841  0.00  0.00    -0.082 HD
ATOM     26  C   UNL     1      33.206  33.219  24.160  0.00  0.00    -0.064 C 
ATOM     27  C   UNL     1      33.185  32.445  22.813  0.00  0.00    +0.066 C 
ENDBRANCH  19  20
ENDBRANCH  18  19
ENDBRANCH  14  15
ENDBRANCH  12  13
TORSDOF 6
ENDMDL
MODEL 3
REMARK VINA RESULT:      -7.0     22.895     24.234
REMARK  Name = C:\Users\Docking\Desktop\test protocol\1iep_ligandH.pdb
REMARK  8 active torsions:
REMARK  status: ('A' for Active; 'I' for Inactive)
REMARK    1  A    between atoms: _5  and  _11
REMARK    2  A    between atoms: _19  and  _21
REMARK    3  A    between atoms: _22  and  _66
REMARK    4  A    between atoms: _27  and  _30
REMARK    5  A    between atoms: _32  and  _33
REMARK    6  A    between atoms: _38  and  _43
REMARK    7  A    between atoms: _43  and  _46
REMARK    8  A    between atoms: _53  and  _55
REMARK                            x       y       z     vdW  Elec       q    Type
REMARK                         _______ _______ _______ _____ _____    ______ ____
ROOT
ATOM     10  C   UNL     1      36.264  58.063  21.670  0.00  0.00    +0.038 A 
ATOM     11  C   UNL     1      37.563  58.300  21.153  0.00  0.00    +0.047 A 
ATOM     12  C   UNL     1      38.535  59.088  21.894  0.00  0.00    +0.035 A 
ATOM     32  C   UNL     1      38.151  59.618  23.160  0.00  0.00    +0.024 A 
ATOM     33  C   UNL     1      36.834  59.388  23.700  0.00  0.00    +0.007 A 
ATOM     34  C   UNL     1      35.870  58.613  22.973  0.00  0.00    -0.029 A 
ATOM     35  C   UNL     1      34.471  58.403  23.597  0.00  0.00    +0.045 C 
ENDROOT
BRANCH  10   9
ATOM      4  C   UNL     1      34.069  53.924  20.624  0.00  0.00    +0.077 A 
ATOM      5  C   UNL     1      34.783  53.218  21.648  0.00  0.00    +0.048 A 
ATOM      6  C   UNL     1      35.711  53.955  22.418  0.00  0.00    +0.116 A 
ATOM      7  N   UNL     1      35.903  55.298  22.172  0.00  0.00    -0.223 NA
ATOM      8  C   UNL     1      35.199  55.948  21.175  0.00  0.00    +0.220 A 
ATOM      9  N   UNL     1      35.370  57.299  20.916  0.00  0.00    -0.283 N 
ATOM     36  H   UNL     1      34.837  57.740  20.167  0.00  0.00    +0.155 HD
ATOM     37  N   UNL     1      34.308  55.266  20.425  0.00  0.00    -0.214 NA
BRANCH   4   3
ATOM      1  C   UNL     1      31.764  53.122  17.567  0.00  0.00    +0.020 A 
ATOM      2  C   UNL     1      32.755  53.776  18.390  0.00  0.00    +0.013 A 
ATOM      3  C   UNL     1      33.053  53.284  19.730  0.00  0.00    +0.019 A 
ATOM     38  C   UNL     1      32.326  52.118  20.209  0.00  0.00    +0.120 A 
ATOM     39  N   UNL     1      31.377  51.510  19.394  0.00  0.00    -0.263 NA
ATOM     40  C   UNL     1      31.080  51.975  18.105  0.00  0.00    +0.111 A 
ENDBRANCH   4   3
ENDBRANCH  10   9
BRANCH  12  13
ATOM     13  N   UNL     1      39.866  59.369  21.416  0.00  0.00    -0.281 N 
ATOM     14  C   UNL     1      41.067  58.878  21.902  0.00  0.00    +0.248 C 
ATOM     30  O   UNL     1      41.192  58.285  22.964  0.00  0.00    -0.270 OA
ATOM     31  H   UNL     1      39.932  60.007  20.623  0.00  0.00    +0.155 HD
BRANCH  14  15
ATOM     15  C   UNL     1      42.311  59.087  21.100  0.00  0.00    +0.037 A 
ATOM     16  C   UNL     1      42.904  60.419  20.952  0.00  0.00    +0.013 A 
ATOM     17  C   UNL     1      44.094  60.595  20.158  0.00  0.00    +0.005 A 
ATOM     18  C   UNL     1      44.700  59.436  19.508  0.00  0.00    -0.033 A 
ATOM     28  C   UNL     1      44.094  58.126  19.677  0.00  0.00    +0.005 A 
ATOM     29  C   UNL     1      42.927  57.949  20.453  0.00  0.00    +0.013 A 
BRANCH  18  19
ATOM     19  C   UNL     1      45.959  59.535  18.626  0.00  0.00    +0.119 C 
BRANCH  19  20
ATOM     20  N   UNL     1      47.184  60.123  19.245  0.00  0.00    -0.302 NA
ATOM     21  C   UNL     1      48.370  60.133  18.277  0.00  0.00    +0.066 C 
ATOM     22  C   UNL     1      49.636  60.772  18.933  0.00  0.00    -0.064 C 
ATOM     23  N   UNL     1      49.986  60.007  20.211  0.00  0.00    +0.379 N 
ATOM     24  C   UNL     1      51.210  60.570  20.799  0.00  0.00    -0.096 C 
ATOM     25  H   UNL     1      50.203  58.952  19.924  0.00  0.00    -0.082 HD
ATOM     26  C   UNL     1      48.812  59.990  21.178  0.00  0.00    -0.064 C 
ATOM     27  C   UNL     1      47.550  59.380  20.506  0.00  0.00    +0.066 C 
ENDBRANCH  19  20
ENDBRANCH  18  19
ENDBRANCH  14  15
ENDBRANCH  12  13
TORSDOF 6
ENDMDL
MODEL 4
REMARK VINA RESULT:      -6.7     21.499     25.702
REMARK  Name = C:\Users\Docking\Desktop\test protocol\1iep_ligandH.pdb
REMARK  8 active torsions:
REMARK  status: ('A' for Active; 'I' for Inactive)
REMARK    1  A    between atoms: _5  and  _11
REMARK    2  A    between atoms: _19  and  _21
REMARK    3  A    between atoms: _22  and  _66
REMARK    4  A    between atoms: _27  and  _30
REMARK    5  A    between atoms: _32  and  _33
REMARK    6  A    between atoms: _38  and  _43
REMARK    7  A    between atoms: _43  and  _46
REMARK    8  A    between atoms: _53  and  _55
REMARK                            x       y       z     vdW  Elec       q    Type
REMARK                         _______ _______ _______ _____ _____    ______ ____
ROOT
ATOM     10  C   UNL     1      33.637  31.808  26.115  0.00  0.00    +0.038 A 
ATOM     11  C   UNL     1      34.552  31.584  27.174  0.00  0.00    +0.047 A 
ATOM     12  C   UNL     1      35.847  32.247  27.203  0.00  0.00    +0.035 A 
ATOM     32  C   UNL     1      36.175  33.134  26.136  0.00  0.00    +0.024 A 
ATOM     33  C   UNL     1      35.257  33.372  25.051  0.00  0.00    +0.007 A 
ATOM     34  C   UNL     1      33.979  32.719  25.016  0.00  0.00    -0.029 A 
ATOM     35  C   UNL     1      33.037  33.007  23.824  0.00  0.00    +0.045 C 
ENDROOT
BRANCH  10   9
ATOM      4  C   UNL     1      28.938  31.636  27.082  0.00  0.00    +0.077 A 
ATOM      5  C   UNL     1      28.938  32.970  27.610  0.00  0.00    +0.048 A 
ATOM      6  C   UNL     1      30.169  33.664  27.621  0.00  0.00    +0.116 A 
ATOM      7  N   UNL     1      31.309  33.059  27.138  0.00  0.00    -0.223 NA
ATOM      8  C   UNL     1      31.275  31.770  26.637  0.00  0.00    +0.220 A 
ATOM      9  N   UNL     1      32.407  31.145  26.138  0.00  0.00    -0.283 N 
ATOM     36  H   UNL     1      32.342  30.191  25.785  0.00  0.00    +0.155 HD
ATOM     37  N   UNL     1      30.112  31.086  26.617  0.00  0.00    -0.214 NA
BRANCH   4   3
ATOM      1  C   UNL     1      26.240  29.093  25.836  0.00  0.00    +0.020 A 
ATOM      2  C   UNL     1      27.436  29.903  25.866  0.00  0.00    +0.013 A 
ATOM      3  C   UNL     1      27.716  30.776  27.000  0.00  0.00    +0.019 A 
ATOM     38  C   UNL     1      26.758  30.805  28.095  0.00  0.00    +0.120 A 
ATOM     39  N   UNL     1      25.615  30.014  28.038  0.00  0.00    -0.263 NA
ATOM     40  C   UNL     1      25.334  29.172  26.952  0.00  0.00    +0.111 A 
ENDBRANCH   4   3
ENDBRANCH  10   9
BRANCH  12  13
ATOM     13  N   UNL     1      36.821  32.053  28.248  0.00  0.00    -0.281 N 
ATOM     14  C   UNL     1      38.034  31.388  28.169  0.00  0.00    +0.248 C 
ATOM     30  O   UNL     1      38.370  30.672  27.238  0.00  0.00    -0.270 OA
ATOM     31  H   UNL     1      36.588  32.454  29.156  0.00  0.00    +0.155 HD
BRANCH  14  15
ATOM     15  C   UNL     1      39.008  31.528  29.294  0.00  0.00    +0.037 A 
ATOM     16  C   UNL     1      40.072  32.535  29.257  0.00  0.00    +0.013 A 
ATOM     17  C   UNL     1      41.009  32.637  30.347  0.00  0.00    +0.005 A 
ATOM     18  C   UNL     1      40.885  31.730  31.486  0.00  0.00    -0.033 A 
ATOM     28  C   UNL     1      39.817  30.744  31.499  0.00  0.00    +0.005 A 
ATOM     29  C   UNL     1      38.898  30.640  30.431  0.00  0.00    +0.013 A 
BRANCH  18  19
ATOM     19  C   UNL     1      41.853  31.754  32.683  0.00  0.00    +0.119 C 
BRANCH  19  20
ATOM     20  N   UNL     1      42.002  33.046  33.417  0.00  0.00    -0.302 NA
ATOM     21  C   UNL     1      43.336  33.732  33.106  0.00  0.00    +0.066 C 
ATOM     22  C   UNL     1      43.465  35.094  33.864  0.00  0.00    -0.064 C 
ATOM     23  N   UNL     1      43.317  34.853  35.367  0.00  0.00    +0.379 N 
ATOM     24  C   UNL     1      43.496  36.123  36.087  0.00  0.00    -0.096 C 
ATOM     25  H   UNL     1      44.137  34.167  35.682  0.00  0.00    -0.082 HD
ATOM     26  C   UNL     1      41.995  34.169  35.685  0.00  0.00    -0.064 C 
ATOM     27  C   UNL     1      41.864  32.831  34.904  0.00  0.00    +0.066 C 
ENDBRANCH  19  20
ENDBRANCH  18  19
ENDBRANCH  14  15
ENDBRANCH  12  13
TORSDOF 6
ENDMDL
MODEL 5
REMARK VINA RESULT:      -6.6     22.420     27.005
REMARK  Name = C:\Users\Docking\Desktop\test protocol\1iep_ligandH.pdb
REMARK  8 active torsions:
REMARK  status: ('A' for Active; 'I' for Inactive)
REMARK    1  A    between atoms: _5  and  _11
REMARK    2  A    between atoms: _19  and  _21
REMARK    3  A    between atoms: _22  and  _66
REMARK    4  A    between atoms: _27  and  _30
REMARK    5  A    between atoms: _32  and  _33
REMARK    6  A    between atoms: _38  and  _43
REMARK    7  A    between atoms: _43  and  _46
REMARK    8  A    between atoms: _53  and  _55
REMARK                            x       y       z     vdW  Elec       q    Type
REMARK                         _______ _______ _______ _____ _____    ______ ____
ROOT
ATOM     10  C   UNL     1      51.015  33.136  22.578  0.00  0.00    +0.038 A 
ATOM     11  C   UNL     1      51.387  33.843  21.406  0.00  0.00    +0.047 A 
ATOM     12  C   UNL     1      52.582  34.673  21.376  0.00  0.00    +0.035 A 
ATOM     32  C   UNL     1      53.376  34.758  22.557  0.00  0.00    +0.024 A 
ATOM     33  C   UNL     1      53.011  34.046  23.757  0.00  0.00    +0.007 A 
ATOM     34  C   UNL     1      51.833  33.228  23.793  0.00  0.00    -0.029 A 
ATOM     35  C   UNL     1      51.487  32.493  25.109  0.00  0.00    +0.045 C 
ENDROOT
BRANCH  10   9
ATOM      4  C   UNL     1      48.696  29.041  21.635  0.00  0.00    +0.077 A 
ATOM      5  C   UNL     1      49.883  28.416  21.129  0.00  0.00    +0.048 A 
ATOM      6  C   UNL     1      51.069  29.185  21.121  0.00  0.00    +0.116 A 
ATOM      7  N   UNL     1      51.056  30.481  21.589  0.00  0.00    -0.223 NA
ATOM      8  C   UNL     1      49.893  31.054  22.069  0.00  0.00    +0.220 A 
ATOM      9  N   UNL     1      49.858  32.354  22.551  0.00  0.00    -0.283 N 
ATOM     36  H   UNL     1      48.979  32.743  22.890  0.00  0.00    +0.155 HD
ATOM     37  N   UNL     1      48.747  30.341  22.085  0.00  0.00    -0.214 NA
BRANCH   4   3
ATOM      1  C   UNL     1      45.145  27.671  20.731  0.00  0.00    +0.020 A 
ATOM      2  C   UNL     1      46.416  28.346  20.606  0.00  0.00    +0.013 A 
ATOM      3  C   UNL     1      47.366  28.357  21.711  0.00  0.00    +0.019 A 
ATOM     38  C   UNL     1      46.997  27.668  22.939  0.00  0.00    +0.120 A 
ATOM     39  N   UNL     1      45.765  27.027  23.031  0.00  0.00    -0.263 NA
ATOM     40  C   UNL     1      44.842  27.012  21.974  0.00  0.00    +0.111 A 
ENDBRANCH   4   3
ENDBRANCH  10   9
BRANCH  12  13
ATOM     13  N   UNL     1      53.005  35.421  20.218  0.00  0.00    -0.281 N 
ATOM     14  C   UNL     1      53.802  34.989  19.170  0.00  0.00    +0.248 C 
ATOM     30  O   UNL     1      54.451  33.953  19.177  0.00  0.00    -0.270 OA
ATOM     31  H   UNL     1      52.678  36.385  20.164  0.00  0.00    +0.155 HD
BRANCH  14  15
ATOM     15  C   UNL     1      53.905  35.837  17.944  0.00  0.00    +0.037 A 
ATOM     16  C   UNL     1      54.396  37.216  18.013  0.00  0.00    +0.013 A 
ATOM     17  C   UNL     1      54.469  38.018  16.817  0.00  0.00    +0.005 A 
ATOM     18  C   UNL     1      54.050  37.442  15.542  0.00  0.00    -0.033 A 
ATOM     28  C   UNL     1      53.572  36.070  15.501  0.00  0.00    +0.005 A 
ATOM     29  C   UNL     1      53.498  35.281  16.671  0.00  0.00    +0.013 A 
BRANCH  18  19
ATOM     19  C   UNL     1      54.074  38.231  14.219  0.00  0.00    +0.119 C 
BRANCH  19  20
ATOM     20  N   UNL     1      52.770  38.434  13.520  0.00  0.00    -0.302 NA
ATOM     21  C   UNL     1      52.669  37.599  12.241  0.00  0.00    +0.066 C 
ATOM     22  C   UNL     1      51.289  37.805  11.534  0.00  0.00    -0.064 C 
ATOM     23  N   UNL     1      51.094  39.291  11.228  0.00  0.00    +0.379 N 
ATOM     24  C   UNL     1      49.824  39.482  10.512  0.00  0.00    -0.096 C 
ATOM     25  H   UNL     1      51.918  39.607  10.546  0.00  0.00    -0.082 HD
ATOM     26  C   UNL     1      51.196  40.129  12.495  0.00  0.00    -0.064 C 
ATOM     27  C   UNL     1      52.558  39.894  13.205  0.00  0.00    +0.066 C 
ENDBRANCH  19  20
ENDBRANCH  18  19
ENDBRANCH  14  15
ENDBRANCH  12  13
TORSDOF 6
ENDMDL
