MODEL 1
REMARK VINA RESULT:      -8.6      0.000      0.000
REMARK  Name = C:\Users\Docking\Desktop\test protocol\1iep_ligandH.pdb
REMARK  8 active torsions:
REMARK  status: ('A' for Active; 'I' for Inactive)
REMARK    1  A    between atoms: _5  and  _11
REMARK    2  A    between atoms: _19  and  _21
REMARK    3  A    between atoms: _22  and  _66
REMARK    4  A    between atoms: _27  and  _30
REMARK    5  A    between atoms: _32  and  _33
REMARK    6  A    between atoms: _38  and  _43
REMARK    7  A    between atoms: _43  and  _46
REMARK    8  A    between atoms: _53  and  _55
REMARK                            x       y       z     vdW  Elec       q    Type
REMARK                         _______ _______ _______ _____ _____    ______ ____
ROOT
ATOM     10  C   UNL     1      -4.783  -6.215  24.287  0.00  0.00    +0.038 A 
ATOM     11  C   UNL     1      -4.556  -6.248  22.888  0.00  0.00    +0.047 A 
ATOM     12  C   UNL     1      -5.648  -6.476  21.954  0.00  0.00    +0.035 A 
ATOM     32  C   UNL     1      -6.960  -6.663  22.480  0.00  0.00    +0.024 A 
ATOM     33  C   UNL     1      -7.208  -6.633  23.900  0.00  0.00    +0.007 A 
ATOM     34  C   UNL     1      -6.135  -6.412  24.826  0.00  0.00    -0.029 A 
ATOM     35  C   UNL     1      -6.458  -6.396  26.338  0.00  0.00    +0.045 C 
ENDROOT
BRANCH  10   9
ATOM      4  C   UNL     1      -0.939  -7.731  26.728  0.00  0.00    +0.077 A 
ATOM      5  C   UNL     1      -1.123  -9.085  26.292  0.00  0.00    +0.048 A 
ATOM      6  C   UNL     1      -2.223  -9.351  25.446  0.00  0.00    +0.116 A 
ATOM      7  N   UNL     1      -3.069  -8.331  25.071  0.00  0.00    -0.223 NA
ATOM      8  C   UNL     1      -2.864  -7.036  25.510  0.00  0.00    +0.220 A 
ATOM      9  N   UNL     1      -3.698  -5.993  25.138  0.00  0.00    -0.283 N 
ATOM     36  H   UNL     1      -3.518  -5.053  25.490  0.00  0.00    +0.155 HD
ATOM     37  N   UNL     1      -1.822  -6.757  26.320  0.00  0.00    -0.214 NA
BRANCH   4   3
ATOM      1  C   UNL     1       2.031  -5.706  28.272  0.00  0.00    +0.020 A 
ATOM      2  C   UNL     1       0.962  -6.086  27.377  0.00  0.00    +0.013 A 
ATOM      3  C   UNL     1       0.179  -7.292  27.622  0.00  0.00    +0.019 A 
ATOM     38  C   UNL     1       0.506  -8.096  28.789  0.00  0.00    +0.120 A 
ATOM     39  N   UNL     1       1.542  -7.706  29.632  0.00  0.00    -0.263 NA
ATOM     40  C   UNL     1       2.303  -6.549  29.406  0.00  0.00    +0.111 A 
ENDBRANCH   4   3
ENDBRANCH  10   9
BRANCH  12  13
ATOM     13  N   UNL     1      -5.477  -6.528  20.523  0.00  0.00    -0.281 N 
ATOM     14  C   UNL     1      -5.172  -7.630  19.741  0.00  0.00    +0.248 C 
ATOM     30  O   UNL     1      -4.788  -8.704  20.181  0.00  0.00    -0.270 OA
ATOM     31  H   UNL     1      -5.595  -5.645  20.026  0.00  0.00    +0.155 HD
BRANCH  14  15
ATOM     15  C   UNL     1      -5.299  -7.520  18.256  0.00  0.00    +0.037 A 
ATOM     16  C   UNL     1      -4.170  -7.088  17.427  0.00  0.00    +0.013 A 
ATOM     17  C   UNL     1      -4.324  -6.974  15.999  0.00  0.00    +0.005 A 
ATOM     18  C   UNL     1      -5.613  -7.293  15.389  0.00  0.00    -0.033 A 
ATOM     28  C   UNL     1      -6.714  -7.724  16.234  0.00  0.00    +0.005 A 
ATOM     29  C   UNL     1      -6.567  -7.836  17.635  0.00  0.00    +0.013 A 
BRANCH  18  19
ATOM     19  C   UNL     1      -5.873  -7.179  13.876  0.00  0.00    +0.119 C 
BRANCH  19  20
ATOM     20  N   UNL     1      -7.202  -6.646  13.449  0.00  0.00    -0.302 NA
ATOM     21  C   UNL     1      -7.618  -7.176  12.074  0.00  0.00    +0.066 C 
ATOM     22  C   UNL     1      -9.020  -6.627  11.653  0.00  0.00    -0.064 C 
ATOM     23  N   UNL     1      -8.988  -5.098  11.658  0.00  0.00    +0.379 N 
ATOM     24  C   UNL     1     -10.288  -4.579  11.206  0.00  0.00    -0.096 C 
ATOM     25  H   UNL     1      -8.219  -4.773  10.919  0.00  0.00    -0.082 HD
ATOM     26  C   UNL     1      -8.573  -4.563  13.021  0.00  0.00    -0.064 C 
ATOM     27  C   UNL     1      -7.192  -5.138  13.443  0.00  0.00    +0.066 C 
ENDBRANCH  19  20
ENDBRANCH  18  19
ENDBRANCH  14  15
ENDBRANCH  12  13
TORSDOF 6
ENDMDL
MODEL 2
REMARK VINA RESULT:      -8.4      1.714      2.446
REMARK  Name = C:\Users\Docking\Desktop\test protocol\1iep_ligandH.pdb
REMARK  8 active torsions:
REMARK  status: ('A' for Active; 'I' for Inactive)
REMARK    1  A    between atoms: _5  and  _11
REMARK    2  A    between atoms: _19  and  _21
REMARK    3  A    between atoms: _22  and  _66
REMARK    4  A    between atoms: _27  and  _30
REMARK    5  A    between atoms: _32  and  _33
REMARK    6  A    between atoms: _38  and  _43
REMARK    7  A    between atoms: _43  and  _46
REMARK    8  A    between atoms: _53  and  _55
REMARK                            x       y       z     vdW  Elec       q    Type
REMARK                         _______ _______ _______ _____ _____    ______ ____
ROOT
ATOM     10  C   UNL     1      -4.821  -6.203  24.294  0.00  0.00    +0.038 A 
ATOM     11  C   UNL     1      -4.582  -6.242  22.896  0.00  0.00    +0.047 A 
ATOM     12  C   UNL     1      -5.667  -6.465  21.953  0.00  0.00    +0.035 A 
ATOM     32  C   UNL     1      -6.984  -6.641  22.467  0.00  0.00    +0.024 A 
ATOM     33  C   UNL     1      -7.245  -6.606  23.885  0.00  0.00    +0.007 A 
ATOM     34  C   UNL     1      -6.179  -6.389  24.820  0.00  0.00    -0.029 A 
ATOM     35  C   UNL     1      -6.516  -6.367  26.330  0.00  0.00    +0.045 C 
ENDROOT
BRANCH  10   9
ATOM      4  C   UNL     1      -0.960  -7.720  26.707  0.00  0.00    +0.077 A 
ATOM      5  C   UNL     1      -1.120  -9.065  26.235  0.00  0.00    +0.048 A 
ATOM      6  C   UNL     1      -2.213  -9.327  25.379  0.00  0.00    +0.116 A 
ATOM      7  N   UNL     1      -3.075  -8.310  25.027  0.00  0.00    -0.223 NA
ATOM      8  C   UNL     1      -2.893  -7.024  25.501  0.00  0.00    +0.220 A 
ATOM      9  N   UNL     1      -3.743  -5.986  25.154  0.00  0.00    -0.283 N 
ATOM     36  H   UNL     1      -3.579  -5.053  25.531  0.00  0.00    +0.155 HD
ATOM     37  N   UNL     1      -1.858  -6.750  26.322  0.00  0.00    -0.214 NA
BRANCH   4   3
ATOM      1  C   UNL     1       2.020  -5.728  28.274  0.00  0.00    +0.020 A 
ATOM      2  C   UNL     1       0.962  -6.104  27.364  0.00  0.00    +0.013 A 
ATOM      3  C   UNL     1       0.148  -7.286  27.616  0.00  0.00    +0.019 A 
ATOM     38  C   UNL     1       0.432  -8.073  28.807  0.00  0.00    +0.120 A 
ATOM     39  N   UNL     1       1.458  -7.687  29.664  0.00  0.00    -0.263 NA
ATOM     40  C   UNL     1       2.249  -6.552  29.431  0.00  0.00    +0.111 A 
ENDBRANCH   4   3
ENDBRANCH  10   9
BRANCH  12  13
ATOM     13  N   UNL     1      -5.483  -6.522  20.524  0.00  0.00    -0.281 N 
ATOM     14  C   UNL     1      -5.209  -7.635  19.745  0.00  0.00    +0.248 C 
ATOM     30  O   UNL     1      -4.868  -8.721  20.187  0.00  0.00    -0.270 OA
ATOM     31  H   UNL     1      -5.564  -5.635  20.026  0.00  0.00    +0.155 HD
BRANCH  14  15
ATOM     15  C   UNL     1      -5.316  -7.519  18.258  0.00  0.00    +0.037 A 
ATOM     16  C   UNL     1      -4.183  -7.063  17.448  0.00  0.00    +0.013 A 
ATOM     17  C   UNL     1      -4.319  -6.944  16.018  0.00  0.00    +0.005 A 
ATOM     18  C   UNL     1      -5.593  -7.284  15.388  0.00  0.00    -0.033 A 
ATOM     28  C   UNL     1      -6.698  -7.738  16.216  0.00  0.00    +0.005 A 
ATOM     29  C   UNL     1      -6.570  -7.855  17.618  0.00  0.00    +0.013 A 
BRANCH  18  19
ATOM     19  C   UNL     1      -5.834  -7.166  13.872  0.00  0.00    +0.119 C 
BRANCH  19  20
ATOM     20  N   UNL     1      -4.654  -6.841  13.015  0.00  0.00    -0.302 NA
ATOM     21  C   UNL     1      -4.993  -5.805  11.940  0.00  0.00    +0.066 C 
ATOM     22  C   UNL     1      -3.743  -5.460  11.067  0.00  0.00    -0.064 C 
ATOM     23  N   UNL     1      -3.198  -6.741  10.433  0.00  0.00    +0.379 N 
ATOM     24  C   UNL     1      -2.057  -6.412   9.566  0.00  0.00    -0.096 C 
ATOM     25  H   UNL     1      -4.002  -7.167   9.788  0.00  0.00    -0.082 HD
ATOM     26  C   UNL     1      -2.861  -7.778  11.495  0.00  0.00    -0.064 C 
ATOM     27  C   UNL     1      -4.103  -8.092  12.375  0.00  0.00    +0.066 C 
ENDBRANCH  19  20
ENDBRANCH  18  19
ENDBRANCH  14  15
ENDBRANCH  12  13
TORSDOF 6
ENDMDL
MODEL 3
REMARK VINA RESULT:      -8.2      2.687     13.609
REMARK  Name = C:\Users\Docking\Desktop\test protocol\1iep_ligandH.pdb
REMARK  8 active torsions:
REMARK  status: ('A' for Active; 'I' for Inactive)
REMARK    1  A    between atoms: _5  and  _11
REMARK    2  A    between atoms: _19  and  _21
REMARK    3  A    between atoms: _22  and  _66
REMARK    4  A    between atoms: _27  and  _30
REMARK    5  A    between atoms: _32  and  _33
REMARK    6  A    between atoms: _38  and  _43
REMARK    7  A    between atoms: _43  and  _46
REMARK    8  A    between atoms: _53  and  _55
REMARK                            x       y       z     vdW  Elec       q    Type
REMARK                         _______ _______ _______ _____ _____    ______ ____
ROOT
ATOM     10  C   UNL     1      -5.360  -6.402  23.972  0.00  0.00    +0.038 A 
ATOM     11  C   UNL     1      -4.109  -6.423  24.640  0.00  0.00    +0.047 A 
ATOM     12  C   UNL     1      -4.029  -6.581  26.084  0.00  0.00    +0.035 A 
ATOM     32  C   UNL     1      -5.244  -6.717  26.817  0.00  0.00    +0.024 A 
ATOM     33  C   UNL     1      -6.524  -6.696  26.155  0.00  0.00    +0.007 A 
ATOM     34  C   UNL     1      -6.609  -6.538  24.731  0.00  0.00    -0.029 A 
ATOM     35  C   UNL     1      -8.010  -6.516  24.075  0.00  0.00    +0.045 C 
ENDROOT
BRANCH  10   9
ATOM      4  C   UNL     1      -5.379  -8.183  19.516  0.00  0.00    +0.077 A 
ATOM      5  C   UNL     1      -5.320  -9.535  19.992  0.00  0.00    +0.048 A 
ATOM      6  C   UNL     1      -5.280  -9.729  21.392  0.00  0.00    +0.116 A 
ATOM      7  N   UNL     1      -5.297  -8.644  22.241  0.00  0.00    -0.223 NA
ATOM      8  C   UNL     1      -5.352  -7.353  21.748  0.00  0.00    +0.220 A 
ATOM      9  N   UNL     1      -5.378  -6.247  22.584  0.00  0.00    -0.283 N 
ATOM     36  H   UNL     1      -5.411  -5.311  22.182  0.00  0.00    +0.155 HD
ATOM     37  N   UNL     1      -5.390  -7.142  20.416  0.00  0.00    -0.214 NA
BRANCH   4   3
ATOM      1  C   UNL     1      -6.583  -7.716  15.824  0.00  0.00    +0.020 A 
ATOM      2  C   UNL     1      -6.585  -8.091  17.219  0.00  0.00    +0.013 A 
ATOM      3  C   UNL     1      -5.430  -7.817  18.065  0.00  0.00    +0.019 A 
ATOM     38  C   UNL     1      -4.282  -7.156  17.464  0.00  0.00    +0.120 A 
ATOM     39  N   UNL     1      -4.308  -6.807  16.117  0.00  0.00    -0.263 NA
ATOM     40  C   UNL     1      -5.413  -7.068  15.293  0.00  0.00    +0.111 A 
ENDBRANCH   4   3
ENDBRANCH  10   9
BRANCH  12  13
ATOM     13  N   UNL     1      -2.788  -6.603  26.817  0.00  0.00    -0.281 N 
ATOM     14  C   UNL     1      -1.716  -7.465  26.653  0.00  0.00    +0.248 C 
ATOM     30  O   UNL     1      -1.750  -8.490  25.989  0.00  0.00    -0.270 OA
ATOM     31  H   UNL     1      -2.687  -5.896  27.546  0.00  0.00    +0.155 HD
BRANCH  14  15
ATOM     15  C   UNL     1      -0.425  -7.150  27.336  0.00  0.00    +0.037 A 
ATOM     16  C   UNL     1       0.424  -6.044  26.885  0.00  0.00    +0.013 A 
ATOM     17  C   UNL     1       1.673  -5.773  27.552  0.00  0.00    +0.005 A 
ATOM     18  C   UNL     1       2.081  -6.609  28.678  0.00  0.00    -0.033 A 
ATOM     28  C   UNL     1       1.217  -7.697  29.107  0.00  0.00    +0.005 A 
ATOM     29  C   UNL     1      -0.007  -7.967  28.456  0.00  0.00    +0.013 A 
BRANCH  18  19
ATOM     19  C   UNL     1       3.407  -6.406  29.434  0.00  0.00    +0.119 C 
BRANCH  19  20
ATOM     20  N   UNL     1       3.389  -5.485  30.610  0.00  0.00    -0.302 NA
ATOM     21  C   UNL     1       4.646  -4.613  30.676  0.00  0.00    +0.066 C 
ATOM     22  C   UNL     1       4.600  -3.641  31.899  0.00  0.00    -0.064 C 
ATOM     23  N   UNL     1       4.435  -4.452  33.186  0.00  0.00    +0.379 N 
ATOM     24  C   UNL     1       4.450  -3.544  34.343  0.00  0.00    -0.096 C 
ATOM     25  H   UNL     1       5.317  -5.128  33.275  0.00  0.00    -0.082 HD
ATOM     26  C   UNL     1       3.189  -5.324  33.127  0.00  0.00    -0.064 C 
ATOM     27  C   UNL     1       3.231  -6.265  31.892  0.00  0.00    +0.066 C 
ENDBRANCH  19  20
ENDBRANCH  18  19
ENDBRANCH  14  15
ENDBRANCH  12  13
TORSDOF 6
ENDMDL
MODEL 4
REMARK VINA RESULT:      -8.0      3.333     13.935
REMARK  Name = C:\Users\Docking\Desktop\test protocol\1iep_ligandH.pdb
REMARK  8 active torsions:
REMARK  status: ('A' for Active; 'I' for Inactive)
REMARK    1  A    between atoms: _5  and  _11
REMARK    2  A    between atoms: _19  and  _21
REMARK    3  A    between atoms: _22  and  _66
REMARK    4  A    between atoms: _27  and  _30
REMARK    5  A    between atoms: _32  and  _33
REMARK    6  A    between atoms: _38  and  _43
REMARK    7  A    between atoms: _43  and  _46
REMARK    8  A    between atoms: _53  and  _55
REMARK                            x       y       z     vdW  Elec       q    Type
REMARK                         _______ _______ _______ _____ _____    ______ ____
ROOT
ATOM     10  C   UNL     1      -4.756  -7.892  25.286  0.00  0.00    +0.038 A 
ATOM     11  C   UNL     1      -3.410  -7.989  25.722  0.00  0.00    +0.047 A 
ATOM     12  C   UNL     1      -3.017  -7.552  27.053  0.00  0.00    +0.035 A 
ATOM     32  C   UNL     1      -4.023  -7.024  27.915  0.00  0.00    +0.024 A 
ATOM     33  C   UNL     1      -5.396  -6.918  27.487  0.00  0.00    +0.007 A 
ATOM     34  C   UNL     1      -5.788  -7.345  26.175  0.00  0.00    -0.029 A 
ATOM     35  C   UNL     1      -7.273  -7.202  25.767  0.00  0.00    +0.045 C 
ENDROOT
BRANCH  10   9
ATOM      4  C   UNL     1      -5.659  -7.069  20.644  0.00  0.00    +0.077 A 
ATOM      5  C   UNL     1      -5.505  -5.652  20.804  0.00  0.00    +0.048 A 
ATOM      6  C   UNL     1      -5.200  -5.175  22.099  0.00  0.00    +0.116 A 
ATOM      7  N   UNL     1      -5.062  -6.058  23.147  0.00  0.00    -0.223 NA
ATOM      8  C   UNL     1      -5.219  -7.419  22.959  0.00  0.00    +0.220 A 
ATOM      9  N   UNL     1      -5.077  -8.326  23.998  0.00  0.00    -0.283 N 
ATOM     36  H   UNL     1      -5.208  -9.322  23.819  0.00  0.00    +0.155 HD
ATOM     37  N   UNL     1      -5.512  -7.900  21.733  0.00  0.00    -0.214 NA
BRANCH   4   3
ATOM      1  C   UNL     1      -7.412  -9.184  17.859  0.00  0.00    +0.020 A 
ATOM      2  C   UNL     1      -7.149  -8.573  19.141  0.00  0.00    +0.013 A 
ATOM      3  C   UNL     1      -5.979  -7.727  19.337  0.00  0.00    +0.019 A 
ATOM     38  C   UNL     1      -5.088  -7.517  18.206  0.00  0.00    +0.120 A 
ATOM     39  N   UNL     1      -5.366  -8.119  16.983  0.00  0.00    -0.263 NA
ATOM     40  C   UNL     1      -6.488  -8.937  16.783  0.00  0.00    +0.111 A 
ENDBRANCH   4   3
ENDBRANCH  10   9
BRANCH  12  13
ATOM     13  N   UNL     1      -1.665  -7.618  27.549  0.00  0.00    -0.281 N 
ATOM     14  C   UNL     1      -0.541  -6.987  27.042  0.00  0.00    +0.248 C 
ATOM     30  O   UNL     1      -0.489  -6.436  25.952  0.00  0.00    -0.270 OA
ATOM     31  H   UNL     1      -1.519  -8.201  28.373  0.00  0.00    +0.155 HD
BRANCH  14  15
ATOM     15  C   UNL     1       0.712  -6.979  27.858  0.00  0.00    +0.037 A 
ATOM     16  C   UNL     1       1.589  -5.805  27.892  0.00  0.00    +0.013 A 
ATOM     17  C   UNL     1       2.800  -5.830  28.673  0.00  0.00    +0.005 A 
ATOM     18  C   UNL     1       3.140  -7.033  29.429  0.00  0.00    -0.033 A 
ATOM     28  C   UNL     1       2.249  -8.181  29.381  0.00  0.00    +0.005 A 
ATOM     29  C   UNL     1       1.062  -8.161  28.616  0.00  0.00    +0.013 A 
BRANCH  18  19
ATOM     19  C   UNL     1       4.423  -7.156  30.273  0.00  0.00    +0.119 C 
BRANCH  19  20
ATOM     20  N   UNL     1       4.485  -6.370  31.540  0.00  0.00    -0.302 NA
ATOM     21  C   UNL     1       3.101  -6.178  32.166  0.00  0.00    +0.066 C 
ATOM     22  C   UNL     1       3.187  -5.373  33.504  0.00  0.00    -0.064 C 
ATOM     23  N   UNL     1       3.853  -4.021  33.239  0.00  0.00    +0.379 N 
ATOM     24  C   UNL     1       3.883  -3.238  34.483  0.00  0.00    -0.096 C 
ATOM     25  H   UNL     1       3.219  -3.470  32.507  0.00  0.00    -0.082 HD
ATOM     26  C   UNL     1       5.229  -4.202  32.614  0.00  0.00    -0.064 C 
ATOM     27  C   UNL     1       5.136  -5.029  31.302  0.00  0.00    +0.066 C 
ENDBRANCH  19  20
ENDBRANCH  18  19
ENDBRANCH  14  15
ENDBRANCH  12  13
TORSDOF 6
ENDMDL
MODEL 5
REMARK VINA RESULT:      -7.9     17.952     19.297
REMARK  Name = C:\Users\Docking\Desktop\test protocol\1iep_ligandH.pdb
REMARK  8 active torsions:
REMARK  status: ('A' for Active; 'I' for Inactive)
REMARK    1  A    between atoms: _5  and  _11
REMARK    2  A    between atoms: _19  and  _21
REMARK    3  A    between atoms: _22  and  _66
REMARK    4  A    between atoms: _27  and  _30
REMARK    5  A    between atoms: _32  and  _33
REMARK    6  A    between atoms: _38  and  _43
REMARK    7  A    between atoms: _43  and  _46
REMARK    8  A    between atoms: _53  and  _55
REMARK                            x       y       z     vdW  Elec       q    Type
REMARK                         _______ _______ _______ _____ _____    ______ ____
ROOT
ATOM     10  C   UNL     1      -4.569  11.829  29.658  0.00  0.00    +0.038 A 
ATOM     11  C   UNL     1      -4.797  11.894  28.260  0.00  0.00    +0.047 A 
ATOM     12  C   UNL     1      -4.803  13.167  27.557  0.00  0.00    +0.035 A 
ATOM     32  C   UNL     1      -4.571  14.355  28.309  0.00  0.00    +0.024 A 
ATOM     33  C   UNL     1      -4.339  14.308  29.731  0.00  0.00    +0.007 A 
ATOM     34  C   UNL     1      -4.334  13.055  30.430  0.00  0.00    -0.029 A 
ATOM     35  C   UNL     1      -4.086  13.065  31.957  0.00  0.00    +0.045 C 
ENDROOT
BRANCH  10   9
ATOM      4  C   UNL     1      -6.794   8.265  31.979  0.00  0.00    +0.077 A 
ATOM      5  C   UNL     1      -8.048   8.963  31.970  0.00  0.00    +0.048 A 
ATOM      6  C   UNL     1      -8.076  10.239  31.365  0.00  0.00    +0.116 A 
ATOM      7  N   UNL     1      -6.930  10.768  30.812  0.00  0.00    -0.223 NA
ATOM      8  C   UNL     1      -5.737  10.070  30.839  0.00  0.00    +0.220 A 
ATOM      9  N   UNL     1      -4.574  10.580  30.283  0.00  0.00    -0.283 N 
ATOM     36  H   UNL     1      -3.712  10.036  30.330  0.00  0.00    +0.155 HD
ATOM     37  N   UNL     1      -5.683   8.850  31.413  0.00  0.00    -0.214 NA
BRANCH   4   3
ATOM      1  C   UNL     1      -5.909   4.484  32.453  0.00  0.00    +0.020 A 
ATOM      2  C   UNL     1      -6.072   5.776  31.827  0.00  0.00    +0.013 A 
ATOM      3  C   UNL     1      -6.605   6.906  32.578  0.00  0.00    +0.019 A 
ATOM     38  C   UNL     1      -6.965   6.694  33.972  0.00  0.00    +0.120 A 
ATOM     39  N   UNL     1      -6.798   5.438  34.547  0.00  0.00    -0.263 NA
ATOM     40  C   UNL     1      -6.288   4.343  33.834  0.00  0.00    +0.111 A 
ENDBRANCH   4   3
ENDBRANCH  10   9
BRANCH  12  13
ATOM     13  N   UNL     1      -5.037  13.295  26.140  0.00  0.00    -0.281 N 
ATOM     14  C   UNL     1      -4.384  12.643  25.106  0.00  0.00    +0.248 C 
ATOM     30  O   UNL     1      -3.349  12.006  25.236  0.00  0.00    -0.270 OA
ATOM     31  H   UNL     1      -5.774  13.945  25.865  0.00  0.00    +0.155 HD
BRANCH  14  15
ATOM     15  C   UNL     1      -4.956  12.722  23.727  0.00  0.00    +0.037 A 
ATOM     16  C   UNL     1      -4.208  12.233  22.566  0.00  0.00    +0.013 A 
ATOM     17  C   UNL     1      -4.775  12.336  21.245  0.00  0.00    +0.005 A 
ATOM     18  C   UNL     1      -6.100  12.930  21.079  0.00  0.00    -0.033 A 
ATOM     28  C   UNL     1      -6.822  13.402  22.249  0.00  0.00    +0.005 A 
ATOM     29  C   UNL     1      -6.268  13.303  23.545  0.00  0.00    +0.013 A 
BRANCH  18  19
ATOM     19  C   UNL     1      -6.774  13.100  19.704  0.00  0.00    +0.119 C 
BRANCH  19  20
ATOM     20  N   UNL     1      -8.131  12.503  19.530  0.00  0.00    -0.302 NA
ATOM     21  C   UNL     1      -8.129  11.357  18.514  0.00  0.00    +0.066 C 
ATOM     22  C   UNL     1      -9.553  10.729  18.361  0.00  0.00    -0.064 C 
ATOM     23  N   UNL     1     -10.545  11.817  17.948  0.00  0.00    +0.379 N 
ATOM     24  C   UNL     1     -11.873  11.219  17.746  0.00  0.00    -0.096 C 
ATOM     25  H   UNL     1     -10.207  12.229  16.968  0.00  0.00    -0.082 HD
ATOM     26  C   UNL     1     -10.552  12.962  18.951  0.00  0.00    -0.064 C 
ATOM     27  C   UNL     1      -9.127  13.559  19.118  0.00  0.00    +0.066 C 
ENDBRANCH  19  20
ENDBRANCH  18  19
ENDBRANCH  14  15
ENDBRANCH  12  13
TORSDOF 6
ENDMDL
