MODEL 1
REMARK VINA RESULT:      -7.2      0.000      0.000
REMARK  Name = C:\Users\Docking\Desktop\test protocol\1iep_ligandH.pdb
REMARK  8 active torsions:
REMARK  status: ('A' for Active; 'I' for Inactive)
REMARK    1  A    between atoms: _5  and  _11
REMARK    2  A    between atoms: _19  and  _21
REMARK    3  A    between atoms: _22  and  _66
REMARK    4  A    between atoms: _27  and  _30
REMARK    5  A    between atoms: _32  and  _33
REMARK    6  A    between atoms: _38  and  _43
REMARK    7  A    between atoms: _43  and  _46
REMARK    8  A    between atoms: _53  and  _55
REMARK                            x       y       z     vdW  Elec       q    Type
REMARK                         _______ _______ _______ _____ _____    ______ ____
ROOT
ATOM     10  C   UNL     1      12.928  16.880  34.207  0.00  0.00    +0.038 A 
ATOM     11  C   UNL     1      11.720  17.469  33.754  0.00  0.00    +0.047 A 
ATOM     12  C   UNL     1      10.487  17.338  34.515  0.00  0.00    +0.035 A 
ATOM     32  C   UNL     1      10.521  16.602  35.735  0.00  0.00    +0.024 A 
ATOM     33  C   UNL     1      11.740  15.995  36.210  0.00  0.00    +0.007 A 
ATOM     34  C   UNL     1      12.958  16.119  35.462  0.00  0.00    -0.029 A 
ATOM     35  C   UNL     1      14.234  15.442  36.015  0.00  0.00    +0.045 C 
ENDROOT
BRANCH  10   9
ATOM      4  C   UNL     1      15.831  15.571  30.616  0.00  0.00    +0.077 A 
ATOM      5  C   UNL     1      14.990  14.464  30.261  0.00  0.00    +0.048 A 
ATOM      6  C   UNL     1      13.824  14.262  31.032  0.00  0.00    +0.116 A 
ATOM      7  N   UNL     1      13.530  15.110  32.078  0.00  0.00    -0.223 NA
ATOM      8  C   UNL     1      14.362  16.167  32.394  0.00  0.00    +0.220 A 
ATOM      9  N   UNL     1      14.082  17.037  33.437  0.00  0.00    -0.283 N 
ATOM     36  H   UNL     1      14.726  17.801  33.643  0.00  0.00    +0.155 HD
ATOM     37  N   UNL     1      15.483  16.381  31.674  0.00  0.00    -0.214 NA
BRANCH   4   3
ATOM      1  C   UNL     1      18.444  17.330  28.297  0.00  0.00    +0.020 A 
ATOM      2  C   UNL     1      17.199  17.038  28.968  0.00  0.00    +0.013 A 
ATOM      3  C   UNL     1      17.096  15.917  29.894  0.00  0.00    +0.019 A 
ATOM     38  C   UNL     1      18.282  15.105  30.121  0.00  0.00    +0.120 A 
ATOM     39  N   UNL     1      19.467  15.409  29.459  0.00  0.00    -0.263 NA
ATOM     40  C   UNL     1      19.578  16.484  28.564  0.00  0.00    +0.111 A 
ENDBRANCH   4   3
ENDBRANCH  10   9
BRANCH  12  13
ATOM     13  N   UNL     1       9.229  17.908  34.101  0.00  0.00    -0.281 N 
ATOM     14  C   UNL     1       8.167  17.269  33.482  0.00  0.00    +0.248 C 
ATOM     30  O   UNL     1       8.223  16.150  32.994  0.00  0.00    -0.270 OA
ATOM     31  H   UNL     1       9.106  18.903  34.287  0.00  0.00    +0.155 HD
BRANCH  14  15
ATOM     15  C   UNL     1       6.858  17.982  33.376  0.00  0.00    +0.037 A 
ATOM     16  C   UNL     1       5.757  17.434  32.579  0.00  0.00    +0.013 A 
ATOM     17  C   UNL     1       4.510  18.150  32.480  0.00  0.00    +0.005 A 
ATOM     18  C   UNL     1       4.357  19.423  33.181  0.00  0.00    -0.033 A 
ATOM     28  C   UNL     1       5.463  19.940  33.969  0.00  0.00    +0.005 A 
ATOM     29  C   UNL     1       6.688  19.241  34.068  0.00  0.00    +0.013 A 
BRANCH  18  19
ATOM     19  C   UNL     1       3.069  20.265  33.114  0.00  0.00    +0.119 C 
BRANCH  19  20
ATOM     20  N   UNL     1       1.797  19.605  33.534  0.00  0.00    -0.302 NA
ATOM     21  C   UNL     1       0.882  19.312  32.342  0.00  0.00    +0.066 C 
ATOM     22  C   UNL     1      -0.434  18.601  32.796  0.00  0.00    -0.064 C 
ATOM     23  N   UNL     1      -1.151  19.472  33.828  0.00  0.00    +0.379 N 
ATOM     24  C   UNL     1      -2.418  18.833  34.214  0.00  0.00    -0.096 C 
ATOM     25  H   UNL     1      -1.397  20.443  33.339  0.00  0.00    -0.082 HD
ATOM     26  C   UNL     1      -0.247  19.770  35.016  0.00  0.00    -0.064 C 
ATOM     27  C   UNL     1       1.071  20.450  34.550  0.00  0.00    +0.066 C 
ENDBRANCH  19  20
ENDBRANCH  18  19
ENDBRANCH  14  15
ENDBRANCH  12  13
TORSDOF 6
ENDMDL
MODEL 2
REMARK VINA RESULT:      -7.1     21.180     22.866
REMARK  Name = C:\Users\Docking\Desktop\test protocol\1iep_ligandH.pdb
REMARK  8 active torsions:
REMARK  status: ('A' for Active; 'I' for Inactive)
REMARK    1  A    between atoms: _5  and  _11
REMARK    2  A    between atoms: _19  and  _21
REMARK    3  A    between atoms: _22  and  _66
REMARK    4  A    between atoms: _27  and  _30
REMARK    5  A    between atoms: _32  and  _33
REMARK    6  A    between atoms: _38  and  _43
REMARK    7  A    between atoms: _43  and  _46
REMARK    8  A    between atoms: _53  and  _55
REMARK                            x       y       z     vdW  Elec       q    Type
REMARK                         _______ _______ _______ _____ _____    ______ ____
ROOT
ATOM     10  C   UNL     1      10.608  32.322  51.048  0.00  0.00    +0.038 A 
ATOM     11  C   UNL     1       9.789  32.308  49.890  0.00  0.00    +0.047 A 
ATOM     12  C   UNL     1       8.793  33.343  49.659  0.00  0.00    +0.035 A 
ATOM     32  C   UNL     1       8.661  34.380  50.628  0.00  0.00    +0.024 A 
ATOM     33  C   UNL     1       9.484  34.410  51.811  0.00  0.00    +0.007 A 
ATOM     34  C   UNL     1      10.466  33.390  52.045  0.00  0.00    -0.029 A 
ATOM     35  C   UNL     1      11.316  33.469  53.334  0.00  0.00    +0.045 C 
ENDROOT
BRANCH  10   9
ATOM      4  C   UNL     1      12.025  28.146  52.943  0.00  0.00    +0.077 A 
ATOM      5  C   UNL     1      10.801  27.995  53.676  0.00  0.00    +0.048 A 
ATOM      6  C   UNL     1       9.835  29.018  53.543  0.00  0.00    +0.116 A 
ATOM      7  N   UNL     1      10.085  30.106  52.735  0.00  0.00    -0.223 NA
ATOM      8  C   UNL     1      11.277  30.222  52.044  0.00  0.00    +0.220 A 
ATOM      9  N   UNL     1      11.547  31.303  51.219  0.00  0.00    -0.283 N 
ATOM     36  H   UNL     1      12.441  31.355  50.732  0.00  0.00    +0.155 HD
ATOM     37  N   UNL     1      12.216  29.259  52.155  0.00  0.00    -0.214 NA
BRANCH   4   3
ATOM      1  C   UNL     1      15.136  25.989  51.958  0.00  0.00    +0.020 A 
ATOM      2  C   UNL     1      14.075  26.966  51.874  0.00  0.00    +0.013 A 
ATOM      3  C   UNL     1      13.141  27.149  52.978  0.00  0.00    +0.019 A 
ATOM     38  C   UNL     1      13.310  26.321  54.162  0.00  0.00    +0.120 A 
ATOM     39  N   UNL     1      14.340  25.387  54.214  0.00  0.00    -0.263 NA
ATOM     40  C   UNL     1      15.243  25.201  53.158  0.00  0.00    +0.111 A 
ENDBRANCH   4   3
ENDBRANCH  10   9
BRANCH  12  13
ATOM     13  N   UNL     1       7.928  33.376  48.507  0.00  0.00    -0.281 N 
ATOM     14  C   UNL     1       6.549  33.251  48.473  0.00  0.00    +0.248 C 
ATOM     30  O   UNL     1       5.866  32.876  49.415  0.00  0.00    -0.270 OA
ATOM     31  H   UNL     1       8.388  33.507  47.606  0.00  0.00    +0.155 HD
BRANCH  14  15
ATOM     15  C   UNL     1       5.825  33.575  47.206  0.00  0.00    +0.037 A 
ATOM     16  C   UNL     1       4.670  32.788  46.768  0.00  0.00    +0.013 A 
ATOM     17  C   UNL     1       4.000  33.111  45.533  0.00  0.00    +0.005 A 
ATOM     18  C   UNL     1       4.484  34.230  44.728  0.00  0.00    -0.033 A 
ATOM     28  C   UNL     1       5.629  34.998  45.189  0.00  0.00    +0.005 A 
ATOM     29  C   UNL     1       6.288  34.683  46.398  0.00  0.00    +0.013 A 
BRANCH  18  19
ATOM     19  C   UNL     1       3.844  34.634  43.387  0.00  0.00    +0.119 C 
BRANCH  19  20
ATOM     20  N   UNL     1       4.525  35.703  42.598  0.00  0.00    -0.302 NA
ATOM     21  C   UNL     1       3.538  36.508  41.748  0.00  0.00    +0.066 C 
ATOM     22  C   UNL     1       4.265  37.637  40.947  0.00  0.00    -0.064 C 
ATOM     23  N   UNL     1       5.354  37.016  40.070  0.00  0.00    +0.379 N 
ATOM     24  C   UNL     1       6.001  38.067  39.272  0.00  0.00    -0.096 C 
ATOM     25  H   UNL     1       4.857  36.311  39.363  0.00  0.00    -0.082 HD
ATOM     26  C   UNL     1       6.338  36.211  40.907  0.00  0.00    -0.064 C 
ATOM     27  C   UNL     1       5.602  35.111  41.722  0.00  0.00    +0.066 C 
ENDBRANCH  19  20
ENDBRANCH  18  19
ENDBRANCH  14  15
ENDBRANCH  12  13
TORSDOF 6
ENDMDL
MODEL 3
REMARK VINA RESULT:      -7.0      3.112      5.897
REMARK  Name = C:\Users\Docking\Desktop\test protocol\1iep_ligandH.pdb
REMARK  8 active torsions:
REMARK  status: ('A' for Active; 'I' for Inactive)
REMARK    1  A    between atoms: _5  and  _11
REMARK    2  A    between atoms: _19  and  _21
REMARK    3  A    between atoms: _22  and  _66
REMARK    4  A    between atoms: _27  and  _30
REMARK    5  A    between atoms: _32  and  _33
REMARK    6  A    between atoms: _38  and  _43
REMARK    7  A    between atoms: _43  and  _46
REMARK    8  A    between atoms: _53  and  _55
REMARK                            x       y       z     vdW  Elec       q    Type
REMARK                         _______ _______ _______ _____ _____    ______ ____
ROOT
ATOM     10  C   UNL     1      13.750  16.339  34.501  0.00  0.00    +0.038 A 
ATOM     11  C   UNL     1      12.442  16.886  34.468  0.00  0.00    +0.047 A 
ATOM     12  C   UNL     1      11.658  16.889  33.242  0.00  0.00    +0.035 A 
ATOM     32  C   UNL     1      12.237  16.323  32.069  0.00  0.00    +0.024 A 
ATOM     33  C   UNL     1      13.566  15.763  32.085  0.00  0.00    +0.007 A 
ATOM     34  C   UNL     1      14.344  15.760  33.290  0.00  0.00    -0.029 A 
ATOM     35  C   UNL     1      15.766  15.152  33.247  0.00  0.00    +0.045 C 
ENDROOT
BRANCH  10   9
ATOM      4  C   UNL     1      14.735  14.604  38.866  0.00  0.00    +0.077 A 
ATOM      5  C   UNL     1      13.737  13.580  38.749  0.00  0.00    +0.048 A 
ATOM      6  C   UNL     1      12.987  13.538  37.553  0.00  0.00    +0.116 A 
ATOM      7  N   UNL     1      13.226  14.457  36.554  0.00  0.00    -0.223 NA
ATOM      8  C   UNL     1      14.195  15.433  36.700  0.00  0.00    +0.220 A 
ATOM      9  N   UNL     1      14.457  16.362  35.705  0.00  0.00    -0.283 N 
ATOM     36  H   UNL     1      15.175  17.071  35.854  0.00  0.00    +0.155 HD
ATOM     37  N   UNL     1      14.924  15.495  37.834  0.00  0.00    -0.214 NA
BRANCH   4   3
ATOM      1  C   UNL     1      17.851  15.146  41.168  0.00  0.00    +0.020 A 
ATOM      2  C   UNL     1      17.050  14.986  39.976  0.00  0.00    +0.013 A 
ATOM      3  C   UNL     1      15.611  14.775  40.068  0.00  0.00    +0.019 A 
ATOM     38  C   UNL     1      15.008  14.732  41.392  0.00  0.00    +0.120 A 
ATOM     39  N   UNL     1      15.805  14.888  42.522  0.00  0.00    -0.263 NA
ATOM     40  C   UNL     1      17.191  15.090  42.446  0.00  0.00    +0.111 A 
ENDBRANCH   4   3
ENDBRANCH  10   9
BRANCH  12  13
ATOM     13  N   UNL     1      10.328  17.437  33.146  0.00  0.00    -0.281 N 
ATOM     14  C   UNL     1       9.133  16.753  33.000  0.00  0.00    +0.248 C 
ATOM     30  O   UNL     1       9.046  15.568  32.714  0.00  0.00    -0.270 OA
ATOM     31  H   UNL     1      10.260  18.454  33.191  0.00  0.00    +0.155 HD
BRANCH  14  15
ATOM     15  C   UNL     1       7.849  17.495  33.184  0.00  0.00    +0.037 A 
ATOM     16  C   UNL     1       6.577  16.941  32.712  0.00  0.00    +0.013 A 
ATOM     17  C   UNL     1       5.355  17.685  32.886  0.00  0.00    +0.005 A 
ATOM     18  C   UNL     1       5.399  18.992  33.539  0.00  0.00    -0.033 A 
ATOM     28  C   UNL     1       6.674  19.515  34.002  0.00  0.00    +0.005 A 
ATOM     29  C   UNL     1       7.874  18.789  33.831  0.00  0.00    +0.013 A 
BRANCH  18  19
ATOM     19  C   UNL     1       4.148  19.865  33.749  0.00  0.00    +0.119 C 
BRANCH  19  20
ATOM     20  N   UNL     1       2.822  19.237  33.470  0.00  0.00    -0.302 NA
ATOM     21  C   UNL     1       2.073  19.953  32.342  0.00  0.00    +0.066 C 
ATOM     22  C   UNL     1       0.698  19.270  32.048  0.00  0.00    -0.064 C 
ATOM     23  N   UNL     1      -0.141  19.248  33.327  0.00  0.00    +0.379 N 
ATOM     24  C   UNL     1      -1.457  18.658  33.040  0.00  0.00    -0.096 C 
ATOM     25  H   UNL     1      -0.305  20.305  33.641  0.00  0.00    -0.082 HD
ATOM     26  C   UNL     1       0.597  18.540  34.454  0.00  0.00    -0.064 C 
ATOM     27  C   UNL     1       1.975  19.209  34.718  0.00  0.00    +0.066 C 
ENDBRANCH  19  20
ENDBRANCH  18  19
ENDBRANCH  14  15
ENDBRANCH  12  13
TORSDOF 6
ENDMDL
MODEL 4
REMARK VINA RESULT:      -6.9     16.507     19.526
REMARK  Name = C:\Users\Docking\Desktop\test protocol\1iep_ligandH.pdb
REMARK  8 active torsions:
REMARK  status: ('A' for Active; 'I' for Inactive)
REMARK    1  A    between atoms: _5  and  _11
REMARK    2  A    between atoms: _19  and  _21
REMARK    3  A    between atoms: _22  and  _66
REMARK    4  A    between atoms: _27  and  _30
REMARK    5  A    between atoms: _32  and  _33
REMARK    6  A    between atoms: _38  and  _43
REMARK    7  A    between atoms: _43  and  _46
REMARK    8  A    between atoms: _53  and  _55
REMARK                            x       y       z     vdW  Elec       q    Type
REMARK                         _______ _______ _______ _____ _____    ______ ____
ROOT
ATOM     10  C   UNL     1       2.992  21.934  47.838  0.00  0.00    +0.038 A 
ATOM     11  C   UNL     1       3.277  23.324  47.850  0.00  0.00    +0.047 A 
ATOM     12  C   UNL     1       2.212  24.309  47.961  0.00  0.00    +0.035 A 
ATOM     32  C   UNL     1       0.869  23.843  48.061  0.00  0.00    +0.024 A 
ATOM     33  C   UNL     1       0.561  22.435  48.049  0.00  0.00    +0.007 A 
ATOM     34  C   UNL     1       1.607  21.458  47.937  0.00  0.00    -0.029 A 
ATOM     35  C   UNL     1       1.219  19.962  47.923  0.00  0.00    +0.045 C 
ENDROOT
BRANCH  10   9
ATOM      4  C   UNL     1       6.531  19.312  49.746  0.00  0.00    +0.077 A 
ATOM      5  C   UNL     1       6.260  19.801  51.067  0.00  0.00    +0.048 A 
ATOM      6  C   UNL     1       5.207  20.731  51.212  0.00  0.00    +0.116 A 
ATOM      7  N   UNL     1       4.484  21.135  50.111  0.00  0.00    -0.223 NA
ATOM      8  C   UNL     1       4.772  20.646  48.850  0.00  0.00    +0.220 A 
ATOM      9  N   UNL     1       4.053  21.032  47.729  0.00  0.00    -0.283 N 
ATOM     36  H   UNL     1       4.301  20.654  46.816  0.00  0.00    +0.155 HD
ATOM     37  N   UNL     1       5.774  19.757  48.685  0.00  0.00    -0.214 NA
BRANCH   4   3
ATOM      1  C   UNL     1       9.144  17.121  47.830  0.00  0.00    +0.020 A 
ATOM      2  C   UNL     1       8.100  18.088  48.080  0.00  0.00    +0.013 A 
ATOM      3  C   UNL     1       7.609  18.322  49.432  0.00  0.00    +0.019 A 
ATOM     38  C   UNL     1       8.202  17.557  50.518  0.00  0.00    +0.120 A 
ATOM     39  N   UNL     1       9.205  16.631  50.248  0.00  0.00    -0.263 NA
ATOM     40  C   UNL     1       9.684  16.396  48.950  0.00  0.00    +0.111 A 
ENDBRANCH   4   3
ENDBRANCH  10   9
BRANCH  12  13
ATOM     13  N   UNL     1       2.440  25.733  47.970  0.00  0.00    -0.281 N 
ATOM     14  C   UNL     1       3.044  26.492  48.959  0.00  0.00    +0.248 C 
ATOM     30  O   UNL     1       3.290  26.089  50.086  0.00  0.00    -0.270 OA
ATOM     31  H   UNL     1       2.116  26.243  47.148  0.00  0.00    +0.155 HD
BRANCH  14  15
ATOM     15  C   UNL     1       3.415  27.908  48.657  0.00  0.00    +0.037 A 
ATOM     16  C   UNL     1       3.955  28.790  49.694  0.00  0.00    +0.013 A 
ATOM     17  C   UNL     1       4.289  30.157  49.379  0.00  0.00    +0.005 A 
ATOM     18  C   UNL     1       4.084  30.649  48.019  0.00  0.00    -0.033 A 
ATOM     28  C   UNL     1       3.552  29.751  47.008  0.00  0.00    +0.005 A 
ATOM     29  C   UNL     1       3.223  28.411  47.313  0.00  0.00    +0.013 A 
BRANCH  18  19
ATOM     19  C   UNL     1       4.393  32.098  47.599  0.00  0.00    +0.119 C 
BRANCH  19  20
ATOM     20  N   UNL     1       4.124  32.470  46.178  0.00  0.00    -0.302 NA
ATOM     21  C   UNL     1       5.391  32.941  45.458  0.00  0.00    +0.066 C 
ATOM     22  C   UNL     1       5.096  33.304  43.966  0.00  0.00    -0.064 C 
ATOM     23  N   UNL     1       4.011  34.380  43.911  0.00  0.00    +0.379 N 
ATOM     24  C   UNL     1       3.772  34.766  42.512  0.00  0.00    -0.096 C 
ATOM     25  H   UNL     1       4.397  35.277  44.448  0.00  0.00    -0.082 HD
ATOM     26  C   UNL     1       2.748  33.922  44.627  0.00  0.00    -0.064 C 
ATOM     27  C   UNL     1       3.058  33.535  46.100  0.00  0.00    +0.066 C 
ENDBRANCH  19  20
ENDBRANCH  18  19
ENDBRANCH  14  15
ENDBRANCH  12  13
TORSDOF 6
ENDMDL
MODEL 5
REMARK VINA RESULT:      -6.9     15.458     20.854
REMARK  Name = C:\Users\Docking\Desktop\test protocol\1iep_ligandH.pdb
REMARK  8 active torsions:
REMARK  status: ('A' for Active; 'I' for Inactive)
REMARK    1  A    between atoms: _5  and  _11
REMARK    2  A    between atoms: _19  and  _21
REMARK    3  A    between atoms: _22  and  _66
REMARK    4  A    between atoms: _27  and  _30
REMARK    5  A    between atoms: _32  and  _33
REMARK    6  A    between atoms: _38  and  _43
REMARK    7  A    between atoms: _43  and  _46
REMARK    8  A    between atoms: _53  and  _55
REMARK                            x       y       z     vdW  Elec       q    Type
REMARK                         _______ _______ _______ _____ _____    ______ ____
ROOT
ATOM     10  C   UNL     1       2.163  24.201  47.496  0.00  0.00    +0.038 A 
ATOM     11  C   UNL     1       3.352  23.465  47.730  0.00  0.00    +0.047 A 
ATOM     12  C   UNL     1       3.308  22.116  48.275  0.00  0.00    +0.035 A 
ATOM     32  C   UNL     1       2.034  21.547  48.567  0.00  0.00    +0.024 A 
ATOM     33  C   UNL     1       0.815  22.281  48.336  0.00  0.00    +0.007 A 
ATOM     34  C   UNL     1       0.853  23.613  47.801  0.00  0.00    -0.029 A 
ATOM     35  C   UNL     1      -0.486  24.356  47.580  0.00  0.00    +0.045 C 
ENDROOT
BRANCH  10   9
ATOM      4  C   UNL     1       3.323  28.843  47.872  0.00  0.00    +0.077 A 
ATOM      5  C   UNL     1       3.739  28.689  49.236  0.00  0.00    +0.048 A 
ATOM      6  C   UNL     1       3.631  27.401  49.807  0.00  0.00    +0.116 A 
ATOM      7  N   UNL     1       3.143  26.351  49.058  0.00  0.00    -0.223 NA
ATOM      8  C   UNL     1       2.750  26.534  47.745  0.00  0.00    +0.220 A 
ATOM      9  N   UNL     1       2.263  25.491  46.972  0.00  0.00    -0.283 N 
ATOM     36  H   UNL     1       1.977  25.668  46.010  0.00  0.00    +0.155 HD
ATOM     37  N   UNL     1       2.841  27.755  47.178  0.00  0.00    -0.214 NA
BRANCH   4   3
ATOM      1  C   UNL     1       4.525  32.287  46.460  0.00  0.00    +0.020 A 
ATOM      2  C   UNL     1       4.521  31.045  47.198  0.00  0.00    +0.013 A 
ATOM      3  C   UNL     1       3.380  30.141  47.128  0.00  0.00    +0.019 A 
ATOM     38  C   UNL     1       2.250  30.526  46.296  0.00  0.00    +0.120 A 
ATOM     39  N   UNL     1       2.282  31.729  45.597  0.00  0.00    -0.263 NA
ATOM     40  C   UNL     1       3.374  32.608  45.658  0.00  0.00    +0.111 A 
ENDBRANCH   4   3
ENDBRANCH  10   9
BRANCH  12  13
ATOM     13  N   UNL     1       4.483  21.324  48.541  0.00  0.00    -0.281 N 
ATOM     14  C   UNL     1       4.969  20.909  49.770  0.00  0.00    +0.248 C 
ATOM     30  O   UNL     1       4.583  21.338  50.847  0.00  0.00    -0.270 OA
ATOM     31  H   UNL     1       5.021  21.034  47.725  0.00  0.00    +0.155 HD
BRANCH  14  15
ATOM     15  C   UNL     1       6.051  19.878  49.807  0.00  0.00    +0.037 A 
ATOM     16  C   UNL     1       6.729  19.534  51.059  0.00  0.00    +0.013 A 
ATOM     17  C   UNL     1       7.781  18.548  51.065  0.00  0.00    +0.005 A 
ATOM     18  C   UNL     1       8.160  17.898  49.812  0.00  0.00    -0.033 A 
ATOM     28  C   UNL     1       7.466  18.255  48.585  0.00  0.00    +0.005 A 
ATOM     29  C   UNL     1       6.436  19.221  48.576  0.00  0.00    +0.013 A 
BRANCH  18  19
ATOM     19  C   UNL     1       9.285  16.850  49.720  0.00  0.00    +0.119 C 
BRANCH  19  20
ATOM     20  N   UNL     1      10.573  17.282  49.101  0.00  0.00    -0.302 NA
ATOM     21  C   UNL     1      11.159  18.515  49.795  0.00  0.00    +0.066 C 
ATOM     22  C   UNL     1      12.517  18.941  49.148  0.00  0.00    -0.064 C 
ATOM     23  N   UNL     1      12.308  19.207  47.656  0.00  0.00    +0.379 N 
ATOM     24  C   UNL     1      13.571  19.663  47.058  0.00  0.00    -0.096 C 
ATOM     25  H   UNL     1      11.570  20.036  47.562  0.00  0.00    -0.082 HD
ATOM     26  C   UNL     1      11.723  17.987  46.959  0.00  0.00    -0.064 C 
ATOM     27  C   UNL     1      10.388  17.555  47.628  0.00  0.00    +0.066 C 
ENDBRANCH  19  20
ENDBRANCH  18  19
ENDBRANCH  14  15
ENDBRANCH  12  13
TORSDOF 6
ENDMDL
