MODEL 1
REMARK VINA RESULT:      -7.7      0.000      0.000
REMARK  Name = C:\Users\Docking\Desktop\test protocol\1iep_ligandH.pdb
REMARK  8 active torsions:
REMARK  status: ('A' for Active; 'I' for Inactive)
REMARK    1  A    between atoms: _5  and  _11
REMARK    2  A    between atoms: _19  and  _21
REMARK    3  A    between atoms: _22  and  _66
REMARK    4  A    between atoms: _27  and  _30
REMARK    5  A    between atoms: _32  and  _33
REMARK    6  A    between atoms: _38  and  _43
REMARK    7  A    between atoms: _43  and  _46
REMARK    8  A    between atoms: _53  and  _55
REMARK                            x       y       z     vdW  Elec       q    Type
REMARK                         _______ _______ _______ _____ _____    ______ ____
ROOT
ATOM     10  C   UNL     1      -0.822  13.263  -3.219  0.00  0.00    +0.038 A 
ATOM     11  C   UNL     1       0.297  12.399  -3.333  0.00  0.00    +0.047 A 
ATOM     12  C   UNL     1       1.006  12.249  -4.595  0.00  0.00    +0.035 A 
ATOM     32  C   UNL     1       0.549  12.996  -5.719  0.00  0.00    +0.024 A 
ATOM     33  C   UNL     1      -0.588  13.877  -5.621  0.00  0.00    +0.007 A 
ATOM     34  C   UNL     1      -1.292  14.028  -4.380  0.00  0.00    -0.029 A 
ATOM     35  C   UNL     1      -2.508  14.982  -4.334  0.00  0.00    +0.045 C 
ENDROOT
BRANCH  10   9
ATOM      4  C   UNL     1      -1.686  15.531   0.922  0.00  0.00    +0.077 A 
ATOM      5  C   UNL     1      -0.758  16.580   0.609  0.00  0.00    +0.048 A 
ATOM      6  C   UNL     1      -0.073  16.494  -0.624  0.00  0.00    +0.116 A 
ATOM      7  N   UNL     1      -0.308  15.435  -1.473  0.00  0.00    -0.223 NA
ATOM      8  C   UNL     1      -1.208  14.439  -1.140  0.00  0.00    +0.220 A 
ATOM      9  N   UNL     1      -1.464  13.369  -1.983  0.00  0.00    -0.283 N 
ATOM     36  H   UNL     1      -2.130  12.651  -1.698  0.00  0.00    +0.155 HD
ATOM     37  N   UNL     1      -1.873  14.497   0.032  0.00  0.00    -0.214 NA
BRANCH   4   3
ATOM      1  C   UNL     1      -4.438  14.673   3.566  0.00  0.00    +0.020 A 
ATOM      2  C   UNL     1      -3.701  14.686   2.323  0.00  0.00    +0.013 A 
ATOM      3  C   UNL     1      -2.488  15.482   2.185  0.00  0.00    +0.019 A 
ATOM     38  C   UNL     1      -2.043  16.259   3.333  0.00  0.00    +0.120 A 
ATOM     39  N   UNL     1      -2.775  16.228   4.516  0.00  0.00    -0.263 NA
ATOM     40  C   UNL     1      -3.945  15.467   4.660  0.00  0.00    +0.111 A 
ENDBRANCH   4   3
ENDBRANCH  10   9
BRANCH  12  13
ATOM     13  N   UNL     1       2.143  11.381  -4.773  0.00  0.00    -0.281 N 
ATOM     14  C   UNL     1       2.199  10.181  -5.464  0.00  0.00    +0.248 C 
ATOM     30  O   UNL     1       1.220   9.562  -5.855  0.00  0.00    -0.270 OA
ATOM     31  H   UNL     1       3.013  11.688  -4.338  0.00  0.00    +0.155 HD
BRANCH  14  15
ATOM     15  C   UNL     1       3.534   9.573  -5.748  0.00  0.00    +0.037 A 
ATOM     16  C   UNL     1       4.695   9.857  -4.900  0.00  0.00    +0.013 A 
ATOM     17  C   UNL     1       5.976   9.271  -5.207  0.00  0.00    +0.005 A 
ATOM     18  C   UNL     1       6.102   8.392  -6.368  0.00  0.00    -0.033 A 
ATOM     28  C   UNL     1       4.933   8.123  -7.189  0.00  0.00    +0.005 A 
ATOM     29  C   UNL     1       3.676   8.697  -6.892  0.00  0.00    +0.013 A 
BRANCH  18  19
ATOM     19  C   UNL     1       7.434   7.740  -6.782  0.00  0.00    +0.119 C 
BRANCH  19  20
ATOM     20  N   UNL     1       8.271   8.470  -7.780  0.00  0.00    -0.302 NA
ATOM     21  C   UNL     1       7.983   8.016  -9.214  0.00  0.00    +0.066 C 
ATOM     22  C   UNL     1       8.851   8.806 -10.247  0.00  0.00    -0.064 C 
ATOM     23  N   UNL     1      10.332   8.624  -9.909  0.00  0.00    +0.379 N 
ATOM     24  C   UNL     1      11.152   9.318 -10.912  0.00  0.00    -0.096 C 
ATOM     25  H   UNL     1      10.563   7.536  -9.976  0.00  0.00    -0.082 HD
ATOM     26  C   UNL     1      10.627   9.071  -8.484  0.00  0.00    -0.064 C 
ATOM     27  C   UNL     1       9.738   8.301  -7.468  0.00  0.00    +0.066 C 
ENDBRANCH  19  20
ENDBRANCH  18  19
ENDBRANCH  14  15
ENDBRANCH  12  13
TORSDOF 6
ENDMDL
MODEL 2
REMARK VINA RESULT:      -7.3     21.141     23.359
REMARK  Name = C:\Users\Docking\Desktop\test protocol\1iep_ligandH.pdb
REMARK  8 active torsions:
REMARK  status: ('A' for Active; 'I' for Inactive)
REMARK    1  A    between atoms: _5  and  _11
REMARK    2  A    between atoms: _19  and  _21
REMARK    3  A    between atoms: _22  and  _66
REMARK    4  A    between atoms: _27  and  _30
REMARK    5  A    between atoms: _32  and  _33
REMARK    6  A    between atoms: _38  and  _43
REMARK    7  A    between atoms: _43  and  _46
REMARK    8  A    between atoms: _53  and  _55
REMARK                            x       y       z     vdW  Elec       q    Type
REMARK                         _______ _______ _______ _____ _____    ______ ____
ROOT
ATOM     10  C   UNL     1       9.709   6.934  18.934  0.00  0.00    +0.038 A 
ATOM     11  C   UNL     1      10.113   6.627  17.609  0.00  0.00    +0.047 A 
ATOM     12  C   UNL     1      10.823   7.600  16.794  0.00  0.00    +0.035 A 
ATOM     32  C   UNL     1      11.109   8.876  17.362  0.00  0.00    +0.024 A 
ATOM     33  C   UNL     1      10.705   9.205  18.706  0.00  0.00    +0.007 A 
ATOM     34  C   UNL     1      10.002   8.250  19.514  0.00  0.00    -0.029 A 
ATOM     35  C   UNL     1       9.588   8.660  20.946  0.00  0.00    +0.045 C 
ENDROOT
BRANCH  10   9
ATOM      4  C   UNL     1       9.584   2.840  21.437  0.00  0.00    +0.077 A 
ATOM      5  C   UNL     1      10.985   2.605  21.235  0.00  0.00    +0.048 A 
ATOM      6  C   UNL     1      11.700   3.558  20.476  0.00  0.00    +0.116 A 
ATOM      7  N   UNL     1      11.053   4.660  19.961  0.00  0.00    -0.223 NA
ATOM      8  C   UNL     1       9.700   4.856  20.173  0.00  0.00    +0.220 A 
ATOM      9  N   UNL     1       9.030   5.961  19.671  0.00  0.00    -0.283 N 
ATOM     36  H   UNL     1       8.031   6.066  19.843  0.00  0.00    +0.155 HD
ATOM     37  N   UNL     1       8.994   3.960  20.893  0.00  0.00    -0.214 NA
BRANCH   4   3
ATOM      1  C   UNL     1       8.301   0.000  23.801  0.00  0.00    +0.020 A 
ATOM      2  C   UNL     1       9.204   0.855  23.065  0.00  0.00    +0.013 A 
ATOM      3  C   UNL     1       8.693   1.926  22.220  0.00  0.00    +0.019 A 
ATOM     38  C   UNL     1       7.252   2.109  22.141  0.00  0.00    +0.120 A 
ATOM     39  N   UNL     1       6.406   1.269  22.860  0.00  0.00    -0.263 NA
ATOM     40  C   UNL     1       6.887   0.234  23.675  0.00  0.00    +0.111 A 
ENDBRANCH   4   3
ENDBRANCH  10   9
BRANCH  12  13
ATOM     13  N   UNL     1      11.251   7.349  15.440  0.00  0.00    -0.281 N 
ATOM     14  C   UNL     1      12.183   6.423  15.000  0.00  0.00    +0.248 C 
ATOM     30  O   UNL     1      12.951   5.814  15.730  0.00  0.00    -0.270 OA
ATOM     31  H   UNL     1      10.813   7.922  14.719  0.00  0.00    +0.155 HD
BRANCH  14  15
ATOM     15  C   UNL     1      12.286   6.144  13.535  0.00  0.00    +0.037 A 
ATOM     16  C   UNL     1      13.352   5.294  12.997  0.00  0.00    +0.013 A 
ATOM     17  C   UNL     1      13.439   5.055  11.578  0.00  0.00    +0.005 A 
ATOM     18  C   UNL     1      12.455   5.666  10.687  0.00  0.00    -0.033 A 
ATOM     28  C   UNL     1      11.406   6.500  11.248  0.00  0.00    +0.005 A 
ATOM     29  C   UNL     1      11.318   6.738  12.638  0.00  0.00    +0.013 A 
BRANCH  18  19
ATOM     19  C   UNL     1      12.484   5.482   9.158  0.00  0.00    +0.119 C 
BRANCH  19  20
ATOM     20  N   UNL     1      11.170   5.437   8.450  0.00  0.00    -0.302 NA
ATOM     21  C   UNL     1      10.955   4.107   7.722  0.00  0.00    +0.066 C 
ATOM     22  C   UNL     1       9.566   4.069   7.006  0.00  0.00    -0.064 C 
ATOM     23  N   UNL     1       9.466   5.242   6.030  0.00  0.00    +0.379 N 
ATOM     24  C   UNL     1       8.184   5.176   5.313  0.00  0.00    -0.096 C 
ATOM     25  H   UNL     1      10.281   5.128   5.278  0.00  0.00    -0.082 HD
ATOM     26  C   UNL     1       9.681   6.569   6.745  0.00  0.00    -0.064 C 
ATOM     27  C   UNL     1      11.051   6.585   7.478  0.00  0.00    +0.066 C 
ENDBRANCH  19  20
ENDBRANCH  18  19
ENDBRANCH  14  15
ENDBRANCH  12  13
TORSDOF 6
ENDMDL
MODEL 3
REMARK VINA RESULT:      -7.2     27.439     30.171
REMARK  Name = C:\Users\Docking\Desktop\test protocol\1iep_ligandH.pdb
REMARK  8 active torsions:
REMARK  status: ('A' for Active; 'I' for Inactive)
REMARK    1  A    between atoms: _5  and  _11
REMARK    2  A    between atoms: _19  and  _21
REMARK    3  A    between atoms: _22  and  _66
REMARK    4  A    between atoms: _27  and  _30
REMARK    5  A    between atoms: _32  and  _33
REMARK    6  A    between atoms: _38  and  _43
REMARK    7  A    between atoms: _43  and  _46
REMARK    8  A    between atoms: _53  and  _55
REMARK                            x       y       z     vdW  Elec       q    Type
REMARK                         _______ _______ _______ _____ _____    ______ ____
ROOT
ATOM     10  C   UNL     1     -16.942 -10.222  11.479  0.00  0.00    +0.038 A 
ATOM     11  C   UNL     1     -16.191 -10.017  10.293  0.00  0.00    +0.047 A 
ATOM     12  C   UNL     1     -16.218 -10.984   9.207  0.00  0.00    +0.035 A 
ATOM     32  C   UNL     1     -17.025 -12.149   9.362  0.00  0.00    +0.024 A 
ATOM     33  C   UNL     1     -17.794 -12.375  10.560  0.00  0.00    +0.007 A 
ATOM     34  C   UNL     1     -17.768 -11.425  11.636  0.00  0.00    -0.029 A 
ATOM     35  C   UNL     1     -18.607 -11.722  12.900  0.00  0.00    +0.045 C 
ENDROOT
BRANCH  10   9
ATOM      4  C   UNL     1     -14.499  -7.214  14.311  0.00  0.00    +0.077 A 
ATOM      5  C   UNL     1     -13.241  -7.611  13.748  0.00  0.00    +0.048 A 
ATOM      6  C   UNL     1     -13.265  -8.598  12.737  0.00  0.00    +0.116 A 
ATOM      7  N   UNL     1     -14.464  -9.140  12.327  0.00  0.00    -0.223 NA
ATOM      8  C   UNL     1     -15.660  -8.735  12.892  0.00  0.00    +0.220 A 
ATOM      9  N   UNL     1     -16.878  -9.261  12.490  0.00  0.00    -0.283 N 
ATOM     36  H   UNL     1     -17.737  -8.941  12.936  0.00  0.00    +0.155 HD
ATOM     37  N   UNL     1     -15.663  -7.796  13.861  0.00  0.00    -0.214 NA
BRANCH   4   3
ATOM      1  C   UNL     1     -14.113  -3.936  16.411  0.00  0.00    +0.020 A 
ATOM      2  C   UNL     1     -13.944  -4.900  15.347  0.00  0.00    +0.013 A 
ATOM      3  C   UNL     1     -14.638  -6.181  15.386  0.00  0.00    +0.019 A 
ATOM     38  C   UNL     1     -15.503  -6.458  16.523  0.00  0.00    +0.120 A 
ATOM     39  N   UNL     1     -15.645  -5.511  17.533  0.00  0.00    -0.263 NA
ATOM     40  C   UNL     1     -14.981  -4.276  17.507  0.00  0.00    +0.111 A 
ENDBRANCH   4   3
ENDBRANCH  10   9
BRANCH  12  13
ATOM     13  N   UNL     1     -15.471 -10.833   7.984  0.00  0.00    -0.281 N 
ATOM     14  C   UNL     1     -15.801 -10.076   6.872  0.00  0.00    +0.248 C 
ATOM     30  O   UNL     1     -16.901  -9.580   6.675  0.00  0.00    -0.270 OA
ATOM     31  H   UNL     1     -14.591 -11.346   7.931  0.00  0.00    +0.155 HD
BRANCH  14  15
ATOM     15  C   UNL     1     -14.765  -9.849   5.819  0.00  0.00    +0.037 A 
ATOM     16  C   UNL     1     -14.995  -8.913   4.715  0.00  0.00    +0.013 A 
ATOM     17  C   UNL     1     -13.986  -8.726   3.703  0.00  0.00    +0.005 A 
ATOM     18  C   UNL     1     -12.735  -9.476   3.792  0.00  0.00    -0.033 A 
ATOM     28  C   UNL     1     -12.531 -10.394   4.900  0.00  0.00    +0.005 A 
ATOM     29  C   UNL     1     -13.519 -10.581   5.893  0.00  0.00    +0.013 A 
BRANCH  18  19
ATOM     19  C   UNL     1     -11.612  -9.355   2.745  0.00  0.00    +0.119 C 
BRANCH  19  20
ATOM     20  N   UNL     1     -11.133 -10.617   2.107  0.00  0.00    -0.302 NA
ATOM     21  C   UNL     1      -9.946 -10.373   1.170  0.00  0.00    +0.066 C 
ATOM     22  C   UNL     1      -9.444 -11.707   0.529  0.00  0.00    -0.064 C 
ATOM     23  N   UNL     1     -10.597 -12.375  -0.222  0.00  0.00    +0.379 N 
ATOM     24  C   UNL     1     -10.114 -13.600  -0.875  0.00  0.00    -0.096 C 
ATOM     25  H   UNL     1     -10.931 -11.674  -1.022  0.00  0.00    -0.082 HD
ATOM     26  C   UNL     1     -11.783 -12.619   0.702  0.00  0.00    -0.064 C 
ATOM     27  C   UNL     1     -12.255 -11.291   1.357  0.00  0.00    +0.066 C 
ENDBRANCH  19  20
ENDBRANCH  18  19
ENDBRANCH  14  15
ENDBRANCH  12  13
TORSDOF 6
ENDMDL
MODEL 4
REMARK VINA RESULT:      -7.2     25.547     28.894
REMARK  Name = C:\Users\Docking\Desktop\test protocol\1iep_ligandH.pdb
REMARK  8 active torsions:
REMARK  status: ('A' for Active; 'I' for Inactive)
REMARK    1  A    between atoms: _5  and  _11
REMARK    2  A    between atoms: _19  and  _21
REMARK    3  A    between atoms: _22  and  _66
REMARK    4  A    between atoms: _27  and  _30
REMARK    5  A    between atoms: _32  and  _33
REMARK    6  A    between atoms: _38  and  _43
REMARK    7  A    between atoms: _43  and  _46
REMARK    8  A    between atoms: _53  and  _55
REMARK                            x       y       z     vdW  Elec       q    Type
REMARK                         _______ _______ _______ _____ _____    ______ ____
ROOT
ATOM     10  C   UNL     1       4.269  -0.317  22.133  0.00  0.00    +0.038 A 
ATOM     11  C   UNL     1       5.411   0.383  21.666  0.00  0.00    +0.047 A 
ATOM     12  C   UNL     1       5.800   1.659  22.246  0.00  0.00    +0.035 A 
ATOM     32  C   UNL     1       5.005   2.193  23.302  0.00  0.00    +0.024 A 
ATOM     33  C   UNL     1       3.841   1.495  23.788  0.00  0.00    +0.007 A 
ATOM     34  C   UNL     1       3.450   0.237  23.219  0.00  0.00    -0.029 A 
ATOM     35  C   UNL     1       2.189  -0.463  23.775  0.00  0.00    +0.045 C 
ENDROOT
BRANCH  10   9
ATOM      4  C   UNL     1       4.461  -5.108  21.927  0.00  0.00    +0.077 A 
ATOM      5  C   UNL     1       5.309  -5.183  23.082  0.00  0.00    +0.048 A 
ATOM      6  C   UNL     1       5.678  -3.965  23.696  0.00  0.00    +0.116 A 
ATOM      7  N   UNL     1       5.227  -2.767  23.184  0.00  0.00    -0.223 NA
ATOM      8  C   UNL     1       4.412  -2.730  22.068  0.00  0.00    +0.220 A 
ATOM      9  N   UNL     1       3.941  -1.538  21.541  0.00  0.00    -0.283 N 
ATOM     36  H   UNL     1       3.348  -1.553  20.712  0.00  0.00    +0.155 HD
ATOM     37  N   UNL     1       4.047  -3.880  21.463  0.00  0.00    -0.214 NA
BRANCH   4   3
ATOM      1  C   UNL     1       3.951  -7.806  19.142  0.00  0.00    +0.020 A 
ATOM      2  C   UNL     1       4.445  -6.635  19.828  0.00  0.00    +0.013 A 
ATOM      3  C   UNL     1       3.982  -6.308  21.171  0.00  0.00    +0.019 A 
ATOM     38  C   UNL     1       3.012  -7.194  21.796  0.00  0.00    +0.120 A 
ATOM     39  N   UNL     1       2.553  -8.314  21.110  0.00  0.00    -0.263 NA
ATOM     40  C   UNL     1       2.990  -8.638  19.817  0.00  0.00    +0.111 A 
ENDBRANCH   4   3
ENDBRANCH  10   9
BRANCH  12  13
ATOM     13  N   UNL     1       6.945   2.419  21.807  0.00  0.00    -0.281 N 
ATOM     14  C   UNL     1       8.280   2.189  22.093  0.00  0.00    +0.248 C 
ATOM     30  O   UNL     1       8.680   1.415  22.950  0.00  0.00    -0.270 OA
ATOM     31  H   UNL     1       6.746   3.225  21.214  0.00  0.00    +0.155 HD
BRANCH  14  15
ATOM     15  C   UNL     1       9.322   2.938  21.327  0.00  0.00    +0.037 A 
ATOM     16  C   UNL     1      10.724   2.511  21.333  0.00  0.00    +0.013 A 
ATOM     17  C   UNL     1      11.712   3.261  20.599  0.00  0.00    +0.005 A 
ATOM     18  C   UNL     1      11.301   4.447  19.851  0.00  0.00    -0.033 A 
ATOM     28  C   UNL     1       9.903   4.845  19.858  0.00  0.00    +0.005 A 
ATOM     29  C   UNL     1       8.932   4.113  20.577  0.00  0.00    +0.013 A 
BRANCH  18  19
ATOM     19  C   UNL     1      12.291   5.320  19.057  0.00  0.00    +0.119 C 
BRANCH  19  20
ATOM     20  N   UNL     1      11.715   6.280  18.069  0.00  0.00    -0.302 NA
ATOM     21  C   UNL     1      12.234   6.025  16.651  0.00  0.00    +0.066 C 
ATOM     22  C   UNL     1      11.604   7.024  15.626  0.00  0.00    -0.064 C 
ATOM     23  N   UNL     1      11.907   8.458  16.064  0.00  0.00    +0.379 N 
ATOM     24  C   UNL     1      11.366   9.398  15.072  0.00  0.00    -0.096 C 
ATOM     25  H   UNL     1      13.015   8.580  16.078  0.00  0.00    -0.082 HD
ATOM     26  C   UNL     1      11.397   8.719  17.474  0.00  0.00    -0.064 C 
ATOM     27  C   UNL     1      12.006   7.702  18.480  0.00  0.00    +0.066 C 
ENDBRANCH  19  20
ENDBRANCH  18  19
ENDBRANCH  14  15
ENDBRANCH  12  13
TORSDOF 6
ENDMDL
MODEL 5
REMARK VINA RESULT:      -7.1     15.587     17.780
REMARK  Name = C:\Users\Docking\Desktop\test protocol\1iep_ligandH.pdb
REMARK  8 active torsions:
REMARK  status: ('A' for Active; 'I' for Inactive)
REMARK    1  A    between atoms: _5  and  _11
REMARK    2  A    between atoms: _19  and  _21
REMARK    3  A    between atoms: _22  and  _66
REMARK    4  A    between atoms: _27  and  _30
REMARK    5  A    between atoms: _32  and  _33
REMARK    6  A    between atoms: _38  and  _43
REMARK    7  A    between atoms: _43  and  _46
REMARK    8  A    between atoms: _53  and  _55
REMARK                            x       y       z     vdW  Elec       q    Type
REMARK                         _______ _______ _______ _____ _____    ______ ____
ROOT
ATOM     10  C   UNL     1      -0.886  -5.922  -1.768  0.00  0.00    +0.038 A 
ATOM     11  C   UNL     1       0.425  -5.442  -2.020  0.00  0.00    +0.047 A 
ATOM     12  C   UNL     1       1.518  -6.357  -2.309  0.00  0.00    +0.035 A 
ATOM     32  C   UNL     1       1.241  -7.755  -2.334  0.00  0.00    +0.024 A 
ATOM     33  C   UNL     1      -0.085  -8.260  -2.079  0.00  0.00    +0.007 A 
ATOM     34  C   UNL     1      -1.168  -7.362  -1.791  0.00  0.00    -0.029 A 
ATOM     35  C   UNL     1      -2.568  -7.960  -1.519  0.00  0.00    +0.045 C 
ENDROOT
BRANCH  10   9
ATOM      4  C   UNL     1      -4.438  -3.006  -3.154  0.00  0.00    +0.077 A 
ATOM      5  C   UNL     1      -4.242  -3.329  -4.538  0.00  0.00    +0.048 A 
ATOM      6  C   UNL     1      -3.213  -4.244  -4.851  0.00  0.00    +0.116 A 
ATOM      7  N   UNL     1      -2.442  -4.790  -3.848  0.00  0.00    -0.223 NA
ATOM      8  C   UNL     1      -2.656  -4.456  -2.523  0.00  0.00    +0.220 A 
ATOM      9  N   UNL     1      -1.899  -4.999  -1.497  0.00  0.00    -0.283 N 
ATOM     36  H   UNL     1      -2.083  -4.721  -0.533  0.00  0.00    +0.155 HD
ATOM     37  N   UNL     1      -3.632  -3.583  -2.197  0.00  0.00    -0.214 NA
BRANCH   4   3
ATOM      1  C   UNL     1      -6.800  -0.929  -0.827  0.00  0.00    +0.020 A 
ATOM      2  C   UNL     1      -5.775  -1.857  -1.248  0.00  0.00    +0.013 A 
ATOM      3  C   UNL     1      -5.488  -2.058  -2.663  0.00  0.00    +0.019 A 
ATOM     38  C   UNL     1      -6.260  -1.298  -3.634  0.00  0.00    +0.120 A 
ATOM     39  N   UNL     1      -7.242  -0.412  -3.199  0.00  0.00    -0.263 NA
ATOM     40  C   UNL     1      -7.528  -0.212  -1.840  0.00  0.00    +0.111 A 
ENDBRANCH   4   3
ENDBRANCH  10   9
BRANCH  12  13
ATOM     13  N   UNL     1       2.871  -5.929  -2.565  0.00  0.00    -0.281 N 
ATOM     14  C   UNL     1       3.822  -5.516  -1.646  0.00  0.00    +0.248 C 
ATOM     30  O   UNL     1       3.584  -5.248  -0.478  0.00  0.00    -0.270 OA
ATOM     31  H   UNL     1       3.163  -5.930  -3.542  0.00  0.00    +0.155 HD
BRANCH  14  15
ATOM     15  C   UNL     1       5.240  -5.366  -2.093  0.00  0.00    +0.037 A 
ATOM     16  C   UNL     1       5.916  -4.066  -2.054  0.00  0.00    +0.013 A 
ATOM     17  C   UNL     1       7.279  -3.946  -2.507  0.00  0.00    +0.005 A 
ATOM     18  C   UNL     1       7.976  -5.130  -3.003  0.00  0.00    -0.033 A 
ATOM     28  C   UNL     1       7.284  -6.408  -3.026  0.00  0.00    +0.005 A 
ATOM     29  C   UNL     1       5.948  -6.529  -2.584  0.00  0.00    +0.013 A 
BRANCH  18  19
ATOM     19  C   UNL     1       9.424  -5.090  -3.526  0.00  0.00    +0.119 C 
BRANCH  19  20
ATOM     20  N   UNL     1      10.519  -5.186  -2.515  0.00  0.00    -0.302 NA
ATOM     21  C   UNL     1      10.954  -3.808  -2.007  0.00  0.00    +0.066 C 
ATOM     22  C   UNL     1      12.085  -3.929  -0.933  0.00  0.00    -0.064 C 
ATOM     23  N   UNL     1      13.272  -4.685  -1.531  0.00  0.00    +0.379 N 
ATOM     24  C   UNL     1      14.360  -4.749  -0.543  0.00  0.00    -0.096 C 
ATOM     25  H   UNL     1      13.642  -4.098  -2.404  0.00  0.00    -0.082 HD
ATOM     26  C   UNL     1      12.849  -6.055  -2.041  0.00  0.00    -0.064 C 
ATOM     27  C   UNL     1      11.704  -5.926  -3.086  0.00  0.00    +0.066 C 
ENDBRANCH  19  20
ENDBRANCH  18  19
ENDBRANCH  14  15
ENDBRANCH  12  13
TORSDOF 6
ENDMDL
