MODEL 1
REMARK VINA RESULT:      -7.1      0.000      0.000
REMARK  Name = C:\Users\Docking\Desktop\test protocol\1iep_ligandH.pdb
REMARK  8 active torsions:
REMARK  status: ('A' for Active; 'I' for Inactive)
REMARK    1  A    between atoms: _5  and  _11
REMARK    2  A    between atoms: _19  and  _21
REMARK    3  A    between atoms: _22  and  _66
REMARK    4  A    between atoms: _27  and  _30
REMARK    5  A    between atoms: _32  and  _33
REMARK    6  A    between atoms: _38  and  _43
REMARK    7  A    between atoms: _43  and  _46
REMARK    8  A    between atoms: _53  and  _55
REMARK                            x       y       z     vdW  Elec       q    Type
REMARK                         _______ _______ _______ _____ _____    ______ ____
ROOT
ATOM     10  C   UNL     1       8.740 -11.394  17.930  0.00  0.00    +0.038 A 
ATOM     11  C   UNL     1       9.532 -10.510  17.154  0.00  0.00    +0.047 A 
ATOM     12  C   UNL     1       9.719  -9.123  17.549  0.00  0.00    +0.035 A 
ATOM     32  C   UNL     1       9.086  -8.670  18.744  0.00  0.00    +0.024 A 
ATOM     33  C   UNL     1       8.277  -9.555  19.544  0.00  0.00    +0.007 A 
ATOM     34  C   UNL     1       8.087 -10.924  19.158  0.00  0.00    -0.029 A 
ATOM     35  C   UNL     1       7.204 -11.825  20.051  0.00  0.00    +0.045 C 
ENDROOT
BRANCH  10   9
ATOM      4  C   UNL     1       6.652 -14.763  15.224  0.00  0.00    +0.077 A 
ATOM      5  C   UNL     1       5.756 -13.814  14.628  0.00  0.00    +0.048 A 
ATOM      6  C   UNL     1       5.861 -12.469  15.051  0.00  0.00    +0.116 A 
ATOM      7  N   UNL     1       6.795 -12.113  15.999  0.00  0.00    -0.223 NA
ATOM      8  C   UNL     1       7.642 -13.054  16.555  0.00  0.00    +0.220 A 
ATOM      9  N   UNL     1       8.595 -12.716  17.504  0.00  0.00    -0.283 N 
ATOM     36  H   UNL     1       9.196 -13.441  17.895  0.00  0.00    +0.155 HD
ATOM     37  N   UNL     1       7.561 -14.344  16.169  0.00  0.00    -0.214 NA
BRANCH   4   3
ATOM      1  C   UNL     1       5.604 -18.304  13.934  0.00  0.00    +0.020 A 
ATOM      2  C   UNL     1       5.539 -16.895  14.247  0.00  0.00    +0.013 A 
ATOM      3  C   UNL     1       6.666 -16.220  14.878  0.00  0.00    +0.019 A 
ATOM     38  C   UNL     1       7.853 -17.005  15.181  0.00  0.00    +0.120 A 
ATOM     39  N   UNL     1       7.887 -18.360  14.869  0.00  0.00    -0.263 NA
ATOM     40  C   UNL     1       6.808 -19.021  14.263  0.00  0.00    +0.111 A 
ENDBRANCH   4   3
ENDBRANCH  10   9
BRANCH  12  13
ATOM     13  N   UNL     1      10.505  -8.177  16.797  0.00  0.00    -0.281 N 
ATOM     14  C   UNL     1      11.770  -7.696  17.091  0.00  0.00    +0.248 C 
ATOM     30  O   UNL     1      12.334  -7.845  18.166  0.00  0.00    -0.270 OA
ATOM     31  H   UNL     1      10.077  -7.819  15.943  0.00  0.00    +0.155 HD
BRANCH  14  15
ATOM     15  C   UNL     1      12.511  -6.925  16.047  0.00  0.00    +0.037 A 
ATOM     16  C   UNL     1      12.434  -7.296  14.632  0.00  0.00    +0.013 A 
ATOM     17  C   UNL     1      13.172  -6.546  13.646  0.00  0.00    +0.005 A 
ATOM     18  C   UNL     1      13.993  -5.415  14.074  0.00  0.00    -0.033 A 
ATOM     28  C   UNL     1      14.046  -5.066  15.484  0.00  0.00    +0.005 A 
ATOM     29  C   UNL     1      13.325  -5.799  16.452  0.00  0.00    +0.013 A 
BRANCH  18  19
ATOM     19  C   UNL     1      14.830  -4.572  13.094  0.00  0.00    +0.119 C 
BRANCH  19  20
ATOM     20  N   UNL     1      14.149  -3.424  12.425  0.00  0.00    -0.302 NA
ATOM     21  C   UNL     1      13.384  -2.549  13.422  0.00  0.00    +0.066 C 
ATOM     22  C   UNL     1      12.695  -1.341  12.707  0.00  0.00    -0.064 C 
ATOM     23  N   UNL     1      11.759  -1.863  11.615  0.00  0.00    +0.379 N 
ATOM     24  C   UNL     1      11.067  -0.732  10.981  0.00  0.00    -0.096 C 
ATOM     25  H   UNL     1      10.988  -2.499  12.108  0.00  0.00    -0.082 HD
ATOM     26  C   UNL     1      12.511  -2.737  10.621  0.00  0.00    -0.064 C 
ATOM     27  C   UNL     1      13.216  -3.917  11.346  0.00  0.00    +0.066 C 
ENDBRANCH  19  20
ENDBRANCH  18  19
ENDBRANCH  14  15
ENDBRANCH  12  13
TORSDOF 6
ENDMDL
MODEL 2
REMARK VINA RESULT:      -7.1      5.888     13.091
REMARK  Name = C:\Users\Docking\Desktop\test protocol\1iep_ligandH.pdb
REMARK  8 active torsions:
REMARK  status: ('A' for Active; 'I' for Inactive)
REMARK    1  A    between atoms: _5  and  _11
REMARK    2  A    between atoms: _19  and  _21
REMARK    3  A    between atoms: _22  and  _66
REMARK    4  A    between atoms: _27  and  _30
REMARK    5  A    between atoms: _32  and  _33
REMARK    6  A    between atoms: _38  and  _43
REMARK    7  A    between atoms: _43  and  _46
REMARK    8  A    between atoms: _53  and  _55
REMARK                            x       y       z     vdW  Elec       q    Type
REMARK                         _______ _______ _______ _____ _____    ______ ____
ROOT
ATOM     10  C   UNL     1       8.449  -0.242   7.934  0.00  0.00    +0.038 A 
ATOM     11  C   UNL     1       9.180  -1.012   8.874  0.00  0.00    +0.047 A 
ATOM     12  C   UNL     1      10.623  -0.876   8.999  0.00  0.00    +0.035 A 
ATOM     32  C   UNL     1      11.289   0.057   8.153  0.00  0.00    +0.024 A 
ATOM     33  C   UNL     1      10.562   0.848   7.191  0.00  0.00    +0.007 A 
ATOM     34  C   UNL     1       9.139   0.716   7.061  0.00  0.00    -0.029 A 
ATOM     35  C   UNL     1       8.412   1.585   6.009  0.00  0.00    +0.045 C 
ENDROOT
BRANCH  10   9
ATOM      4  C   UNL     1       3.991   0.539   9.533  0.00  0.00    +0.077 A 
ATOM      5  C   UNL     1       4.461   1.332  10.632  0.00  0.00    +0.048 A 
ATOM      6  C   UNL     1       5.857   1.510  10.754  0.00  0.00    +0.116 A 
ATOM      7  N   UNL     1       6.711   0.932   9.839  0.00  0.00    -0.223 NA
ATOM      8  C   UNL     1       6.225   0.171   8.792  0.00  0.00    +0.220 A 
ATOM      9  N   UNL     1       7.065  -0.413   7.856  0.00  0.00    -0.283 N 
ATOM     36  H   UNL     1       6.668  -0.973   7.102  0.00  0.00    +0.155 HD
ATOM     37  N   UNL     1       4.896  -0.014   8.654  0.00  0.00    -0.214 NA
BRANCH   4   3
ATOM      1  C   UNL     1       0.301   0.853   8.275  0.00  0.00    +0.020 A 
ATOM      2  C   UNL     1       1.692   1.166   8.503  0.00  0.00    +0.013 A 
ATOM      3  C   UNL     1       2.544   0.263   9.267  0.00  0.00    +0.019 A 
ATOM     38  C   UNL     1       1.952  -0.959   9.790  0.00  0.00    +0.120 A 
ATOM     39  N   UNL     1       0.608  -1.234   9.555  0.00  0.00    -0.263 NA
ATOM     40  C   UNL     1      -0.222  -0.371   8.823  0.00  0.00    +0.111 A 
ENDBRANCH   4   3
ENDBRANCH  10   9
BRANCH  12  13
ATOM     13  N   UNL     1      11.419  -1.638   9.930  0.00  0.00    -0.281 N 
ATOM     14  C   UNL     1      11.842  -1.263  11.194  0.00  0.00    +0.248 C 
ATOM     30  O   UNL     1      11.779  -0.125  11.635  0.00  0.00    -0.270 OA
ATOM     31  H   UNL     1      11.705  -2.566   9.618  0.00  0.00    +0.155 HD
BRANCH  14  15
ATOM     15  C   UNL     1      12.434  -2.299  12.094  0.00  0.00    +0.037 A 
ATOM     16  C   UNL     1      12.809  -3.621  11.587  0.00  0.00    +0.013 A 
ATOM     17  C   UNL     1      13.362  -4.608  12.481  0.00  0.00    +0.005 A 
ATOM     18  C   UNL     1      13.545  -4.275  13.891  0.00  0.00    -0.033 A 
ATOM     28  C   UNL     1      13.169  -2.954  14.366  0.00  0.00    +0.005 A 
ATOM     29  C   UNL     1      12.626  -1.984  13.494  0.00  0.00    +0.013 A 
BRANCH  18  19
ATOM     19  C   UNL     1      14.108  -5.273  14.920  0.00  0.00    +0.119 C 
BRANCH  19  20
ATOM     20  N   UNL     1      13.141  -5.884  15.880  0.00  0.00    -0.302 NA
ATOM     21  C   UNL     1      13.833  -6.387  17.150  0.00  0.00    +0.066 C 
ATOM     22  C   UNL     1      12.804  -7.003  18.153  0.00  0.00    -0.064 C 
ATOM     23  N   UNL     1      12.043  -8.138  17.465  0.00  0.00    +0.379 N 
ATOM     24  C   UNL     1      11.115  -8.757  18.423  0.00  0.00    -0.096 C 
ATOM     25  H   UNL     1      12.787  -8.912  17.166  0.00  0.00    -0.082 HD
ATOM     26  C   UNL     1      11.354  -7.647  16.200  0.00  0.00    -0.064 C 
ATOM     27  C   UNL     1      12.381  -7.010  15.223  0.00  0.00    +0.066 C 
ENDBRANCH  19  20
ENDBRANCH  18  19
ENDBRANCH  14  15
ENDBRANCH  12  13
TORSDOF 6
ENDMDL
MODEL 3
REMARK VINA RESULT:      -7.0      1.644      2.578
REMARK  Name = C:\Users\Docking\Desktop\test protocol\1iep_ligandH.pdb
REMARK  8 active torsions:
REMARK  status: ('A' for Active; 'I' for Inactive)
REMARK    1  A    between atoms: _5  and  _11
REMARK    2  A    between atoms: _19  and  _21
REMARK    3  A    between atoms: _22  and  _66
REMARK    4  A    between atoms: _27  and  _30
REMARK    5  A    between atoms: _32  and  _33
REMARK    6  A    between atoms: _38  and  _43
REMARK    7  A    between atoms: _43  and  _46
REMARK    8  A    between atoms: _53  and  _55
REMARK                            x       y       z     vdW  Elec       q    Type
REMARK                         _______ _______ _______ _____ _____    ______ ____
ROOT
ATOM     10  C   UNL     1       8.186 -11.113  17.763  0.00  0.00    +0.038 A 
ATOM     11  C   UNL     1       9.108 -10.266  17.096  0.00  0.00    +0.047 A 
ATOM     12  C   UNL     1       9.216  -8.855  17.436  0.00  0.00    +0.035 A 
ATOM     32  C   UNL     1       8.371  -8.341  18.463  0.00  0.00    +0.024 A 
ATOM     33  C   UNL     1       7.427  -9.188  19.150  0.00  0.00    +0.007 A 
ATOM     34  C   UNL     1       7.314 -10.579  18.817  0.00  0.00    -0.029 A 
ATOM     35  C   UNL     1       6.281 -11.438  19.582  0.00  0.00    +0.045 C 
ENDROOT
BRANCH  10   9
ATOM      4  C   UNL     1       6.456 -14.693  15.074  0.00  0.00    +0.077 A 
ATOM      5  C   UNL     1       5.581 -13.810  14.357  0.00  0.00    +0.048 A 
ATOM      6  C   UNL     1       5.601 -12.444  14.716  0.00  0.00    +0.116 A 
ATOM      7  N   UNL     1       6.439 -12.003  15.718  0.00  0.00    -0.223 NA
ATOM      8  C   UNL     1       7.269 -12.881  16.391  0.00  0.00    +0.220 A 
ATOM      9  N   UNL     1       8.124 -12.459  17.397  0.00  0.00    -0.283 N 
ATOM     36  H   UNL     1       8.715 -13.139  17.874  0.00  0.00    +0.155 HD
ATOM     37  N   UNL     1       7.267 -14.191  16.068  0.00  0.00    -0.214 NA
BRANCH   4   3
ATOM      1  C   UNL     1       5.626 -18.342  13.939  0.00  0.00    +0.020 A 
ATOM      2  C   UNL     1       5.483 -16.924  14.173  0.00  0.00    +0.013 A 
ATOM      3  C   UNL     1       6.551 -16.163  14.809  0.00  0.00    +0.019 A 
ATOM     38  C   UNL     1       7.760 -16.873  15.198  0.00  0.00    +0.120 A 
ATOM     39  N   UNL     1       7.869 -18.240  14.962  0.00  0.00    -0.263 NA
ATOM     40  C   UNL     1       6.847 -18.983  14.352  0.00  0.00    +0.111 A 
ENDBRANCH   4   3
ENDBRANCH  10   9
BRANCH  12  13
ATOM     13  N   UNL     1      10.127  -7.945  16.788  0.00  0.00    -0.281 N 
ATOM     14  C   UNL     1      11.453  -7.699  17.105  0.00  0.00    +0.248 C 
ATOM     30  O   UNL     1      11.998  -8.070  18.134  0.00  0.00    -0.270 OA
ATOM     31  H   UNL     1       9.749  -7.419  16.001  0.00  0.00    +0.155 HD
BRANCH  14  15
ATOM     15  C   UNL     1      12.291  -6.916  16.146  0.00  0.00    +0.037 A 
ATOM     16  C   UNL     1      13.070  -5.757  16.590  0.00  0.00    +0.013 A 
ATOM     17  C   UNL     1      13.856  -5.008  15.641  0.00  0.00    +0.005 A 
ATOM     18  C   UNL     1      13.868  -5.418  14.239  0.00  0.00    -0.033 A 
ATOM     28  C   UNL     1      13.090  -6.575  13.828  0.00  0.00    +0.005 A 
ATOM     29  C   UNL     1      12.317  -7.310  14.754  0.00  0.00    +0.013 A 
BRANCH  18  19
ATOM     19  C   UNL     1      14.661  -4.666  13.154  0.00  0.00    +0.119 C 
BRANCH  19  20
ATOM     20  N   UNL     1      15.706  -3.703  13.615  0.00  0.00    -0.302 NA
ATOM     21  C   UNL     1      15.805  -2.480  12.699  0.00  0.00    +0.066 C 
ATOM     22  C   UNL     1      16.887  -1.473  13.209  0.00  0.00    -0.064 C 
ATOM     23  N   UNL     1      18.237  -2.186  13.307  0.00  0.00    +0.379 N 
ATOM     24  C   UNL     1      19.268  -1.228  13.730  0.00  0.00    -0.096 C 
ATOM     25  H   UNL     1      18.505  -2.544  12.286  0.00  0.00    -0.082 HD
ATOM     26  C   UNL     1      18.147  -3.406  14.214  0.00  0.00    -0.064 C 
ATOM     27  C   UNL     1      17.048  -4.386  13.715  0.00  0.00    +0.066 C 
ENDBRANCH  19  20
ENDBRANCH  18  19
ENDBRANCH  14  15
ENDBRANCH  12  13
TORSDOF 6
ENDMDL
MODEL 4
REMARK VINA RESULT:      -7.0     11.234     15.550
REMARK  Name = C:\Users\Docking\Desktop\test protocol\1iep_ligandH.pdb
REMARK  8 active torsions:
REMARK  status: ('A' for Active; 'I' for Inactive)
REMARK    1  A    between atoms: _5  and  _11
REMARK    2  A    between atoms: _19  and  _21
REMARK    3  A    between atoms: _22  and  _66
REMARK    4  A    between atoms: _27  and  _30
REMARK    5  A    between atoms: _32  and  _33
REMARK    6  A    between atoms: _38  and  _43
REMARK    7  A    between atoms: _43  and  _46
REMARK    8  A    between atoms: _53  and  _55
REMARK                            x       y       z     vdW  Elec       q    Type
REMARK                         _______ _______ _______ _____ _____    ______ ____
ROOT
ATOM     10  C   UNL     1      10.007 -18.347  23.868  0.00  0.00    +0.038 A 
ATOM     11  C   UNL     1       9.665 -18.707  22.539  0.00  0.00    +0.047 A 
ATOM     12  C   UNL     1       8.348 -18.416  21.996  0.00  0.00    +0.035 A 
ATOM     32  C   UNL     1       7.403 -17.754  22.834  0.00  0.00    +0.024 A 
ATOM     33  C   UNL     1       7.733 -17.382  24.187  0.00  0.00    +0.007 A 
ATOM     34  C   UNL     1       9.031 -17.669  24.729  0.00  0.00    -0.029 A 
ATOM     35  C   UNL     1       9.328 -17.253  26.188  0.00  0.00    +0.045 C 
ENDROOT
BRANCH  10   9
ATOM      4  C   UNL     1      13.093 -21.174  26.218  0.00  0.00    +0.077 A 
ATOM      5  C   UNL     1      12.063 -22.111  26.563  0.00  0.00    +0.048 A 
ATOM      6  C   UNL     1      10.751 -21.826  26.121  0.00  0.00    +0.116 A 
ATOM      7  N   UNL     1      10.500 -20.685  25.391  0.00  0.00    -0.223 NA
ATOM      8  C   UNL     1      11.516 -19.800  25.078  0.00  0.00    +0.220 A 
ATOM      9  N   UNL     1      11.287 -18.650  24.338  0.00  0.00    -0.283 N 
ATOM     36  H   UNL     1      12.062 -18.020  24.134  0.00  0.00    +0.155 HD
ATOM     37  N   UNL     1      12.776 -20.050  25.489  0.00  0.00    -0.214 NA
BRANCH   4   3
ATOM      1  C   UNL     1      16.954 -20.645  26.555  0.00  0.00    +0.020 A 
ATOM      2  C   UNL     1      15.582 -20.443  26.148  0.00  0.00    +0.013 A 
ATOM      3  C   UNL     1      14.529 -21.338  26.609  0.00  0.00    +0.019 A 
ATOM     38  C   UNL     1      14.899 -22.436  27.489  0.00  0.00    +0.120 A 
ATOM     39  N   UNL     1      16.228 -22.607  27.863  0.00  0.00    -0.263 NA
ATOM     40  C   UNL     1      17.251 -21.753  27.425  0.00  0.00    +0.111 A 
ENDBRANCH   4   3
ENDBRANCH  10   9
BRANCH  12  13
ATOM     13  N   UNL     1       7.941 -18.764  20.658  0.00  0.00    -0.281 N 
ATOM     14  C   UNL     1       8.345 -18.184  19.466  0.00  0.00    +0.248 C 
ATOM     30  O   UNL     1       8.959 -17.131  19.384  0.00  0.00    -0.270 OA
ATOM     31  H   UNL     1       7.274 -19.532  20.579  0.00  0.00    +0.155 HD
BRANCH  14  15
ATOM     15  C   UNL     1       8.006 -18.865  18.180  0.00  0.00    +0.037 A 
ATOM     16  C   UNL     1       7.976 -20.327  18.079  0.00  0.00    +0.013 A 
ATOM     17  C   UNL     1       7.662 -20.958  16.821  0.00  0.00    +0.005 A 
ATOM     18  C   UNL     1       7.375 -20.127  15.655  0.00  0.00    -0.033 A 
ATOM     28  C   UNL     1       7.406 -18.680  15.784  0.00  0.00    +0.005 A 
ATOM     29  C   UNL     1       7.714 -18.057  17.015  0.00  0.00    +0.013 A 
BRANCH  18  19
ATOM     19  C   UNL     1       7.051 -20.716  14.268  0.00  0.00    +0.119 C 
BRANCH  19  20
ATOM     20  N   UNL     1       6.729 -22.172  14.202  0.00  0.00    -0.302 NA
ATOM     21  C   UNL     1       7.984 -23.030  14.020  0.00  0.00    +0.066 C 
ATOM     22  C   UNL     1       7.631 -24.553  13.975  0.00  0.00    -0.064 C 
ATOM     23  N   UNL     1       6.632 -24.809  12.846  0.00  0.00    +0.379 N 
ATOM     24  C   UNL     1       6.342 -26.248  12.763  0.00  0.00    -0.096 C 
ATOM     25  H   UNL     1       7.118 -24.506  11.889  0.00  0.00    -0.082 HD
ATOM     26  C   UNL     1       5.382 -23.957  13.018  0.00  0.00    -0.064 C 
ATOM     27  C   UNL     1       5.746 -22.448  13.091  0.00  0.00    +0.066 C 
ENDBRANCH  19  20
ENDBRANCH  18  19
ENDBRANCH  14  15
ENDBRANCH  12  13
TORSDOF 6
ENDMDL
MODEL 5
REMARK VINA RESULT:      -6.9      6.726     15.462
REMARK  Name = C:\Users\Docking\Desktop\test protocol\1iep_ligandH.pdb
REMARK  8 active torsions:
REMARK  status: ('A' for Active; 'I' for Inactive)
REMARK    1  A    between atoms: _5  and  _11
REMARK    2  A    between atoms: _19  and  _21
REMARK    3  A    between atoms: _22  and  _66
REMARK    4  A    between atoms: _27  and  _30
REMARK    5  A    between atoms: _32  and  _33
REMARK    6  A    between atoms: _38  and  _43
REMARK    7  A    between atoms: _43  and  _46
REMARK    8  A    between atoms: _53  and  _55
REMARK                            x       y       z     vdW  Elec       q    Type
REMARK                         _______ _______ _______ _____ _____    ______ ____
ROOT
ATOM     10  C   UNL     1       7.936   0.638   7.290  0.00  0.00    +0.038 A 
ATOM     11  C   UNL     1       8.965  -0.166   7.843  0.00  0.00    +0.047 A 
ATOM     12  C   UNL     1       9.085  -0.351   9.281  0.00  0.00    +0.035 A 
ATOM     32  C   UNL     1       8.137   0.295  10.127  0.00  0.00    +0.024 A 
ATOM     33  C   UNL     1       7.085   1.117   9.582  0.00  0.00    +0.007 A 
ATOM     34  C   UNL     1       6.964   1.305   8.165  0.00  0.00    -0.029 A 
ATOM     35  C   UNL     1       5.820   2.202   7.636  0.00  0.00    +0.045 C 
ENDROOT
BRANCH  10   9
ATOM      4  C   UNL     1       8.903   3.002   3.227  0.00  0.00    +0.077 A 
ATOM      5  C   UNL     1       9.579   4.054   3.930  0.00  0.00    +0.048 A 
ATOM      6  C   UNL     1       9.649   3.952   5.337  0.00  0.00    +0.116 A 
ATOM      7  N   UNL     1       9.083   2.875   5.983  0.00  0.00    -0.223 NA
ATOM      8  C   UNL     1       8.437   1.878   5.275  0.00  0.00    +0.220 A 
ATOM      9  N   UNL     1       7.867   0.781   5.903  0.00  0.00    -0.283 N 
ATOM     36  H   UNL     1       7.393   0.071   5.345  0.00  0.00    +0.155 HD
ATOM     37  N   UNL     1       8.355   1.952   3.930  0.00  0.00    -0.214 NA
BRANCH   4   3
ATOM      1  C   UNL     1       7.455   3.384  -0.387  0.00  0.00    +0.020 A 
ATOM      2  C   UNL     1       7.554   3.441   1.053  0.00  0.00    +0.013 A 
ATOM      3  C   UNL     1       8.749   2.965   1.738  0.00  0.00    +0.019 A 
ATOM     38  C   UNL     1       9.835   2.432   0.929  0.00  0.00    +0.120 A 
ATOM     39  N   UNL     1       9.711   2.388  -0.456  0.00  0.00    -0.263 NA
ATOM     40  C   UNL     1       8.565   2.842  -1.126  0.00  0.00    +0.111 A 
ENDBRANCH   4   3
ENDBRANCH  10   9
BRANCH  12  13
ATOM     13  N   UNL     1      10.114  -1.150   9.900  0.00  0.00    -0.281 N 
ATOM     14  C   UNL     1      11.172  -0.717  10.682  0.00  0.00    +0.248 C 
ATOM     30  O   UNL     1      11.519   0.450  10.792  0.00  0.00    -0.270 OA
ATOM     31  H   UNL     1      10.055  -2.156   9.742  0.00  0.00    +0.155 HD
BRANCH  14  15
ATOM     15  C   UNL     1      11.971  -1.728  11.440  0.00  0.00    +0.037 A 
ATOM     16  C   UNL     1      12.580  -2.877  10.765  0.00  0.00    +0.013 A 
ATOM     17  C   UNL     1      13.331  -3.846  11.522  0.00  0.00    +0.005 A 
ATOM     18  C   UNL     1      13.477  -3.670  12.965  0.00  0.00    -0.033 A 
ATOM     28  C   UNL     1      12.867  -2.518  13.609  0.00  0.00    +0.005 A 
ATOM     29  C   UNL     1      12.129  -1.567  12.870  0.00  0.00    +0.013 A 
BRANCH  18  19
ATOM     19  C   UNL     1      14.243  -4.666  13.856  0.00  0.00    +0.119 C 
BRANCH  19  20
ATOM     20  N   UNL     1      13.517  -5.228  15.034  0.00  0.00    -0.302 NA
ATOM     21  C   UNL     1      14.415  -5.320  16.271  0.00  0.00    +0.066 C 
ATOM     22  C   UNL     1      13.633  -5.888  17.500  0.00  0.00    -0.064 C 
ATOM     23  N   UNL     1      13.058  -7.261  17.145  0.00  0.00    +0.379 N 
ATOM     24  C   UNL     1      12.372  -7.823  18.318  0.00  0.00    -0.096 C 
ATOM     25  H   UNL     1      13.914  -7.932  16.899  0.00  0.00    -0.082 HD
ATOM     26  C   UNL     1      12.167  -7.179  15.914  0.00  0.00    -0.064 C 
ATOM     27  C   UNL     1      12.945  -6.585  14.707  0.00  0.00    +0.066 C 
ENDBRANCH  19  20
ENDBRANCH  18  19
ENDBRANCH  14  15
ENDBRANCH  12  13
TORSDOF 6
ENDMDL
