MODEL 1
REMARK VINA RESULT:      -9.0      0.000      0.000
REMARK  Name = C:\Users\Docking\Desktop\test protocol\1iep_ligandH.pdb
REMARK  8 active torsions:
REMARK  status: ('A' for Active; 'I' for Inactive)
REMARK    1  A    between atoms: _5  and  _11
REMARK    2  A    between atoms: _19  and  _21
REMARK    3  A    between atoms: _22  and  _66
REMARK    4  A    between atoms: _27  and  _30
REMARK    5  A    between atoms: _32  and  _33
REMARK    6  A    between atoms: _38  and  _43
REMARK    7  A    between atoms: _43  and  _46
REMARK    8  A    between atoms: _53  and  _55
REMARK                            x       y       z     vdW  Elec       q    Type
REMARK                         _______ _______ _______ _____ _____    ______ ____
ROOT
ATOM     10  C   UNL     1      -8.291  15.132  10.140  0.00  0.00    +0.038 A 
ATOM     11  C   UNL     1      -8.548  15.523   8.801  0.00  0.00    +0.047 A 
ATOM     12  C   UNL     1      -7.972  14.794   7.681  0.00  0.00    +0.035 A 
ATOM     32  C   UNL     1      -7.142  13.670   7.962  0.00  0.00    +0.024 A 
ATOM     33  C   UNL     1      -6.870  13.260   9.317  0.00  0.00    +0.007 A 
ATOM     34  C   UNL     1      -7.433  13.976  10.425  0.00  0.00    -0.029 A 
ATOM     35  C   UNL     1      -7.102  13.496  11.857  0.00  0.00    +0.045 C 
ENDROOT
BRANCH  10   9
ATOM      4  C   UNL     1      -8.400  18.906  13.104  0.00  0.00    +0.077 A 
ATOM      5  C   UNL     1      -7.187  19.443  12.559  0.00  0.00    +0.048 A 
ATOM      6  C   UNL     1      -6.562  18.715  11.523  0.00  0.00    +0.116 A 
ATOM      7  N   UNL     1      -7.118  17.537  11.072  0.00  0.00    -0.223 NA
ATOM      8  C   UNL     1      -8.289  17.046  11.620  0.00  0.00    +0.220 A 
ATOM      9  N   UNL     1      -8.870  15.868  11.176  0.00  0.00    -0.283 N 
ATOM     36  H   UNL     1      -9.730  15.535  11.612  0.00  0.00    +0.155 HD
ATOM     37  N   UNL     1      -8.904  17.722  12.612  0.00  0.00    -0.214 NA
BRANCH   4   3
ATOM      1  C   UNL     1     -10.729  19.496  16.191  0.00  0.00    +0.020 A 
ATOM      2  C   UNL     1      -9.997  18.814  15.149  0.00  0.00    +0.013 A 
ATOM      3  C   UNL     1      -9.179  19.561  14.202  0.00  0.00    +0.019 A 
ATOM     38  C   UNL     1      -9.123  21.009  14.339  0.00  0.00    +0.120 A 
ATOM     39  N   UNL     1      -9.840  21.638  15.351  0.00  0.00    -0.263 NA
ATOM     40  C   UNL     1     -10.632  20.929  16.267  0.00  0.00    +0.111 A 
ENDBRANCH   4   3
ENDBRANCH  10   9
BRANCH  12  13
ATOM     13  N   UNL     1      -8.190  15.149   6.300  0.00  0.00    -0.281 N 
ATOM     14  C   UNL     1      -7.321  15.802   5.441  0.00  0.00    +0.248 C 
ATOM     30  O   UNL     1      -6.300  16.373   5.794  0.00  0.00    -0.270 OA
ATOM     31  H   UNL     1      -9.095  14.888   5.909  0.00  0.00    +0.155 HD
BRANCH  14  15
ATOM     15  C   UNL     1      -7.641  15.839   3.982  0.00  0.00    +0.037 A 
ATOM     16  C   UNL     1      -7.017  16.821   3.092  0.00  0.00    +0.013 A 
ATOM     17  C   UNL     1      -7.356  16.846   1.691  0.00  0.00    +0.005 A 
ATOM     18  C   UNL     1      -8.323  15.882   1.171  0.00  0.00    -0.033 A 
ATOM     28  C   UNL     1      -8.922  14.914   2.075  0.00  0.00    +0.005 A 
ATOM     29  C   UNL     1      -8.593  14.888   3.449  0.00  0.00    +0.013 A 
BRANCH  18  19
ATOM     19  C   UNL     1      -8.759  15.848  -0.306  0.00  0.00    +0.119 C 
BRANCH  19  20
ATOM     20  N   UNL     1     -10.226  15.807  -0.584  0.00  0.00    -0.302 NA
ATOM     21  C   UNL     1     -10.687  14.417  -1.032  0.00  0.00    +0.066 C 
ATOM     22  C   UNL     1     -12.227  14.385  -1.297  0.00  0.00    -0.064 C 
ATOM     23  N   UNL     1     -12.582  15.438  -2.349  0.00  0.00    +0.379 N 
ATOM     24  C   UNL     1     -14.021  15.372  -2.643  0.00  0.00    -0.096 C 
ATOM     25  H   UNL     1     -12.033  15.179  -3.284  0.00  0.00    -0.082 HD
ATOM     26  C   UNL     1     -12.125  16.823  -1.914  0.00  0.00    -0.064 C 
ATOM     27  C   UNL     1     -10.598  16.836  -1.624  0.00  0.00    +0.066 C 
ENDBRANCH  19  20
ENDBRANCH  18  19
ENDBRANCH  14  15
ENDBRANCH  12  13
TORSDOF 6
ENDMDL
MODEL 2
REMARK VINA RESULT:      -8.7      8.556     13.705
REMARK  Name = C:\Users\Docking\Desktop\test protocol\1iep_ligandH.pdb
REMARK  8 active torsions:
REMARK  status: ('A' for Active; 'I' for Inactive)
REMARK    1  A    between atoms: _5  and  _11
REMARK    2  A    between atoms: _19  and  _21
REMARK    3  A    between atoms: _22  and  _66
REMARK    4  A    between atoms: _27  and  _30
REMARK    5  A    between atoms: _32  and  _33
REMARK    6  A    between atoms: _38  and  _43
REMARK    7  A    between atoms: _43  and  _46
REMARK    8  A    between atoms: _53  and  _55
REMARK                            x       y       z     vdW  Elec       q    Type
REMARK                         _______ _______ _______ _____ _____    ______ ____
ROOT
ATOM     10  C   UNL     1     -17.351  22.626   6.172  0.00  0.00    +0.038 A 
ATOM     11  C   UNL     1     -15.986  22.241   6.174  0.00  0.00    +0.047 A 
ATOM     12  C   UNL     1     -15.088  22.663   7.238  0.00  0.00    +0.035 A 
ATOM     32  C   UNL     1     -15.614  23.474   8.285  0.00  0.00    +0.024 A 
ATOM     33  C   UNL     1     -16.999  23.875   8.298  0.00  0.00    +0.007 A 
ATOM     34  C   UNL     1     -17.889  23.465   7.250  0.00  0.00    -0.029 A 
ATOM     35  C   UNL     1     -19.363  23.930   7.311  0.00  0.00    +0.045 C 
ENDROOT
BRANCH  10   9
ATOM      4  C   UNL     1     -19.089  23.022   1.715  0.00  0.00    +0.077 A 
ATOM      5  C   UNL     1     -18.323  24.208   1.458  0.00  0.00    +0.048 A 
ATOM      6  C   UNL     1     -17.500  24.687   2.502  0.00  0.00    +0.116 A 
ATOM      7  N   UNL     1     -17.453  24.022   3.708  0.00  0.00    -0.223 NA
ATOM      8  C   UNL     1     -18.206  22.882   3.923  0.00  0.00    +0.220 A 
ATOM      9  N   UNL     1     -18.169  22.193   5.126  0.00  0.00    -0.283 N 
ATOM     36  H   UNL     1     -18.745  21.361   5.248  0.00  0.00    +0.155 HD
ATOM     37  N   UNL     1     -19.002  22.405   2.943  0.00  0.00    -0.214 NA
BRANCH   4   3
ATOM      1  C   UNL     1     -22.257  21.538  -0.035  0.00  0.00    +0.020 A 
ATOM      2  C   UNL     1     -21.417  22.151   0.969  0.00  0.00    +0.013 A 
ATOM      3  C   UNL     1     -20.003  22.391   0.711  0.00  0.00    +0.019 A 
ATOM     38  C   UNL     1     -19.466  21.999  -0.583  0.00  0.00    +0.120 A 
ATOM     39  N   UNL     1     -20.298  21.410  -1.529  0.00  0.00    -0.263 NA
ATOM     40  C   UNL     1     -21.660  21.172  -1.292  0.00  0.00    +0.111 A 
ENDBRANCH   4   3
ENDBRANCH  10   9
BRANCH  12  13
ATOM     13  N   UNL     1     -13.691  22.310   7.290  0.00  0.00    -0.281 N 
ATOM     14  C   UNL     1     -12.597  23.159   7.275  0.00  0.00    +0.248 C 
ATOM     30  O   UNL     1     -12.649  24.349   6.999  0.00  0.00    -0.270 OA
ATOM     31  H   UNL     1     -13.483  21.313   7.343  0.00  0.00    +0.155 HD
BRANCH  14  15
ATOM     15  C   UNL     1     -11.247  22.605   7.601  0.00  0.00    +0.037 A 
ATOM     16  C   UNL     1     -10.330  22.170   6.545  0.00  0.00    +0.013 A 
ATOM     17  C   UNL     1      -9.041  21.623   6.887  0.00  0.00    +0.005 A 
ATOM     18  C   UNL     1      -8.661  21.509   8.293  0.00  0.00    -0.033 A 
ATOM     28  C   UNL     1      -9.589  21.952   9.320  0.00  0.00    +0.005 A 
ATOM     29  C   UNL     1     -10.854  22.488   8.989  0.00  0.00    +0.013 A 
BRANCH  18  19
ATOM     19  C   UNL     1      -7.315  20.917   8.751  0.00  0.00    +0.119 C 
BRANCH  19  20
ATOM     20  N   UNL     1      -7.322  19.513   9.259  0.00  0.00    -0.302 NA
ATOM     21  C   UNL     1      -8.226  18.604   8.422  0.00  0.00    +0.066 C 
ATOM     22  C   UNL     1      -8.204  17.134   8.954  0.00  0.00    -0.064 C 
ATOM     23  N   UNL     1      -8.633  17.119  10.422  0.00  0.00    +0.379 N 
ATOM     24  C   UNL     1      -8.669  15.733  10.909  0.00  0.00    -0.096 C 
ATOM     25  H   UNL     1      -9.670  17.524  10.475  0.00  0.00    -0.082 HD
ATOM     26  C   UNL     1      -7.741  18.023  11.262  0.00  0.00    -0.064 C 
ATOM     27  C   UNL     1      -7.747  19.475  10.707  0.00  0.00    +0.066 C 
ENDBRANCH  19  20
ENDBRANCH  18  19
ENDBRANCH  14  15
ENDBRANCH  12  13
TORSDOF 6
ENDMDL
MODEL 3
REMARK VINA RESULT:      -8.7      1.813     12.814
REMARK  Name = C:\Users\Docking\Desktop\test protocol\1iep_ligandH.pdb
REMARK  8 active torsions:
REMARK  status: ('A' for Active; 'I' for Inactive)
REMARK    1  A    between atoms: _5  and  _11
REMARK    2  A    between atoms: _19  and  _21
REMARK    3  A    between atoms: _22  and  _66
REMARK    4  A    between atoms: _27  and  _30
REMARK    5  A    between atoms: _32  and  _33
REMARK    6  A    between atoms: _38  and  _43
REMARK    7  A    between atoms: _43  and  _46
REMARK    8  A    between atoms: _53  and  _55
REMARK                            x       y       z     vdW  Elec       q    Type
REMARK                         _______ _______ _______ _____ _____    ______ ____
ROOT
ATOM     10  C   UNL     1      -6.966  16.045   2.666  0.00  0.00    +0.038 A 
ATOM     11  C   UNL     1      -7.442  16.271   3.983  0.00  0.00    +0.047 A 
ATOM     12  C   UNL     1      -6.806  15.642   5.131  0.00  0.00    +0.035 A 
ATOM     32  C   UNL     1      -5.686  14.792   4.901  0.00  0.00    +0.024 A 
ATOM     33  C   UNL     1      -5.190  14.550   3.569  0.00  0.00    +0.007 A 
ATOM     34  C   UNL     1      -5.815  15.165   2.433  0.00  0.00    -0.029 A 
ATOM     35  C   UNL     1      -5.245  14.866   1.027  0.00  0.00    +0.045 C 
ENDROOT
BRANCH  10   9
ATOM      4  C   UNL     1     -10.299  16.162  -0.785  0.00  0.00    +0.077 A 
ATOM      5  C   UNL     1     -10.771  14.848  -0.456  0.00  0.00    +0.048 A 
ATOM      6  C   UNL     1     -10.125  14.173   0.603  0.00  0.00    +0.116 A 
ATOM      7  N   UNL     1      -9.085  14.777   1.276  0.00  0.00    -0.223 NA
ATOM      8  C   UNL     1      -8.653  16.045   0.933  0.00  0.00    +0.220 A 
ATOM      9  N   UNL     1      -7.615  16.674   1.601  0.00  0.00    -0.283 N 
ATOM     36  H   UNL     1      -7.321  17.607   1.312  0.00  0.00    +0.155 HD
ATOM     37  N   UNL     1      -9.253  16.710  -0.076  0.00  0.00    -0.214 NA
BRANCH   4   3
ATOM      1  C   UNL     1     -12.752  17.659  -3.439  0.00  0.00    +0.020 A 
ATOM      2  C   UNL     1     -12.237  16.819  -2.383  0.00  0.00    +0.013 A 
ATOM      3  C   UNL     1     -10.882  17.004  -1.878  0.00  0.00    +0.019 A 
ATOM     38  C   UNL     1     -10.069  18.057  -2.467  0.00  0.00    +0.120 A 
ATOM     39  N   UNL     1     -10.592  18.850  -3.484  0.00  0.00    -0.263 NA
ATOM     40  C   UNL     1     -11.893  18.680  -3.979  0.00  0.00    +0.111 A 
ENDBRANCH   4   3
ENDBRANCH  10   9
BRANCH  12  13
ATOM     13  N   UNL     1      -7.250  15.828   6.490  0.00  0.00    -0.281 N 
ATOM     14  C   UNL     1      -7.930  14.928   7.294  0.00  0.00    +0.248 C 
ATOM     30  O   UNL     1      -8.451  13.898   6.892  0.00  0.00    -0.270 OA
ATOM     31  H   UNL     1      -7.036  16.732   6.911  0.00  0.00    +0.155 HD
BRANCH  14  15
ATOM     15  C   UNL     1      -8.063  15.221   8.754  0.00  0.00    +0.037 A 
ATOM     16  C   UNL     1      -8.594  16.502   9.226  0.00  0.00    +0.013 A 
ATOM     17  C   UNL     1      -8.696  16.766  10.640  0.00  0.00    +0.005 A 
ATOM     18  C   UNL     1      -8.267  15.744  11.592  0.00  0.00    -0.033 A 
ATOM     28  C   UNL     1      -7.748  14.480  11.096  0.00  0.00    +0.005 A 
ATOM     29  C   UNL     1      -7.646  14.219   9.711  0.00  0.00    +0.013 A 
BRANCH  18  19
ATOM     19  C   UNL     1      -8.320  15.948  13.117  0.00  0.00    +0.119 C 
BRANCH  19  20
ATOM     20  N   UNL     1      -8.717  17.299  13.614  0.00  0.00    -0.302 NA
ATOM     21  C   UNL     1      -7.526  18.259  13.682  0.00  0.00    +0.066 C 
ATOM     22  C   UNL     1      -7.964  19.674  14.181  0.00  0.00    -0.064 C 
ATOM     23  N   UNL     1      -8.633  19.544  15.550  0.00  0.00    +0.379 N 
ATOM     24  C   UNL     1      -8.994  20.880  16.049  0.00  0.00    -0.096 C 
ATOM     25  H   UNL     1      -7.884  19.111  16.253  0.00  0.00    -0.082 HD
ATOM     26  C   UNL     1      -9.817  18.590  15.492  0.00  0.00    -0.064 C 
ATOM     27  C   UNL     1      -9.377  17.195  14.967  0.00  0.00    +0.066 C 
ENDBRANCH  19  20
ENDBRANCH  18  19
ENDBRANCH  14  15
ENDBRANCH  12  13
TORSDOF 6
ENDMDL
MODEL 4
REMARK VINA RESULT:      -8.6      7.447     15.460
REMARK  Name = C:\Users\Docking\Desktop\test protocol\1iep_ligandH.pdb
REMARK  8 active torsions:
REMARK  status: ('A' for Active; 'I' for Inactive)
REMARK    1  A    between atoms: _5  and  _11
REMARK    2  A    between atoms: _19  and  _21
REMARK    3  A    between atoms: _22  and  _66
REMARK    4  A    between atoms: _27  and  _30
REMARK    5  A    between atoms: _32  and  _33
REMARK    6  A    between atoms: _38  and  _43
REMARK    7  A    between atoms: _43  and  _46
REMARK    8  A    between atoms: _53  and  _55
REMARK                            x       y       z     vdW  Elec       q    Type
REMARK                         _______ _______ _______ _____ _____    ______ ____
ROOT
ATOM     10  C   UNL     1     -11.031  20.889  16.720  0.00  0.00    +0.038 A 
ATOM     11  C   UNL     1     -12.350  20.580  17.142  0.00  0.00    +0.047 A 
ATOM     12  C   UNL     1     -12.808  20.912  18.482  0.00  0.00    +0.035 A 
ATOM     32  C   UNL     1     -11.898  21.561  19.366  0.00  0.00    +0.024 A 
ATOM     33  C   UNL     1     -10.554  21.882  18.954  0.00  0.00    +0.007 A 
ATOM     34  C   UNL     1     -10.095  21.555  17.634  0.00  0.00    -0.029 A 
ATOM     35  C   UNL     1      -8.642  21.916  17.249  0.00  0.00    +0.045 C 
ENDROOT
BRANCH  10   9
ATOM      4  C   UNL     1      -8.919  17.950  13.569  0.00  0.00    +0.077 A 
ATOM      5  C   UNL     1      -8.530  17.029  14.598  0.00  0.00    +0.048 A 
ATOM      6  C   UNL     1      -8.887  17.353  15.926  0.00  0.00    +0.116 A 
ATOM      7  N   UNL     1      -9.581  18.513  16.193  0.00  0.00    -0.223 NA
ATOM      8  C   UNL     1      -9.939  19.380  15.177  0.00  0.00    +0.220 A 
ATOM      9  N   UNL     1     -10.644  20.548  15.422  0.00  0.00    -0.283 N 
ATOM     36  H   UNL     1     -10.883  21.165  14.646  0.00  0.00    +0.155 HD
ATOM     37  N   UNL     1      -9.609  19.094  13.901  0.00  0.00    -0.214 NA
BRANCH   4   3
ATOM      1  C   UNL     1      -8.502  16.326  10.035  0.00  0.00    +0.020 A 
ATOM      2  C   UNL     1      -8.808  16.469  11.439  0.00  0.00    +0.013 A 
ATOM      3  C   UNL     1      -8.617  17.746  12.116  0.00  0.00    +0.019 A 
ATOM     38  C   UNL     1      -8.113  18.866  11.337  0.00  0.00    +0.120 A 
ATOM     39  N   UNL     1      -7.825  18.698   9.986  0.00  0.00    -0.263 NA
ATOM     40  C   UNL     1      -8.003  17.474   9.324  0.00  0.00    +0.111 A 
ENDBRANCH   4   3
ENDBRANCH  10   9
BRANCH  12  13
ATOM     13  N   UNL     1     -14.132  20.615  18.969  0.00  0.00    -0.281 N 
ATOM     14  C   UNL     1     -15.274  21.391  18.858  0.00  0.00    +0.248 C 
ATOM     30  O   UNL     1     -15.283  22.562  18.507  0.00  0.00    -0.270 OA
ATOM     31  H   UNL     1     -14.241  19.725  19.455  0.00  0.00    +0.155 HD
BRANCH  14  15
ATOM     15  C   UNL     1     -16.597  20.784  19.200  0.00  0.00    +0.037 A 
ATOM     16  C   UNL     1     -17.851  21.482  18.910  0.00  0.00    +0.013 A 
ATOM     17  C   UNL     1     -19.112  20.881  19.266  0.00  0.00    +0.005 A 
ATOM     18  C   UNL     1     -19.124  19.572  19.914  0.00  0.00    -0.033 A 
ATOM     28  C   UNL     1     -17.865  18.899  20.184  0.00  0.00    +0.005 A 
ATOM     29  C   UNL     1     -16.627  19.485  19.838  0.00  0.00    +0.013 A 
BRANCH  18  19
ATOM     19  C   UNL     1     -20.422  18.865  20.347  0.00  0.00    +0.119 C 
BRANCH  19  20
ATOM     20  N   UNL     1     -21.065  17.949  19.358  0.00  0.00    -0.302 NA
ATOM     21  C   UNL     1     -22.586  18.119  19.321  0.00  0.00    +0.066 C 
ATOM     22  C   UNL     1     -23.240  17.169  18.265  0.00  0.00    -0.064 C 
ATOM     23  N   UNL     1     -22.864  15.721  18.584  0.00  0.00    +0.379 N 
ATOM     24  C   UNL     1     -23.524  14.821  17.628  0.00  0.00    -0.096 C 
ATOM     25  H   UNL     1     -23.260  15.485  19.600  0.00  0.00    -0.082 HD
ATOM     26  C   UNL     1     -21.353  15.544  18.626  0.00  0.00    -0.064 C 
ATOM     27  C   UNL     1     -20.711  16.513  19.657  0.00  0.00    +0.066 C 
ENDBRANCH  19  20
ENDBRANCH  18  19
ENDBRANCH  14  15
ENDBRANCH  12  13
TORSDOF 6
ENDMDL
MODEL 5
REMARK VINA RESULT:      -8.5      5.378     10.997
REMARK  Name = C:\Users\Docking\Desktop\test protocol\1iep_ligandH.pdb
REMARK  8 active torsions:
REMARK  status: ('A' for Active; 'I' for Inactive)
REMARK    1  A    between atoms: _5  and  _11
REMARK    2  A    between atoms: _19  and  _21
REMARK    3  A    between atoms: _22  and  _66
REMARK    4  A    between atoms: _27  and  _30
REMARK    5  A    between atoms: _32  and  _33
REMARK    6  A    between atoms: _38  and  _43
REMARK    7  A    between atoms: _43  and  _46
REMARK    8  A    between atoms: _53  and  _55
REMARK                            x       y       z     vdW  Elec       q    Type
REMARK                         _______ _______ _______ _____ _____    ______ ____
ROOT
ATOM     10  C   UNL     1     -12.486  21.221  18.223  0.00  0.00    +0.038 A 
ATOM     11  C   UNL     1     -12.103  20.491  17.069  0.00  0.00    +0.047 A 
ATOM     12  C   UNL     1     -10.840  19.772  17.018  0.00  0.00    +0.035 A 
ATOM     32  C   UNL     1      -9.991  19.815  18.162  0.00  0.00    +0.024 A 
ATOM     33  C   UNL     1     -10.363  20.554  19.343  0.00  0.00    +0.007 A 
ATOM     34  C   UNL     1     -11.607  21.267  19.398  0.00  0.00    -0.029 A 
ATOM     35  C   UNL     1     -11.952  22.047  20.688  0.00  0.00    +0.045 C 
ENDROOT
BRANCH  10   9
ATOM      4  C   UNL     1     -17.215  21.408  19.018  0.00  0.00    +0.077 A 
ATOM      5  C   UNL     1     -17.255  20.043  19.456  0.00  0.00    +0.048 A 
ATOM      6  C   UNL     1     -16.038  19.325  19.455  0.00  0.00    +0.116 A 
ATOM      7  N   UNL     1     -14.874  19.937  19.045  0.00  0.00    -0.223 NA
ATOM      8  C   UNL     1     -14.871  21.255  18.627  0.00  0.00    +0.220 A 
ATOM      9  N   UNL     1     -13.710  21.893  18.218  0.00  0.00    -0.283 N 
ATOM     36  H   UNL     1     -13.750  22.865  17.909  0.00  0.00    +0.155 HD
ATOM     37  N   UNL     1     -16.020  21.962  18.617  0.00  0.00    -0.214 NA
BRANCH   4   3
ATOM      1  C   UNL     1     -19.831  24.086  17.883  0.00  0.00    +0.020 A 
ATOM      2  C   UNL     1     -18.653  23.250  17.886  0.00  0.00    +0.013 A 
ATOM      3  C   UNL     1     -18.418  22.298  18.965  0.00  0.00    +0.019 A 
ATOM     38  C   UNL     1     -19.403  22.217  20.033  0.00  0.00    +0.120 A 
ATOM     39  N   UNL     1     -20.527  23.036  20.004  0.00  0.00    -0.263 NA
ATOM     40  C   UNL     1     -20.763  23.956  18.972  0.00  0.00    +0.111 A 
ENDBRANCH   4   3
ENDBRANCH  10   9
BRANCH  12  13
ATOM     13  N   UNL     1     -10.395  19.020  15.871  0.00  0.00    -0.281 N 
ATOM     14  C   UNL     1      -9.685  19.480  14.774  0.00  0.00    +0.248 C 
ATOM     30  O   UNL     1      -9.509  20.661  14.511  0.00  0.00    -0.270 OA
ATOM     31  H   UNL     1     -10.632  18.028  15.867  0.00  0.00    +0.155 HD
BRANCH  14  15
ATOM     15  C   UNL     1      -9.098  18.486  13.825  0.00  0.00    +0.037 A 
ATOM     16  C   UNL     1      -8.738  18.864  12.456  0.00  0.00    +0.013 A 
ATOM     17  C   UNL     1      -8.189  17.881  11.555  0.00  0.00    +0.005 A 
ATOM     18  C   UNL     1      -7.995  16.511  12.022  0.00  0.00    -0.033 A 
ATOM     28  C   UNL     1      -8.356  16.165  13.387  0.00  0.00    +0.005 A 
ATOM     29  C   UNL     1      -8.895  17.125  14.272  0.00  0.00    +0.013 A 
BRANCH  18  19
ATOM     19  C   UNL     1      -7.436  15.392  11.124  0.00  0.00    +0.119 C 
BRANCH  19  20
ATOM     20  N   UNL     1      -7.824  15.415   9.682  0.00  0.00    -0.302 NA
ATOM     21  C   UNL     1      -8.099  14.010   9.139  0.00  0.00    +0.066 C 
ATOM     22  C   UNL     1      -8.525  14.054   7.635  0.00  0.00    -0.064 C 
ATOM     23  N   UNL     1      -7.433  14.746   6.818  0.00  0.00    +0.379 N 
ATOM     24  C   UNL     1      -7.805  14.738   5.396  0.00  0.00    -0.096 C 
ATOM     25  H   UNL     1      -6.499  14.148   6.927  0.00  0.00    -0.082 HD
ATOM     26  C   UNL     1      -7.152  16.143   7.353  0.00  0.00    -0.064 C 
ATOM     27  C   UNL     1      -6.757  16.091   8.856  0.00  0.00    +0.066 C 
ENDBRANCH  19  20
ENDBRANCH  18  19
ENDBRANCH  14  15
ENDBRANCH  12  13
TORSDOF 6
ENDMDL
