MODEL 1
REMARK VINA RESULT:      -7.9      0.000      0.000
REMARK  Name = C:\Users\Docking\Desktop\test protocol\1iep_ligandH.pdb
REMARK  8 active torsions:
REMARK  status: ('A' for Active; 'I' for Inactive)
REMARK    1  A    between atoms: _5  and  _11
REMARK    2  A    between atoms: _19  and  _21
REMARK    3  A    between atoms: _22  and  _66
REMARK    4  A    between atoms: _27  and  _30
REMARK    5  A    between atoms: _32  and  _33
REMARK    6  A    between atoms: _38  and  _43
REMARK    7  A    between atoms: _43  and  _46
REMARK    8  A    between atoms: _53  and  _55
REMARK                            x       y       z     vdW  Elec       q    Type
REMARK                         _______ _______ _______ _____ _____    ______ ____
ROOT
ATOM     10  C   UNL     1       3.510  40.176  22.566  0.00  0.00    +0.038 A 
ATOM     11  C   UNL     1       3.483  41.536  22.966  0.00  0.00    +0.047 A 
ATOM     12  C   UNL     1       4.252  41.999  24.111  0.00  0.00    +0.035 A 
ATOM     32  C   UNL     1       5.039  41.049  24.825  0.00  0.00    +0.024 A 
ATOM     33  C   UNL     1       5.078  39.662  24.432  0.00  0.00    +0.007 A 
ATOM     34  C   UNL     1       4.320  39.199  23.305  0.00  0.00    -0.029 A 
ATOM     35  C   UNL     1       4.393  37.700  22.933  0.00  0.00    +0.045 C 
ENDROOT
BRANCH  10   9
ATOM      4  C   UNL     1       2.795  39.846  17.831  0.00  0.00    +0.077 A 
ATOM      5  C   UNL     1       4.021  40.532  17.538  0.00  0.00    +0.048 A 
ATOM      6  C   UNL     1       4.803  40.959  18.635  0.00  0.00    +0.116 A 
ATOM      7  N   UNL     1       4.381  40.713  19.923  0.00  0.00    -0.223 NA
ATOM      8  C   UNL     1       3.193  40.051  20.171  0.00  0.00    +0.220 A 
ATOM      9  N   UNL     1       2.753  39.786  21.459  0.00  0.00    -0.283 N 
ATOM     36  H   UNL     1       1.867  39.301  21.599  0.00  0.00    +0.155 HD
ATOM     37  N   UNL     1       2.427  39.634  19.141  0.00  0.00    -0.214 NA
BRANCH   4   3
ATOM      1  C   UNL     1      -0.069  39.596  15.178  0.00  0.00    +0.020 A 
ATOM      2  C   UNL     1       0.806  40.143  16.190  0.00  0.00    +0.013 A 
ATOM      3  C   UNL     1       1.862  39.330  16.780  0.00  0.00    +0.019 A 
ATOM     38  C   UNL     1       2.009  37.958  16.319  0.00  0.00    +0.120 A 
ATOM     39  N   UNL     1       1.151  37.458  15.344  0.00  0.00    -0.263 NA
ATOM     40  C   UNL     1       0.130  38.230  14.771  0.00  0.00    +0.111 A 
ENDBRANCH   4   3
ENDBRANCH  10   9
BRANCH  12  13
ATOM     13  N   UNL     1       4.257  43.366  24.569  0.00  0.00    -0.281 N 
ATOM     14  C   UNL     1       3.196  44.098  25.077  0.00  0.00    +0.248 C 
ATOM     30  O   UNL     1       2.026  43.753  25.014  0.00  0.00    -0.270 OA
ATOM     31  H   UNL     1       5.151  43.853  24.512  0.00  0.00    +0.155 HD
BRANCH  14  15
ATOM     15  C   UNL     1       3.475  45.411  25.736  0.00  0.00    +0.037 A 
ATOM     16  C   UNL     1       4.030  45.478  27.090  0.00  0.00    +0.013 A 
ATOM     17  C   UNL     1       4.273  46.757  27.709  0.00  0.00    +0.005 A 
ATOM     18  C   UNL     1       3.962  47.980  26.973  0.00  0.00    -0.033 A 
ATOM     28  C   UNL     1       3.416  47.884  25.629  0.00  0.00    +0.005 A 
ATOM     29  C   UNL     1       3.175  46.632  25.019  0.00  0.00    +0.013 A 
BRANCH  18  19
ATOM     19  C   UNL     1       4.169  49.387  27.563  0.00  0.00    +0.119 C 
BRANCH  19  20
ATOM     20  N   UNL     1       2.970  50.273  27.657  0.00  0.00    -0.302 NA
ATOM     21  C   UNL     1       3.286  51.596  28.359  0.00  0.00    +0.066 C 
ATOM     22  C   UNL     1       2.026  52.519  28.429  0.00  0.00    -0.064 C 
ATOM     23  N   UNL     1       0.896  51.781  29.148  0.00  0.00    +0.379 N 
ATOM     24  C   UNL     1      -0.271  52.667  29.266  0.00  0.00    -0.096 C 
ATOM     25  H   UNL     1       1.248  51.546  30.179  0.00  0.00    -0.082 HD
ATOM     26  C   UNL     1       0.576  50.463  28.457  0.00  0.00    -0.064 C 
ATOM     27  C   UNL     1       1.842  49.565  28.367  0.00  0.00    +0.066 C 
ENDBRANCH  19  20
ENDBRANCH  18  19
ENDBRANCH  14  15
ENDBRANCH  12  13
TORSDOF 6
ENDMDL
MODEL 2
REMARK VINA RESULT:      -7.8      3.339     13.917
REMARK  Name = C:\Users\Docking\Desktop\test protocol\1iep_ligandH.pdb
REMARK  8 active torsions:
REMARK  status: ('A' for Active; 'I' for Inactive)
REMARK    1  A    between atoms: _5  and  _11
REMARK    2  A    between atoms: _19  and  _21
REMARK    3  A    between atoms: _22  and  _66
REMARK    4  A    between atoms: _27  and  _30
REMARK    5  A    between atoms: _32  and  _33
REMARK    6  A    between atoms: _38  and  _43
REMARK    7  A    between atoms: _43  and  _46
REMARK    8  A    between atoms: _53  and  _55
REMARK                            x       y       z     vdW  Elec       q    Type
REMARK                         _______ _______ _______ _____ _____    ______ ____
ROOT
ATOM     10  C   UNL     1       0.954  50.437  28.293  0.00  0.00    +0.038 A 
ATOM     11  C   UNL     1       1.193  49.180  27.679  0.00  0.00    +0.047 A 
ATOM     12  C   UNL     1       2.515  48.820  27.190  0.00  0.00    +0.035 A 
ATOM     32  C   UNL     1       3.572  49.763  27.345  0.00  0.00    +0.024 A 
ATOM     33  C   UNL     1       3.347  51.045  27.966  0.00  0.00    +0.007 A 
ATOM     34  C   UNL     1       2.045  51.407  28.447  0.00  0.00    -0.029 A 
ATOM     35  C   UNL     1       1.860  52.798  29.098  0.00  0.00    +0.045 C 
ENDROOT
BRANCH  10   9
ATOM      4  C   UNL     1      -2.446  50.439  31.680  0.00  0.00    +0.077 A 
ATOM      5  C   UNL     1      -1.591  49.776  32.622  0.00  0.00    +0.048 A 
ATOM      6  C   UNL     1      -0.286  49.445  32.193  0.00  0.00    +0.116 A 
ATOM      7  N   UNL     1       0.123  49.759  30.915  0.00  0.00    -0.223 NA
ATOM      8  C   UNL     1      -0.727  50.397  30.031  0.00  0.00    +0.220 A 
ATOM      9  N   UNL     1      -0.335  50.730  28.744  0.00  0.00    -0.283 N 
ATOM     36  H   UNL     1      -0.994  51.194  28.119  0.00  0.00    +0.155 HD
ATOM     37  N   UNL     1      -1.979  50.723  30.416  0.00  0.00    -0.214 NA
BRANCH   4   3
ATOM      1  C   UNL     1      -5.838  52.388  31.715  0.00  0.00    +0.020 A 
ATOM      2  C   UNL     1      -4.477  52.028  31.386  0.00  0.00    +0.013 A 
ATOM      3  C   UNL     1      -3.851  50.857  31.985  0.00  0.00    +0.019 A 
ATOM     38  C   UNL     1      -4.635  50.063  32.920  0.00  0.00    +0.120 A 
ATOM     39  N   UNL     1      -5.942  50.434  33.218  0.00  0.00    -0.263 NA
ATOM     40  C   UNL     1      -6.555  51.561  32.649  0.00  0.00    +0.111 A 
ENDBRANCH   4   3
ENDBRANCH  10   9
BRANCH  12  13
ATOM     13  N   UNL     1       2.815  47.563  26.552  0.00  0.00    -0.281 N 
ATOM     14  C   UNL     1       2.899  46.310  27.136  0.00  0.00    +0.248 C 
ATOM     30  O   UNL     1       2.939  46.110  28.341  0.00  0.00    -0.270 OA
ATOM     31  H   UNL     1       2.986  47.601  25.547  0.00  0.00    +0.155 HD
BRANCH  14  15
ATOM     15  C   UNL     1       2.962  45.105  26.254  0.00  0.00    +0.037 A 
ATOM     16  C   UNL     1       1.806  44.682  25.460  0.00  0.00    +0.013 A 
ATOM     17  C   UNL     1       1.888  43.506  24.631  0.00  0.00    +0.005 A 
ATOM     18  C   UNL     1       3.134  42.744  24.591  0.00  0.00    -0.033 A 
ATOM     28  C   UNL     1       4.268  43.189  25.385  0.00  0.00    +0.005 A 
ATOM     29  C   UNL     1       4.190  44.340  26.200  0.00  0.00    +0.013 A 
BRANCH  18  19
ATOM     19  C   UNL     1       3.306  41.465  23.751  0.00  0.00    +0.119 C 
BRANCH  19  20
ATOM     20  N   UNL     1       4.340  41.488  22.674  0.00  0.00    -0.302 NA
ATOM     21  C   UNL     1       3.887  40.723  21.426  0.00  0.00    +0.066 C 
ATOM     22  C   UNL     1       4.972  40.776  20.302  0.00  0.00    -0.064 C 
ATOM     23  N   UNL     1       6.287  40.208  20.838  0.00  0.00    +0.379 N 
ATOM     24  C   UNL     1       7.293  40.202  19.765  0.00  0.00    -0.096 C 
ATOM     25  H   UNL     1       6.102  39.149  21.133  0.00  0.00    -0.082 HD
ATOM     26  C   UNL     1       6.743  40.960  22.080  0.00  0.00    -0.064 C 
ATOM     27  C   UNL     1       5.646  40.926  23.180  0.00  0.00    +0.066 C 
ENDBRANCH  19  20
ENDBRANCH  18  19
ENDBRANCH  14  15
ENDBRANCH  12  13
TORSDOF 6
ENDMDL
MODEL 3
REMARK VINA RESULT:      -7.8      8.304     13.268
REMARK  Name = C:\Users\Docking\Desktop\test protocol\1iep_ligandH.pdb
REMARK  8 active torsions:
REMARK  status: ('A' for Active; 'I' for Inactive)
REMARK    1  A    between atoms: _5  and  _11
REMARK    2  A    between atoms: _19  and  _21
REMARK    3  A    between atoms: _22  and  _66
REMARK    4  A    between atoms: _27  and  _30
REMARK    5  A    between atoms: _32  and  _33
REMARK    6  A    between atoms: _38  and  _43
REMARK    7  A    between atoms: _43  and  _46
REMARK    8  A    between atoms: _53  and  _55
REMARK                            x       y       z     vdW  Elec       q    Type
REMARK                         _______ _______ _______ _____ _____    ______ ____
ROOT
ATOM     10  C   UNL     1       1.985  48.228  27.576  0.00  0.00    +0.038 A 
ATOM     11  C   UNL     1       3.213  47.997  28.247  0.00  0.00    +0.047 A 
ATOM     12  C   UNL     1       4.430  47.700  27.508  0.00  0.00    +0.035 A 
ATOM     32  C   UNL     1       4.361  47.647  26.086  0.00  0.00    +0.024 A 
ATOM     33  C   UNL     1       3.121  47.878  25.387  0.00  0.00    +0.007 A 
ATOM     34  C   UNL     1       1.917  48.169  26.111  0.00  0.00    -0.029 A 
ATOM     35  C   UNL     1       0.614  48.402  25.311  0.00  0.00    +0.045 C 
ENDROOT
BRANCH  10   9
ATOM      4  C   UNL     1      -0.969  51.288  29.799  0.00  0.00    +0.077 A 
ATOM      5  C   UNL     1      -0.164  52.419  29.440  0.00  0.00    +0.048 A 
ATOM      6  C   UNL     1       1.007  52.170  28.689  0.00  0.00    +0.116 A 
ATOM      7  N   UNL     1       1.337  50.881  28.329  0.00  0.00    -0.223 NA
ATOM      8  C   UNL     1       0.539  49.812  28.694  0.00  0.00    +0.220 A 
ATOM      9  N   UNL     1       0.847  48.509  28.336  0.00  0.00    -0.283 N 
ATOM     36  H   UNL     1       0.237  47.747  28.631  0.00  0.00    +0.155 HD
ATOM     37  N   UNL     1      -0.583  50.024  29.412  0.00  0.00    -0.214 NA
BRANCH   4   3
ATOM      1  C   UNL     1      -3.786  50.648  32.437  0.00  0.00    +0.020 A 
ATOM      2  C   UNL     1      -2.548  50.508  31.707  0.00  0.00    +0.013 A 
ATOM      3  C   UNL     1      -2.238  51.390  30.589  0.00  0.00    +0.019 A 
ATOM     38  C   UNL     1      -3.210  52.412  30.233  0.00  0.00    +0.120 A 
ATOM     39  N   UNL     1      -4.395  52.523  30.953  0.00  0.00    -0.263 NA
ATOM     40  C   UNL     1      -4.705  51.679  32.030  0.00  0.00    +0.111 A 
ENDBRANCH   4   3
ENDBRANCH  10   9
BRANCH  12  13
ATOM     13  N   UNL     1       5.704  47.449  28.135  0.00  0.00    -0.281 N 
ATOM     14  C   UNL     1       6.101  47.780  29.421  0.00  0.00    +0.248 C 
ATOM     30  O   UNL     1       5.488  48.536  30.160  0.00  0.00    -0.270 OA
ATOM     31  H   UNL     1       6.398  46.969  27.562  0.00  0.00    +0.155 HD
BRANCH  14  15
ATOM     15  C   UNL     1       7.368  47.197  29.958  0.00  0.00    +0.037 A 
ATOM     16  C   UNL     1       7.964  45.997  29.366  0.00  0.00    +0.013 A 
ATOM     17  C   UNL     1       9.178  45.446  29.914  0.00  0.00    +0.005 A 
ATOM     18  C   UNL     1       9.805  46.097  31.062  0.00  0.00    -0.033 A 
ATOM     28  C   UNL     1       9.195  47.290  31.627  0.00  0.00    +0.005 A 
ATOM     29  C   UNL     1       8.005  47.832  31.092  0.00  0.00    +0.013 A 
BRANCH  18  19
ATOM     19  C   UNL     1      11.090  45.567  31.725  0.00  0.00    +0.119 C 
BRANCH  19  20
ATOM     20  N   UNL     1      12.292  46.452  31.692  0.00  0.00    -0.302 NA
ATOM     21  C   UNL     1      13.469  45.796  30.964  0.00  0.00    +0.066 C 
ATOM     22  C   UNL     1      14.711  46.745  30.919  0.00  0.00    -0.064 C 
ATOM     23  N   UNL     1      15.104  47.133  32.346  0.00  0.00    +0.379 N 
ATOM     24  C   UNL     1      16.307  47.978  32.310  0.00  0.00    -0.096 C 
ATOM     25  H   UNL     1      15.365  46.196  32.891  0.00  0.00    -0.082 HD
ATOM     26  C   UNL     1      13.939  47.784  33.078  0.00  0.00    -0.064 C 
ATOM     27  C   UNL     1      12.701  46.844  33.091  0.00  0.00    +0.066 C 
ENDBRANCH  19  20
ENDBRANCH  18  19
ENDBRANCH  14  15
ENDBRANCH  12  13
TORSDOF 6
ENDMDL
MODEL 4
REMARK VINA RESULT:      -7.5      1.045      1.492
REMARK  Name = C:\Users\Docking\Desktop\test protocol\1iep_ligandH.pdb
REMARK  8 active torsions:
REMARK  status: ('A' for Active; 'I' for Inactive)
REMARK    1  A    between atoms: _5  and  _11
REMARK    2  A    between atoms: _19  and  _21
REMARK    3  A    between atoms: _22  and  _66
REMARK    4  A    between atoms: _27  and  _30
REMARK    5  A    between atoms: _32  and  _33
REMARK    6  A    between atoms: _38  and  _43
REMARK    7  A    between atoms: _43  and  _46
REMARK    8  A    between atoms: _53  and  _55
REMARK                            x       y       z     vdW  Elec       q    Type
REMARK                         _______ _______ _______ _____ _____    ______ ____
ROOT
ATOM     10  C   UNL     1       4.303  40.072  22.212  0.00  0.00    +0.038 A 
ATOM     11  C   UNL     1       4.340  41.427  22.632  0.00  0.00    +0.047 A 
ATOM     12  C   UNL     1       4.340  41.777  24.043  0.00  0.00    +0.035 A 
ATOM     32  C   UNL     1       4.305  40.722  25.001  0.00  0.00    +0.024 A 
ATOM     33  C   UNL     1       4.266  39.340  24.592  0.00  0.00    +0.007 A 
ATOM     34  C   UNL     1       4.263  38.988  23.200  0.00  0.00    -0.029 A 
ATOM     35  C   UNL     1       4.213  37.490  22.819  0.00  0.00    +0.045 C 
ENDROOT
BRANCH  10   9
ATOM      4  C   UNL     1       2.045  39.285  18.050  0.00  0.00    +0.077 A 
ATOM      5  C   UNL     1       0.753  39.414  18.658  0.00  0.00    +0.048 A 
ATOM      6  C   UNL     1       0.712  39.676  20.046  0.00  0.00    +0.116 A 
ATOM      7  N   UNL     1       1.884  39.798  20.762  0.00  0.00    -0.223 NA
ATOM      8  C   UNL     1       3.114  39.667  20.144  0.00  0.00    +0.220 A 
ATOM      9  N   UNL     1       4.304  39.793  20.843  0.00  0.00    -0.283 N 
ATOM     36  H   UNL     1       5.191  39.682  20.352  0.00  0.00    +0.155 HD
ATOM     37  N   UNL     1       3.179  39.415  18.820  0.00  0.00    -0.214 NA
BRANCH   4   3
ATOM      1  C   UNL     1       3.640  39.046  14.486  0.00  0.00    +0.020 A 
ATOM      2  C   UNL     1       3.492  39.331  15.895  0.00  0.00    +0.013 A 
ATOM      3  C   UNL     1       2.252  39.012  16.592  0.00  0.00    +0.019 A 
ATOM     38  C   UNL     1       1.175  38.399  15.830  0.00  0.00    +0.120 A 
ATOM     39  N   UNL     1       1.347  38.138  14.474  0.00  0.00    -0.263 NA
ATOM     40  C   UNL     1       2.534  38.442  13.792  0.00  0.00    +0.111 A 
ENDBRANCH   4   3
ENDBRANCH  10   9
BRANCH  12  13
ATOM     13  N   UNL     1       4.369  43.134  24.530  0.00  0.00    -0.281 N 
ATOM     14  C   UNL     1       3.298  43.925  24.911  0.00  0.00    +0.248 C 
ATOM     30  O   UNL     1       2.127  43.656  24.688  0.00  0.00    -0.270 OA
ATOM     31  H   UNL     1       5.292  43.564  24.601  0.00  0.00    +0.155 HD
BRANCH  14  15
ATOM     15  C   UNL     1       3.567  45.207  25.631  0.00  0.00    +0.037 A 
ATOM     16  C   UNL     1       4.146  45.216  26.976  0.00  0.00    +0.013 A 
ATOM     17  C   UNL     1       4.380  46.466  27.655  0.00  0.00    +0.005 A 
ATOM     18  C   UNL     1       4.034  47.718  26.987  0.00  0.00    -0.033 A 
ATOM     28  C   UNL     1       3.465  47.681  25.650  0.00  0.00    +0.005 A 
ATOM     29  C   UNL     1       3.234  46.457  24.982  0.00  0.00    +0.013 A 
BRANCH  18  19
ATOM     19  C   UNL     1       4.229  49.098  27.644  0.00  0.00    +0.119 C 
BRANCH  19  20
ATOM     20  N   UNL     1       3.040  49.999  27.708  0.00  0.00    -0.302 NA
ATOM     21  C   UNL     1       3.394  51.378  28.272  0.00  0.00    +0.066 C 
ATOM     22  C   UNL     1       2.144  52.315  28.310  0.00  0.00    -0.064 C 
ATOM     23  N   UNL     1       1.041  51.657  29.141  0.00  0.00    +0.379 N 
ATOM     24  C   UNL     1      -0.115  52.561  29.227  0.00  0.00    -0.096 C 
ATOM     25  H   UNL     1       1.436  51.513  30.173  0.00  0.00    -0.082 HD
ATOM     26  C   UNL     1       0.685  50.284  28.588  0.00  0.00    -0.064 C 
ATOM     27  C   UNL     1       1.940  49.370  28.527  0.00  0.00    +0.066 C 
ENDBRANCH  19  20
ENDBRANCH  18  19
ENDBRANCH  14  15
ENDBRANCH  12  13
TORSDOF 6
ENDMDL
MODEL 5
REMARK VINA RESULT:      -7.4     20.254     23.077
REMARK  Name = C:\Users\Docking\Desktop\test protocol\1iep_ligandH.pdb
REMARK  8 active torsions:
REMARK  status: ('A' for Active; 'I' for Inactive)
REMARK    1  A    between atoms: _5  and  _11
REMARK    2  A    between atoms: _19  and  _21
REMARK    3  A    between atoms: _22  and  _66
REMARK    4  A    between atoms: _27  and  _30
REMARK    5  A    between atoms: _32  and  _33
REMARK    6  A    between atoms: _38  and  _43
REMARK    7  A    between atoms: _43  and  _46
REMARK    8  A    between atoms: _53  and  _55
REMARK                            x       y       z     vdW  Elec       q    Type
REMARK                         _______ _______ _______ _____ _____    ______ ____
ROOT
ATOM     10  C   UNL     1      -4.895  61.191  34.736  0.00  0.00    +0.038 A 
ATOM     11  C   UNL     1      -3.581  60.663  34.804  0.00  0.00    +0.047 A 
ATOM     12  C   UNL     1      -2.424  61.536  34.930  0.00  0.00    +0.035 A 
ATOM     32  C   UNL     1      -2.644  62.943  34.986  0.00  0.00    +0.024 A 
ATOM     33  C   UNL     1      -3.973  63.498  34.917  0.00  0.00    +0.007 A 
ATOM     34  C   UNL     1      -5.117  62.641  34.790  0.00  0.00    -0.029 A 
ATOM     35  C   UNL     1      -6.519  63.290  34.714  0.00  0.00    +0.045 C 
ENDROOT
BRANCH  10   9
ATOM      4  C   UNL     1      -8.538  58.679  36.594  0.00  0.00    +0.077 A 
ATOM      5  C   UNL     1      -8.262  59.147  37.922  0.00  0.00    +0.048 A 
ATOM      6  C   UNL     1      -7.169  60.028  38.085  0.00  0.00    +0.116 A 
ATOM      7  N   UNL     1      -6.416  60.406  36.994  0.00  0.00    -0.223 NA
ATOM      8  C   UNL     1      -6.708  59.934  35.728  0.00  0.00    +0.220 A 
ATOM      9  N   UNL     1      -5.969  60.306  34.616  0.00  0.00    -0.283 N 
ATOM     36  H   UNL     1      -6.212  59.930  33.699  0.00  0.00    +0.155 HD
ATOM     37  N   UNL     1      -7.746  59.090  35.546  0.00  0.00    -0.214 NA
BRANCH   4   3
ATOM      1  C   UNL     1     -11.772  56.491  36.838  0.00  0.00    +0.020 A 
ATOM      2  C   UNL     1     -10.709  57.396  37.211  0.00  0.00    +0.013 A 
ATOM      3  C   UNL     1      -9.661  57.746  36.261  0.00  0.00    +0.019 A 
ATOM     38  C   UNL     1      -9.718  57.159  34.931  0.00  0.00    +0.120 A 
ATOM     39  N   UNL     1     -10.752  56.289  34.601  0.00  0.00    -0.263 NA
ATOM     40  C   UNL     1     -11.766  55.943  35.507  0.00  0.00    +0.111 A 
ENDBRANCH   4   3
ENDBRANCH  10   9
BRANCH  12  13
ATOM     13  N   UNL     1      -1.066  61.058  34.996  0.00  0.00    -0.281 N 
ATOM     14  C   UNL     1      -0.422  60.468  36.071  0.00  0.00    +0.248 C 
ATOM     30  O   UNL     1      -0.855  60.456  37.214  0.00  0.00    -0.270 OA
ATOM     31  H   UNL     1      -0.511  61.168  34.147  0.00  0.00    +0.155 HD
BRANCH  14  15
ATOM     15  C   UNL     1       0.901  59.808  35.848  0.00  0.00    +0.037 A 
ATOM     16  C   UNL     1       1.321  58.656  36.650  0.00  0.00    +0.013 A 
ATOM     17  C   UNL     1       2.609  58.049  36.425  0.00  0.00    +0.005 A 
ATOM     18  C   UNL     1       3.486  58.594  35.391  0.00  0.00    -0.033 A 
ATOM     28  C   UNL     1       3.042  59.734  34.607  0.00  0.00    +0.005 A 
ATOM     29  C   UNL     1       1.781  60.332  34.825  0.00  0.00    +0.013 A 
BRANCH  18  19
ATOM     19  C   UNL     1       4.886  58.023  35.097  0.00  0.00    +0.119 C 
BRANCH  19  20
ATOM     20  N   UNL     1       5.991  58.411  36.024  0.00  0.00    -0.302 NA
ATOM     21  C   UNL     1       6.759  59.637  35.521  0.00  0.00    +0.066 C 
ATOM     22  C   UNL     1       7.897  60.042  36.513  0.00  0.00    -0.064 C 
ATOM     23  N   UNL     1       8.842  58.856  36.713  0.00  0.00    +0.379 N 
ATOM     24  C   UNL     1       9.945  59.253  37.600  0.00  0.00    -0.096 C 
ATOM     25  H   UNL     1       9.280  58.603  35.720  0.00  0.00    -0.082 HD
ATOM     26  C   UNL     1       8.086  57.632  37.211  0.00  0.00    -0.064 C 
ATOM     27  C   UNL     1       6.939  57.255  36.232  0.00  0.00    +0.066 C 
ENDBRANCH  19  20
ENDBRANCH  18  19
ENDBRANCH  14  15
ENDBRANCH  12  13
TORSDOF 6
ENDMDL
