MODEL 1
REMARK VINA RESULT:      -8.2      0.000      0.000
REMARK  Name = C:\Users\Docking\Desktop\test protocol\1iep_ligandH.pdb
REMARK  8 active torsions:
REMARK  status: ('A' for Active; 'I' for Inactive)
REMARK    1  A    between atoms: _5  and  _11
REMARK    2  A    between atoms: _19  and  _21
REMARK    3  A    between atoms: _22  and  _66
REMARK    4  A    between atoms: _27  and  _30
REMARK    5  A    between atoms: _32  and  _33
REMARK    6  A    between atoms: _38  and  _43
REMARK    7  A    between atoms: _43  and  _46
REMARK    8  A    between atoms: _53  and  _55
REMARK                            x       y       z     vdW  Elec       q    Type
REMARK                         _______ _______ _______ _____ _____    ______ ____
ROOT
ATOM     10  C   UNL     1       2.778 -11.574  24.480  0.00  0.00    +0.038 A 
ATOM     11  C   UNL     1       3.275 -10.952  23.306  0.00  0.00    +0.047 A 
ATOM     12  C   UNL     1       4.655 -11.137  22.883  0.00  0.00    +0.035 A 
ATOM     32  C   UNL     1       5.500 -11.964  23.678  0.00  0.00    +0.024 A 
ATOM     33  C   UNL     1       5.011 -12.603  24.875  0.00  0.00    +0.007 A 
ATOM     34  C   UNL     1       3.652 -12.423  25.298  0.00  0.00    -0.029 A 
ATOM     35  C   UNL     1       3.185 -13.127  26.593  0.00  0.00    +0.045 C 
ENDROOT
BRANCH  10   9
ATOM      4  C   UNL     1      -0.791  -8.770  26.041  0.00  0.00    +0.077 A 
ATOM      5  C   UNL     1       0.080  -7.637  26.178  0.00  0.00    +0.048 A 
ATOM      6  C   UNL     1       1.440  -7.821  25.843  0.00  0.00    +0.116 A 
ATOM      7  N   UNL     1       1.886  -9.049  25.405  0.00  0.00    -0.223 NA
ATOM      8  C   UNL     1       1.020 -10.120  25.286  0.00  0.00    +0.220 A 
ATOM      9  N   UNL     1       1.445 -11.362  24.839  0.00  0.00    -0.283 N 
ATOM     36  H   UNL     1       0.777 -12.130  24.772  0.00  0.00    +0.155 HD
ATOM     37  N   UNL     1      -0.283  -9.972  25.601  0.00  0.00    -0.214 NA
BRANCH   4   3
ATOM      1  C   UNL     1      -4.351  -7.551  27.109  0.00  0.00    +0.020 A 
ATOM      2  C   UNL     1      -2.935  -7.533  26.823  0.00  0.00    +0.013 A 
ATOM      3  C   UNL     1      -2.254  -8.733  26.353  0.00  0.00    +0.019 A 
ATOM     38  C   UNL     1      -3.042  -9.944  26.181  0.00  0.00    +0.120 A 
ATOM     39  N   UNL     1      -4.404  -9.932  26.466  0.00  0.00    -0.263 NA
ATOM     40  C   UNL     1      -5.069  -8.784  26.920  0.00  0.00    +0.111 A 
ENDBRANCH   4   3
ENDBRANCH  10   9
BRANCH  12  13
ATOM     13  N   UNL     1       5.217 -10.524  21.705  0.00  0.00    -0.281 N 
ATOM     14  C   UNL     1       5.415 -11.097  20.459  0.00  0.00    +0.248 C 
ATOM     30  O   UNL     1       5.332 -12.294  20.228  0.00  0.00    -0.270 OA
ATOM     31  H   UNL     1       5.506  -9.551  21.802  0.00  0.00    +0.155 HD
BRANCH  14  15
ATOM     15  C   UNL     1       5.768 -10.213  19.307  0.00  0.00    +0.037 A 
ATOM     16  C   UNL     1       5.235 -10.465  17.965  0.00  0.00    +0.013 A 
ATOM     17  C   UNL     1       5.606  -9.607  16.867  0.00  0.00    +0.005 A 
ATOM     18  C   UNL     1       6.514  -8.488  17.108  0.00  0.00    -0.033 A 
ATOM     28  C   UNL     1       7.023  -8.258  18.450  0.00  0.00    +0.005 A 
ATOM     29  C   UNL     1       6.663  -9.098  19.528  0.00  0.00    +0.013 A 
BRANCH  18  19
ATOM     19  C   UNL     1       6.979  -7.534  15.992  0.00  0.00    +0.119 C 
BRANCH  19  20
ATOM     20  N   UNL     1       6.260  -6.232  15.860  0.00  0.00    -0.302 NA
ATOM     21  C   UNL     1       7.055  -5.073  16.468  0.00  0.00    +0.066 C 
ATOM     22  C   UNL     1       6.298  -3.715  16.302  0.00  0.00    -0.064 C 
ATOM     23  N   UNL     1       4.916  -3.823  16.949  0.00  0.00    +0.379 N 
ATOM     24  C   UNL     1       4.224  -2.529  16.845  0.00  0.00    -0.096 C 
ATOM     25  H   UNL     1       5.066  -4.040  18.032  0.00  0.00    -0.082 HD
ATOM     26  C   UNL     1       4.120  -4.975  16.352  0.00  0.00    -0.064 C 
ATOM     27  C   UNL     1       4.894  -6.315  16.496  0.00  0.00    +0.066 C 
ENDBRANCH  19  20
ENDBRANCH  18  19
ENDBRANCH  14  15
ENDBRANCH  12  13
TORSDOF 6
ENDMDL
MODEL 2
REMARK VINA RESULT:      -8.1      1.705      2.515
REMARK  Name = C:\Users\Docking\Desktop\test protocol\1iep_ligandH.pdb
REMARK  8 active torsions:
REMARK  status: ('A' for Active; 'I' for Inactive)
REMARK    1  A    between atoms: _5  and  _11
REMARK    2  A    between atoms: _19  and  _21
REMARK    3  A    between atoms: _22  and  _66
REMARK    4  A    between atoms: _27  and  _30
REMARK    5  A    between atoms: _32  and  _33
REMARK    6  A    between atoms: _38  and  _43
REMARK    7  A    between atoms: _43  and  _46
REMARK    8  A    between atoms: _53  and  _55
REMARK                            x       y       z     vdW  Elec       q    Type
REMARK                         _______ _______ _______ _____ _____    ______ ____
ROOT
ATOM     10  C   UNL     1       2.838 -11.361  24.047  0.00  0.00    +0.038 A 
ATOM     11  C   UNL     1       3.267 -10.694  22.871  0.00  0.00    +0.047 A 
ATOM     12  C   UNL     1       4.633 -10.825  22.388  0.00  0.00    +0.035 A 
ATOM     32  C   UNL     1       5.535 -11.646  23.126  0.00  0.00    +0.024 A 
ATOM     33  C   UNL     1       5.116 -12.330  24.324  0.00  0.00    +0.007 A 
ATOM     34  C   UNL     1       3.771 -12.203  24.807  0.00  0.00    -0.029 A 
ATOM     35  C   UNL     1       3.378 -12.954  26.100  0.00  0.00    +0.045 C 
ENDROOT
BRANCH  10   9
ATOM      4  C   UNL     1      -0.679  -8.798  26.072  0.00  0.00    +0.077 A 
ATOM      5  C   UNL     1       0.199  -7.696  26.343  0.00  0.00    +0.048 A 
ATOM      6  C   UNL     1       1.550  -7.832  25.952  0.00  0.00    +0.116 A 
ATOM      7  N   UNL     1       1.980  -8.988  25.336  0.00  0.00    -0.223 NA
ATOM      8  C   UNL     1       1.107 -10.032  25.091  0.00  0.00    +0.220 A 
ATOM      9  N   UNL     1       1.515 -11.200  24.466  0.00  0.00    -0.283 N 
ATOM     36  H   UNL     1       0.842 -11.950  24.310  0.00  0.00    +0.155 HD
ATOM     37  N   UNL     1      -0.188  -9.927  25.456  0.00  0.00    -0.214 NA
BRANCH   4   3
ATOM      1  C   UNL     1      -4.312  -7.645  26.950  0.00  0.00    +0.020 A 
ATOM      2  C   UNL     1      -2.909  -7.584  26.612  0.00  0.00    +0.013 A 
ATOM      3  C   UNL     1      -2.134  -8.804  26.422  0.00  0.00    +0.019 A 
ATOM     38  C   UNL     1      -2.816 -10.080  26.581  0.00  0.00    +0.120 A 
ATOM     39  N   UNL     1      -4.168 -10.108  26.908  0.00  0.00    -0.263 NA
ATOM     40  C   UNL     1      -4.923  -8.940  27.095  0.00  0.00    +0.111 A 
ENDBRANCH   4   3
ENDBRANCH  10   9
BRANCH  12  13
ATOM     13  N   UNL     1       5.128 -10.166  21.205  0.00  0.00    -0.281 N 
ATOM     14  C   UNL     1       5.228 -10.679  19.923  0.00  0.00    +0.248 C 
ATOM     30  O   UNL     1       5.106 -11.862  19.640  0.00  0.00    -0.270 OA
ATOM     31  H   UNL     1       5.442  -9.203  21.328  0.00  0.00    +0.155 HD
BRANCH  14  15
ATOM     15  C   UNL     1       5.522  -9.747  18.792  0.00  0.00    +0.037 A 
ATOM     16  C   UNL     1       6.821  -9.079  18.675  0.00  0.00    +0.013 A 
ATOM     17  C   UNL     1       7.072  -8.171  17.584  0.00  0.00    +0.005 A 
ATOM     18  C   UNL     1       6.020  -7.927  16.600  0.00  0.00    -0.033 A 
ATOM     28  C   UNL     1       4.743  -8.606  16.737  0.00  0.00    +0.005 A 
ATOM     29  C   UNL     1       4.493  -9.496  17.805  0.00  0.00    +0.013 A 
BRANCH  18  19
ATOM     19  C   UNL     1       6.193  -6.958  15.415  0.00  0.00    +0.119 C 
BRANCH  19  20
ATOM     20  N   UNL     1       7.513  -6.960  14.716  0.00  0.00    -0.302 NA
ATOM     21  C   UNL     1       8.437  -5.853  15.231  0.00  0.00    +0.066 C 
ATOM     22  C   UNL     1       9.822  -5.885  14.504  0.00  0.00    -0.064 C 
ATOM     23  N   UNL     1       9.606  -5.753  12.996  0.00  0.00    +0.379 N 
ATOM     24  C   UNL     1      10.909  -5.724  12.315  0.00  0.00    -0.096 C 
ATOM     25  H   UNL     1       9.105  -4.774  12.810  0.00  0.00    -0.082 HD
ATOM     26  C   UNL     1       8.685  -6.848  12.476  0.00  0.00    -0.064 C 
ATOM     27  C   UNL     1       7.324  -6.827  13.225  0.00  0.00    +0.066 C 
ENDBRANCH  19  20
ENDBRANCH  18  19
ENDBRANCH  14  15
ENDBRANCH  12  13
TORSDOF 6
ENDMDL
MODEL 3
REMARK VINA RESULT:      -8.1      1.484      1.944
REMARK  Name = C:\Users\Docking\Desktop\test protocol\1iep_ligandH.pdb
REMARK  8 active torsions:
REMARK  status: ('A' for Active; 'I' for Inactive)
REMARK    1  A    between atoms: _5  and  _11
REMARK    2  A    between atoms: _19  and  _21
REMARK    3  A    between atoms: _22  and  _66
REMARK    4  A    between atoms: _27  and  _30
REMARK    5  A    between atoms: _32  and  _33
REMARK    6  A    between atoms: _38  and  _43
REMARK    7  A    between atoms: _43  and  _46
REMARK    8  A    between atoms: _53  and  _55
REMARK                            x       y       z     vdW  Elec       q    Type
REMARK                         _______ _______ _______ _____ _____    ______ ____
ROOT
ATOM     10  C   UNL     1       2.886 -11.792  24.485  0.00  0.00    +0.038 A 
ATOM     11  C   UNL     1       3.472 -11.152  23.363  0.00  0.00    +0.047 A 
ATOM     12  C   UNL     1       4.876 -11.347  23.035  0.00  0.00    +0.035 A 
ATOM     32  C   UNL     1       5.652 -12.203  23.869  0.00  0.00    +0.024 A 
ATOM     33  C   UNL     1       5.073 -12.861  25.013  0.00  0.00    +0.007 A 
ATOM     34  C   UNL     1       3.689 -12.671  25.344  0.00  0.00    -0.029 A 
ATOM     35  C   UNL     1       3.122 -13.396  26.587  0.00  0.00    +0.045 C 
ENDROOT
BRANCH  10   9
ATOM      4  C   UNL     1      -0.731  -9.014  25.981  0.00  0.00    +0.077 A 
ATOM      5  C   UNL     1       0.152  -7.922  26.277  0.00  0.00    +0.048 A 
ATOM      6  C   UNL     1       1.530  -8.119  26.036  0.00  0.00    +0.116 A 
ATOM      7  N   UNL     1       1.981  -9.322  25.537  0.00  0.00    -0.223 NA
ATOM      8  C   UNL     1       1.103 -10.355  25.264  0.00  0.00    +0.220 A 
ATOM      9  N   UNL     1       1.533 -11.570  24.754  0.00  0.00    -0.283 N 
ATOM     36  H   UNL     1       0.855 -12.309  24.573  0.00  0.00    +0.155 HD
ATOM     37  N   UNL     1      -0.218 -10.192  25.487  0.00  0.00    -0.214 NA
BRANCH   4   3
ATOM      1  C   UNL     1      -4.333  -7.788  26.889  0.00  0.00    +0.020 A 
ATOM      2  C   UNL     1      -2.898  -7.790  26.718  0.00  0.00    +0.013 A 
ATOM      3  C   UNL     1      -2.214  -8.958  26.178  0.00  0.00    +0.019 A 
ATOM     38  C   UNL     1      -3.017 -10.117  25.817  0.00  0.00    +0.120 A 
ATOM     39  N   UNL     1      -4.397 -10.086  25.994  0.00  0.00    -0.263 NA
ATOM     40  C   UNL     1      -5.066  -8.968  26.514  0.00  0.00    +0.111 A 
ENDBRANCH   4   3
ENDBRANCH  10   9
BRANCH  12  13
ATOM     13  N   UNL     1       5.528 -10.718  21.913  0.00  0.00    -0.281 N 
ATOM     14  C   UNL     1       5.521 -11.120  20.588  0.00  0.00    +0.248 C 
ATOM     30  O   UNL     1       5.125 -12.209  20.198  0.00  0.00    -0.270 OA
ATOM     31  H   UNL     1       6.060  -9.873  22.122  0.00  0.00    +0.155 HD
BRANCH  14  15
ATOM     15  C   UNL     1       6.041 -10.183  19.546  0.00  0.00    +0.037 A 
ATOM     16  C   UNL     1       5.763 -10.398  18.124  0.00  0.00    +0.013 A 
ATOM     17  C   UNL     1       6.292  -9.489  17.138  0.00  0.00    +0.005 A 
ATOM     18  C   UNL     1       7.103  -8.354  17.573  0.00  0.00    -0.033 A 
ATOM     28  C   UNL     1       7.359  -8.162  18.990  0.00  0.00    +0.005 A 
ATOM     29  C   UNL     1       6.844  -9.052  19.959  0.00  0.00    +0.013 A 
BRANCH  18  19
ATOM     19  C   UNL     1       7.726  -7.346  16.589  0.00  0.00    +0.119 C 
BRANCH  19  20
ATOM     20  N   UNL     1       7.280  -7.415  15.165  0.00  0.00    -0.302 NA
ATOM     21  C   UNL     1       8.356  -6.909  14.201  0.00  0.00    +0.066 C 
ATOM     22  C   UNL     1       7.881  -7.009  12.715  0.00  0.00    -0.064 C 
ATOM     23  N   UNL     1       6.584  -6.217  12.542  0.00  0.00    +0.379 N 
ATOM     24  C   UNL     1       6.166  -6.262  11.133  0.00  0.00    -0.096 C 
ATOM     25  H   UNL     1       6.801  -5.154  12.797  0.00  0.00    -0.082 HD
ATOM     26  C   UNL     1       5.509  -6.712  13.499  0.00  0.00    -0.064 C 
ATOM     27  C   UNL     1       6.002  -6.635  14.971  0.00  0.00    +0.066 C 
ENDBRANCH  19  20
ENDBRANCH  18  19
ENDBRANCH  14  15
ENDBRANCH  12  13
TORSDOF 6
ENDMDL
MODEL 4
REMARK VINA RESULT:      -8.0      2.436      4.117
REMARK  Name = C:\Users\Docking\Desktop\test protocol\1iep_ligandH.pdb
REMARK  8 active torsions:
REMARK  status: ('A' for Active; 'I' for Inactive)
REMARK    1  A    between atoms: _5  and  _11
REMARK    2  A    between atoms: _19  and  _21
REMARK    3  A    between atoms: _22  and  _66
REMARK    4  A    between atoms: _27  and  _30
REMARK    5  A    between atoms: _32  and  _33
REMARK    6  A    between atoms: _38  and  _43
REMARK    7  A    between atoms: _43  and  _46
REMARK    8  A    between atoms: _53  and  _55
REMARK                            x       y       z     vdW  Elec       q    Type
REMARK                         _______ _______ _______ _____ _____    ______ ____
ROOT
ATOM     10  C   UNL     1       0.412 -10.134  26.688  0.00  0.00    +0.038 A 
ATOM     11  C   UNL     1       1.207  -9.911  25.536  0.00  0.00    +0.047 A 
ATOM     12  C   UNL     1       1.830 -11.017  24.825  0.00  0.00    +0.035 A 
ATOM     32  C   UNL     1       1.620 -12.339  25.315  0.00  0.00    +0.024 A 
ATOM     33  C   UNL     1       0.815 -12.584  26.486  0.00  0.00    +0.007 A 
ATOM     34  C   UNL     1       0.200 -11.497  27.192  0.00  0.00    -0.029 A 
ATOM     35  C   UNL     1      -0.648 -11.818  28.445  0.00  0.00    +0.045 C 
ENDROOT
BRANCH  10   9
ATOM      4  C   UNL     1      -3.271  -7.175  27.535  0.00  0.00    +0.077 A 
ATOM      5  C   UNL     1      -4.114  -7.860  26.597  0.00  0.00    +0.048 A 
ATOM      6  C   UNL     1      -3.559  -8.964  25.912  0.00  0.00    +0.116 A 
ATOM      7  N   UNL     1      -2.257  -9.347  26.155  0.00  0.00    -0.223 NA
ATOM      8  C   UNL     1      -1.472  -8.664  27.065  0.00  0.00    +0.220 A 
ATOM      9  N   UNL     1      -0.163  -9.036  27.331  0.00  0.00    -0.283 N 
ATOM     36  H   UNL     1       0.386  -8.502  28.004  0.00  0.00    +0.155 HD
ATOM     37  N   UNL     1      -1.978  -7.605  27.731  0.00  0.00    -0.214 NA
BRANCH   4   3
ATOM      1  C   UNL     1      -5.474  -4.391  29.176  0.00  0.00    +0.020 A 
ATOM      2  C   UNL     1      -5.099  -5.539  28.384  0.00  0.00    +0.013 A 
ATOM      3  C   UNL     1      -3.714  -5.992  28.339  0.00  0.00    +0.019 A 
ATOM     38  C   UNL     1      -2.727  -5.257  29.114  0.00  0.00    +0.120 A 
ATOM     39  N   UNL     1      -3.118  -4.154  29.867  0.00  0.00    -0.263 NA
ATOM     40  C   UNL     1      -4.446  -3.707  29.917  0.00  0.00    +0.111 A 
ENDBRANCH   4   3
ENDBRANCH  10   9
BRANCH  12  13
ATOM     13  N   UNL     1       2.655 -10.850  23.654  0.00  0.00    -0.281 N 
ATOM     14  C   UNL     1       3.857 -11.475  23.363  0.00  0.00    +0.248 C 
ATOM     30  O   UNL     1       4.516 -12.116  24.169  0.00  0.00    -0.270 OA
ATOM     31  H   UNL     1       2.311 -10.192  22.955  0.00  0.00    +0.155 HD
BRANCH  14  15
ATOM     15  C   UNL     1       4.415 -11.358  21.982  0.00  0.00    +0.037 A 
ATOM     16  C   UNL     1       5.404 -12.315  21.479  0.00  0.00    +0.013 A 
ATOM     17  C   UNL     1       5.939 -12.170  20.148  0.00  0.00    +0.005 A 
ATOM     18  C   UNL     1       5.485 -11.063  19.310  0.00  0.00    -0.033 A 
ATOM     28  C   UNL     1       4.499 -10.131  19.833  0.00  0.00    +0.005 A 
ATOM     29  C   UNL     1       3.973 -10.269  21.137  0.00  0.00    +0.013 A 
BRANCH  18  19
ATOM     19  C   UNL     1       6.017 -10.818  17.886  0.00  0.00    +0.119 C 
BRANCH  19  20
ATOM     20  N   UNL     1       5.891  -9.435  17.337  0.00  0.00    -0.302 NA
ATOM     21  C   UNL     1       4.801  -9.339  16.266  0.00  0.00    +0.066 C 
ATOM     22  C   UNL     1       4.668  -7.881  15.719  0.00  0.00    -0.064 C 
ATOM     23  N   UNL     1       6.017  -7.423  15.161  0.00  0.00    +0.379 N 
ATOM     24  C   UNL     1       5.880  -6.074  14.593  0.00  0.00    -0.096 C 
ATOM     25  H   UNL     1       6.291  -8.114  14.330  0.00  0.00    -0.082 HD
ATOM     26  C   UNL     1       7.107  -7.518  16.219  0.00  0.00    -0.064 C 
ATOM     27  C   UNL     1       7.211  -8.965  16.777  0.00  0.00    +0.066 C 
ENDBRANCH  19  20
ENDBRANCH  18  19
ENDBRANCH  14  15
ENDBRANCH  12  13
TORSDOF 6
ENDMDL
MODEL 5
REMARK VINA RESULT:      -7.9      2.553      3.999
REMARK  Name = C:\Users\Docking\Desktop\test protocol\1iep_ligandH.pdb
REMARK  8 active torsions:
REMARK  status: ('A' for Active; 'I' for Inactive)
REMARK    1  A    between atoms: _5  and  _11
REMARK    2  A    between atoms: _19  and  _21
REMARK    3  A    between atoms: _22  and  _66
REMARK    4  A    between atoms: _27  and  _30
REMARK    5  A    between atoms: _32  and  _33
REMARK    6  A    between atoms: _38  and  _43
REMARK    7  A    between atoms: _43  and  _46
REMARK    8  A    between atoms: _53  and  _55
REMARK                            x       y       z     vdW  Elec       q    Type
REMARK                         _______ _______ _______ _____ _____    ______ ____
ROOT
ATOM     10  C   UNL     1       4.715 -11.493  22.403  0.00  0.00    +0.038 A 
ATOM     11  C   UNL     1       4.866 -10.795  21.177  0.00  0.00    +0.047 A 
ATOM     12  C   UNL     1       6.183 -10.478  20.649  0.00  0.00    +0.035 A 
ATOM     32  C   UNL     1       7.327 -10.889  21.394  0.00  0.00    +0.024 A 
ATOM     33  C   UNL     1       7.192 -11.598  22.643  0.00  0.00    +0.007 A 
ATOM     34  C   UNL     1       5.894 -11.911  23.170  0.00  0.00    -0.029 A 
ATOM     35  C   UNL     1       5.809 -12.668  24.516  0.00  0.00    +0.045 C 
ENDROOT
BRANCH  10   9
ATOM      4  C   UNL     1       0.779 -10.363  24.906  0.00  0.00    +0.077 A 
ATOM      5  C   UNL     1       1.349  -9.126  25.358  0.00  0.00    +0.048 A 
ATOM      6  C   UNL     1       2.660  -8.821  24.929  0.00  0.00    +0.116 A 
ATOM      7  N   UNL     1       3.341  -9.695  24.109  0.00  0.00    -0.223 NA
ATOM      8  C   UNL     1       2.762 -10.881  23.694  0.00  0.00    +0.220 A 
ATOM      9  N   UNL     1       3.426 -11.771  22.863  0.00  0.00    -0.283 N 
ATOM     36  H   UNL     1       2.967 -12.638  22.585  0.00  0.00    +0.155 HD
ATOM     37  N   UNL     1       1.512 -11.195  24.091  0.00  0.00    -0.214 NA
BRANCH   4   3
ATOM      1  C   UNL     1      -2.196 -12.329  26.514  0.00  0.00    +0.020 A 
ATOM      2  C   UNL     1      -0.847 -11.924  26.194  0.00  0.00    +0.013 A 
ATOM      3  C   UNL     1      -0.598 -10.823  25.272  0.00  0.00    +0.019 A 
ATOM     38  C   UNL     1      -1.746 -10.148  24.685  0.00  0.00    +0.120 A 
ATOM     39  N   UNL     1      -3.034 -10.562  25.010  0.00  0.00    -0.263 NA
ATOM     40  C   UNL     1      -3.286 -11.620  25.896  0.00  0.00    +0.111 A 
ENDBRANCH   4   3
ENDBRANCH  10   9
BRANCH  12  13
ATOM     13  N   UNL     1       6.399  -9.765  19.414  0.00  0.00    -0.281 N 
ATOM     14  C   UNL     1       5.447  -9.309  18.517  0.00  0.00    +0.248 C 
ATOM     30  O   UNL     1       4.269  -9.633  18.535  0.00  0.00    -0.270 OA
ATOM     31  H   UNL     1       7.371  -9.574  19.172  0.00  0.00    +0.155 HD
BRANCH  14  15
ATOM     15  C   UNL     1       5.867  -8.366  17.436  0.00  0.00    +0.037 A 
ATOM     16  C   UNL     1       6.092  -6.945  17.711  0.00  0.00    +0.013 A 
ATOM     17  C   UNL     1       6.480  -6.055  16.646  0.00  0.00    +0.005 A 
ATOM     18  C   UNL     1       6.647  -6.585  15.295  0.00  0.00    -0.033 A 
ATOM     28  C   UNL     1       6.422  -8.000  15.051  0.00  0.00    +0.005 A 
ATOM     29  C   UNL     1       6.040  -8.875  16.092  0.00  0.00    +0.013 A 
BRANCH  18  19
ATOM     19  C   UNL     1       7.038  -5.704  14.094  0.00  0.00    +0.119 C 
BRANCH  19  20
ATOM     20  N   UNL     1       8.475  -5.701  13.687  0.00  0.00    -0.302 NA
ATOM     21  C   UNL     1       8.773  -6.762  12.624  0.00  0.00    +0.066 C 
ATOM     22  C   UNL     1      10.276  -6.730  12.194  0.00  0.00    -0.064 C 
ATOM     23  N   UNL     1      11.161  -6.934  13.425  0.00  0.00    +0.379 N 
ATOM     24  C   UNL     1      12.572  -6.962  13.016  0.00  0.00    -0.096 C 
ATOM     25  H   UNL     1      10.913  -7.931  13.857  0.00  0.00    -0.082 HD
ATOM     26  C   UNL     1      10.869  -5.885  14.489  0.00  0.00    -0.064 C 
ATOM     27  C   UNL     1       9.367  -5.905  14.887  0.00  0.00    +0.066 C 
ENDBRANCH  19  20
ENDBRANCH  18  19
ENDBRANCH  14  15
ENDBRANCH  12  13
TORSDOF 6
ENDMDL
