MODEL 1
REMARK VINA RESULT:      -8.3      0.000      0.000
REMARK  Name = C:\Users\Docking\Desktop\test protocol\1iep_ligandH.pdb
REMARK  8 active torsions:
REMARK  status: ('A' for Active; 'I' for Inactive)
REMARK    1  A    between atoms: _5  and  _11
REMARK    2  A    between atoms: _19  and  _21
REMARK    3  A    between atoms: _22  and  _66
REMARK    4  A    between atoms: _27  and  _30
REMARK    5  A    between atoms: _32  and  _33
REMARK    6  A    between atoms: _38  and  _43
REMARK    7  A    between atoms: _43  and  _46
REMARK    8  A    between atoms: _53  and  _55
REMARK                            x       y       z     vdW  Elec       q    Type
REMARK                         _______ _______ _______ _____ _____    ______ ____
ROOT
ATOM     10  C   UNL     1       2.893  49.537  42.580  0.00  0.00    +0.038 A 
ATOM     11  C   UNL     1       4.252  49.758  42.920  0.00  0.00    +0.047 A 
ATOM     12  C   UNL     1       4.621  50.677  43.985  0.00  0.00    +0.035 A 
ATOM     32  C   UNL     1       3.580  51.353  44.686  0.00  0.00    +0.024 A 
ATOM     33  C   UNL     1       2.193  51.141  44.352  0.00  0.00    +0.007 A 
ATOM     34  C   UNL     1       1.823  50.237  43.301  0.00  0.00    -0.029 A 
ATOM     35  C   UNL     1       0.321  50.053  42.983  0.00  0.00    +0.045 C 
ENDROOT
BRANCH  10   9
ATOM      4  C   UNL     1       2.041  45.111  40.929  0.00  0.00    +0.077 A 
ATOM      5  C   UNL     1       2.231  44.527  42.226  0.00  0.00    +0.048 A 
ATOM      6  C   UNL     1       2.554  45.399  43.289  0.00  0.00    +0.116 A 
ATOM      7  N   UNL     1       2.675  46.753  43.062  0.00  0.00    -0.223 NA
ATOM      8  C   UNL     1       2.487  47.283  41.799  0.00  0.00    +0.220 A 
ATOM      9  N   UNL     1       2.595  48.643  41.549  0.00  0.00    -0.283 N 
ATOM     36  H   UNL     1       2.456  48.994  40.602  0.00  0.00    +0.155 HD
ATOM     37  N   UNL     1       2.179  46.471  40.766  0.00  0.00    -0.214 NA
BRANCH   4   3
ATOM      1  C   UNL     1       2.294  42.840  37.754  0.00  0.00    +0.020 A 
ATOM      2  C   UNL     1       2.683  43.589  38.927  0.00  0.00    +0.013 A 
ATOM      3  C   UNL     1       1.692  44.321  39.706  0.00  0.00    +0.019 A 
ATOM     38  C   UNL     1       0.305  44.275  39.268  0.00  0.00    +0.120 A 
ATOM     39  N   UNL     1      -0.040  43.547  38.134  0.00  0.00    -0.263 NA
ATOM     40  C   UNL     1       0.905  42.840  37.375  0.00  0.00    +0.111 A 
ENDBRANCH   4   3
ENDBRANCH  10   9
BRANCH  12  13
ATOM     13  N   UNL     1       5.984  50.948  44.369  0.00  0.00    -0.281 N 
ATOM     14  C   UNL     1       6.740  50.306  45.336  0.00  0.00    +0.248 C 
ATOM     30  O   UNL     1       6.286  49.536  46.170  0.00  0.00    -0.270 OA
ATOM     31  H   UNL     1       6.448  51.705  43.867  0.00  0.00    +0.155 HD
BRANCH  14  15
ATOM     15  C   UNL     1       8.211  50.567  45.394  0.00  0.00    +0.037 A 
ATOM     16  C   UNL     1       8.849  51.527  44.491  0.00  0.00    +0.013 A 
ATOM     17  C   UNL     1      10.272  51.748  44.556  0.00  0.00    +0.005 A 
ATOM     18  C   UNL     1      11.067  51.005  45.532  0.00  0.00    -0.033 A 
ATOM     28  C   UNL     1      10.408  50.062  46.419  0.00  0.00    +0.005 A 
ATOM     29  C   UNL     1       9.013  49.843  46.357  0.00  0.00    +0.013 A 
BRANCH  18  19
ATOM     19  C   UNL     1      12.594  51.161  45.658  0.00  0.00    +0.119 C 
BRANCH  19  20
ATOM     20  N   UNL     1      13.230  52.290  44.915  0.00  0.00    -0.302 NA
ATOM     21  C   UNL     1      13.934  51.816  43.641  0.00  0.00    +0.066 C 
ATOM     22  C   UNL     1      14.574  53.013  42.865  0.00  0.00    -0.064 C 
ATOM     23  N   UNL     1      15.553  53.748  43.784  0.00  0.00    +0.379 N 
ATOM     24  C   UNL     1      16.199  54.838  43.040  0.00  0.00    -0.096 C 
ATOM     25  H   UNL     1      16.346  53.023  44.080  0.00  0.00    -0.082 HD
ATOM     26  C   UNL     1      14.861  54.220  45.055  0.00  0.00    -0.064 C 
ATOM     27  C   UNL     1      14.203  53.027  45.803  0.00  0.00    +0.066 C 
ENDBRANCH  19  20
ENDBRANCH  18  19
ENDBRANCH  14  15
ENDBRANCH  12  13
TORSDOF 6
ENDMDL
MODEL 2
REMARK VINA RESULT:      -8.2     23.153     28.010
REMARK  Name = C:\Users\Docking\Desktop\test protocol\1iep_ligandH.pdb
REMARK  8 active torsions:
REMARK  status: ('A' for Active; 'I' for Inactive)
REMARK    1  A    between atoms: _5  and  _11
REMARK    2  A    between atoms: _19  and  _21
REMARK    3  A    between atoms: _22  and  _66
REMARK    4  A    between atoms: _27  and  _30
REMARK    5  A    between atoms: _32  and  _33
REMARK    6  A    between atoms: _38  and  _43
REMARK    7  A    between atoms: _43  and  _46
REMARK    8  A    between atoms: _53  and  _55
REMARK                            x       y       z     vdW  Elec       q    Type
REMARK                         _______ _______ _______ _____ _____    ______ ____
ROOT
ATOM     10  C   UNL     1      -5.219  73.818  49.808  0.00  0.00    +0.038 A 
ATOM     11  C   UNL     1      -6.162  72.791  50.070  0.00  0.00    +0.047 A 
ATOM     12  C   UNL     1      -7.056  72.864  51.215  0.00  0.00    +0.035 A 
ATOM     32  C   UNL     1      -6.964  73.998  52.073  0.00  0.00    +0.024 A 
ATOM     33  C   UNL     1      -6.011  75.051  51.823  0.00  0.00    +0.007 A 
ATOM     34  C   UNL     1      -5.125  74.984  50.696  0.00  0.00    -0.029 A 
ATOM     35  C   UNL     1      -4.119  76.138  50.480  0.00  0.00    +0.045 C 
ENDROOT
BRANCH  10   9
ATOM      4  C   UNL     1      -1.774  71.585  47.322  0.00  0.00    +0.077 A 
ATOM      5  C   UNL     1      -1.601  70.590  48.341  0.00  0.00    +0.048 A 
ATOM      6  C   UNL     1      -2.414  70.693  49.493  0.00  0.00    +0.116 A 
ATOM      7  N   UNL     1      -3.328  71.718  49.606  0.00  0.00    -0.223 NA
ATOM      8  C   UNL     1      -3.468  72.663  48.605  0.00  0.00    +0.220 A 
ATOM      9  N   UNL     1      -4.386  73.698  48.694  0.00  0.00    -0.283 N 
ATOM     36  H   UNL     1      -4.453  74.378  47.938  0.00  0.00    +0.155 HD
ATOM     37  N   UNL     1      -2.702  72.587  47.496  0.00  0.00    -0.214 NA
BRANCH   4   3
ATOM      1  C   UNL     1      -0.334  70.650  43.808  0.00  0.00    +0.020 A 
ATOM      2  C   UNL     1      -1.112  70.579  45.023  0.00  0.00    +0.013 A 
ATOM      3  C   UNL     1      -0.992  71.610  46.046  0.00  0.00    +0.019 A 
ATOM     38  C   UNL     1      -0.069  72.709  45.806  0.00  0.00    +0.120 A 
ATOM     39  N   UNL     1       0.668  72.750  44.626  0.00  0.00    -0.263 NA
ATOM     40  C   UNL     1       0.562  71.763  43.636  0.00  0.00    +0.111 A 
ENDBRANCH   4   3
ENDBRANCH  10   9
BRANCH  12  13
ATOM     13  N   UNL     1      -8.027  71.847  51.535  0.00  0.00    -0.281 N 
ATOM     14  C   UNL     1      -9.019  71.329  50.718  0.00  0.00    +0.248 C 
ATOM     30  O   UNL     1      -9.358  71.816  49.649  0.00  0.00    -0.270 OA
ATOM     31  H   UNL     1      -7.978  71.463  52.479  0.00  0.00    +0.155 HD
BRANCH  14  15
ATOM     15  C   UNL     1      -9.748  70.101  51.157  0.00  0.00    +0.037 A 
ATOM     16  C   UNL     1     -10.352  70.011  52.489  0.00  0.00    +0.013 A 
ATOM     17  C   UNL     1     -11.035  68.808  52.894  0.00  0.00    +0.005 A 
ATOM     18  C   UNL     1     -11.119  67.685  51.963  0.00  0.00    -0.033 A 
ATOM     28  C   UNL     1     -10.516  67.803  50.646  0.00  0.00    +0.005 A 
ATOM     29  C   UNL     1      -9.844  68.980  50.247  0.00  0.00    +0.013 A 
BRANCH  18  19
ATOM     19  C   UNL     1     -11.810  66.355  52.318  0.00  0.00    +0.119 C 
BRANCH  19  20
ATOM     20  N   UNL     1     -12.066  65.398  51.201  0.00  0.00    -0.302 NA
ATOM     21  C   UNL     1     -13.560  65.117  51.016  0.00  0.00    +0.066 C 
ATOM     22  C   UNL     1     -13.811  64.131  49.829  0.00  0.00    -0.064 C 
ATOM     23  N   UNL     1     -13.043  62.832  50.076  0.00  0.00    +0.379 N 
ATOM     24  C   UNL     1     -13.323  61.882  48.990  0.00  0.00    -0.096 C 
ATOM     25  H   UNL     1     -13.427  62.387  51.023  0.00  0.00    -0.082 HD
ATOM     26  C   UNL     1     -11.557  63.103  50.264  0.00  0.00    -0.064 C 
ATOM     27  C   UNL     1     -11.320  64.106  51.427  0.00  0.00    +0.066 C 
ENDBRANCH  19  20
ENDBRANCH  18  19
ENDBRANCH  14  15
ENDBRANCH  12  13
TORSDOF 6
ENDMDL
MODEL 3
REMARK VINA RESULT:      -8.2     22.771     26.445
REMARK  Name = C:\Users\Docking\Desktop\test protocol\1iep_ligandH.pdb
REMARK  8 active torsions:
REMARK  status: ('A' for Active; 'I' for Inactive)
REMARK    1  A    between atoms: _5  and  _11
REMARK    2  A    between atoms: _19  and  _21
REMARK    3  A    between atoms: _22  and  _66
REMARK    4  A    between atoms: _27  and  _30
REMARK    5  A    between atoms: _32  and  _33
REMARK    6  A    between atoms: _38  and  _43
REMARK    7  A    between atoms: _43  and  _46
REMARK    8  A    between atoms: _53  and  _55
REMARK                            x       y       z     vdW  Elec       q    Type
REMARK                         _______ _______ _______ _____ _____    ______ ____
ROOT
ATOM     10  C   UNL     1      -1.494  73.993  46.520  0.00  0.00    +0.038 A 
ATOM     11  C   UNL     1      -2.471  73.064  46.962  0.00  0.00    +0.047 A 
ATOM     12  C   UNL     1      -3.206  73.277  48.199  0.00  0.00    +0.035 A 
ATOM     32  C   UNL     1      -2.922  74.448  48.960  0.00  0.00    +0.024 A 
ATOM     33  C   UNL     1      -1.932  75.402  48.527  0.00  0.00    +0.007 A 
ATOM     34  C   UNL     1      -1.202  75.196  47.308  0.00  0.00    -0.029 A 
ATOM     35  C   UNL     1      -0.147  76.249  46.895  0.00  0.00    +0.045 C 
ENDROOT
BRANCH  10   9
ATOM      4  C   UNL     1       0.215  71.003  43.177  0.00  0.00    +0.077 A 
ATOM      5  C   UNL     1      -0.254  69.848  43.885  0.00  0.00    +0.048 A 
ATOM      6  C   UNL     1      -0.924  70.065  45.110  0.00  0.00    +0.116 A 
ATOM      7  N   UNL     1      -1.106  71.348  45.581  0.00  0.00    -0.223 NA
ATOM      8  C   UNL     1      -0.639  72.440  44.873  0.00  0.00    +0.220 A 
ATOM      9  N   UNL     1      -0.818  73.739  45.324  0.00  0.00    -0.283 N 
ATOM     36  H   UNL     1      -0.453  74.518  44.777  0.00  0.00    +0.155 HD
ATOM     37  N   UNL     1       0.005  72.259  43.702  0.00  0.00    -0.214 NA
BRANCH   4   3
ATOM      1  C   UNL     1       1.420  69.875  39.630  0.00  0.00    +0.020 A 
ATOM      2  C   UNL     1       0.694  69.893  40.880  0.00  0.00    +0.013 A 
ATOM      3  C   UNL     1       0.939  70.937  41.867  0.00  0.00    +0.019 A 
ATOM     38  C   UNL     1       1.931  71.955  41.557  0.00  0.00    +0.120 A 
ATOM     39  N   UNL     1       2.615  71.911  40.347  0.00  0.00    -0.263 NA
ATOM     40  C   UNL     1       2.389  70.910  39.389  0.00  0.00    +0.111 A 
ENDBRANCH   4   3
ENDBRANCH  10   9
BRANCH  12  13
ATOM     13  N   UNL     1      -4.203  72.365  48.702  0.00  0.00    -0.281 N 
ATOM     14  C   UNL     1      -4.043  71.367  49.650  0.00  0.00    +0.248 C 
ATOM     30  O   UNL     1      -2.963  70.965  50.056  0.00  0.00    -0.270 OA
ATOM     31  H   UNL     1      -5.140  72.467  48.312  0.00  0.00    +0.155 HD
BRANCH  14  15
ATOM     15  C   UNL     1      -5.260  70.711  50.219  0.00  0.00    +0.037 A 
ATOM     16  C   UNL     1      -6.516  70.656  49.467  0.00  0.00    +0.013 A 
ATOM     17  C   UNL     1      -7.679  70.032  50.046  0.00  0.00    +0.005 A 
ATOM     18  C   UNL     1      -7.591  69.457  51.386  0.00  0.00    -0.033 A 
ATOM     28  C   UNL     1      -6.331  69.520  52.108  0.00  0.00    +0.005 A 
ATOM     29  C   UNL     1      -5.189  70.132  51.544  0.00  0.00    +0.013 A 
BRANCH  18  19
ATOM     19  C   UNL     1      -8.787  68.790  52.091  0.00  0.00    +0.119 C 
BRANCH  19  20
ATOM     20  N   UNL     1      -9.330  67.540  51.481  0.00  0.00    -0.302 NA
ATOM     21  C   UNL     1     -10.855  67.461  51.594  0.00  0.00    +0.066 C 
ATOM     22  C   UNL     1     -11.408  66.157  50.931  0.00  0.00    -0.064 C 
ATOM     23  N   UNL     1     -10.753  64.939  51.583  0.00  0.00    +0.379 N 
ATOM     24  C   UNL     1     -11.313  63.710  51.002  0.00  0.00    -0.096 C 
ATOM     25  H   UNL     1     -11.017  64.952  52.666  0.00  0.00    -0.082 HD
ATOM     26  C   UNL     1      -9.236  65.011  51.478  0.00  0.00    -0.064 C 
ATOM     27  C   UNL     1      -8.699  66.324  52.113  0.00  0.00    +0.066 C 
ENDBRANCH  19  20
ENDBRANCH  18  19
ENDBRANCH  14  15
ENDBRANCH  12  13
TORSDOF 6
ENDMDL
MODEL 4
REMARK VINA RESULT:      -8.2     23.664     25.368
REMARK  Name = C:\Users\Docking\Desktop\test protocol\1iep_ligandH.pdb
REMARK  8 active torsions:
REMARK  status: ('A' for Active; 'I' for Inactive)
REMARK    1  A    between atoms: _5  and  _11
REMARK    2  A    between atoms: _19  and  _21
REMARK    3  A    between atoms: _22  and  _66
REMARK    4  A    between atoms: _27  and  _30
REMARK    5  A    between atoms: _32  and  _33
REMARK    6  A    between atoms: _38  and  _43
REMARK    7  A    between atoms: _43  and  _46
REMARK    8  A    between atoms: _53  and  _55
REMARK                            x       y       z     vdW  Elec       q    Type
REMARK                         _______ _______ _______ _____ _____    ______ ____
ROOT
ATOM     10  C   UNL     1      -7.211  71.859  49.719  0.00  0.00    +0.038 A 
ATOM     11  C   UNL     1      -6.102  71.775  48.839  0.00  0.00    +0.047 A 
ATOM     12  C   UNL     1      -5.156  72.872  48.715  0.00  0.00    +0.035 A 
ATOM     32  C   UNL     1      -5.368  74.040  49.504  0.00  0.00    +0.024 A 
ATOM     33  C   UNL     1      -6.490  74.143  50.403  0.00  0.00    +0.007 A 
ATOM     34  C   UNL     1      -7.429  73.064  50.528  0.00  0.00    -0.029 A 
ATOM     35  C   UNL     1      -8.618  73.231  51.503  0.00  0.00    +0.045 C 
ENDROOT
BRANCH  10   9
ATOM      4  C   UNL     1      -8.663  67.724  51.677  0.00  0.00    +0.077 A 
ATOM      5  C   UNL     1      -7.566  67.707  52.600  0.00  0.00    +0.048 A 
ATOM      6  C   UNL     1      -6.646  68.778  52.534  0.00  0.00    +0.116 A 
ATOM      7  N   UNL     1      -6.821  69.784  51.610  0.00  0.00    -0.223 NA
ATOM      8  C   UNL     1      -7.889  69.769  50.732  0.00  0.00    +0.220 A 
ATOM      9  N   UNL     1      -8.088  70.775  49.799  0.00  0.00    -0.283 N 
ATOM     36  H   UNL     1      -8.885  70.723  49.164  0.00  0.00    +0.155 HD
ATOM     37  N   UNL     1      -8.780  68.757  50.774  0.00  0.00    -0.214 NA
BRANCH   4   3
ATOM      1  C   UNL     1     -11.964  65.779  50.888  0.00  0.00    +0.020 A 
ATOM      2  C   UNL     1     -10.977  66.834  50.907  0.00  0.00    +0.013 A 
ATOM      3  C   UNL     1      -9.720  66.665  51.625  0.00  0.00    +0.019 A 
ATOM     38  C   UNL     1      -9.491  65.406  52.318  0.00  0.00    +0.120 A 
ATOM     39  N   UNL     1     -10.461  64.409  52.284  0.00  0.00    -0.263 NA
ATOM     40  C   UNL     1     -11.675  64.561  51.597  0.00  0.00    +0.111 A 
ENDBRANCH   4   3
ENDBRANCH  10   9
BRANCH  12  13
ATOM     13  N   UNL     1      -4.016  72.848  47.832  0.00  0.00    -0.281 N 
ATOM     14  C   UNL     1      -2.844  72.123  47.975  0.00  0.00    +0.248 C 
ATOM     30  O   UNL     1      -2.508  71.547  48.998  0.00  0.00    -0.270 OA
ATOM     31  H   UNL     1      -4.081  73.436  47.001  0.00  0.00    +0.155 HD
BRANCH  14  15
ATOM     15  C   UNL     1      -1.901  72.039  46.817  0.00  0.00    +0.037 A 
ATOM     16  C   UNL     1      -1.292  73.242  46.244  0.00  0.00    +0.013 A 
ATOM     17  C   UNL     1      -0.400  73.134  45.117  0.00  0.00    +0.005 A 
ATOM     18  C   UNL     1      -0.111  71.816  44.557  0.00  0.00    -0.033 A 
ATOM     28  C   UNL     1      -0.725  70.639  45.148  0.00  0.00    +0.005 A 
ATOM     29  C   UNL     1      -1.601  70.741  46.252  0.00  0.00    +0.013 A 
BRANCH  18  19
ATOM     19  C   UNL     1       0.813  71.609  43.341  0.00  0.00    +0.119 C 
BRANCH  19  20
ATOM     20  N   UNL     1       1.663  72.764  42.924  0.00  0.00    -0.302 NA
ATOM     21  C   UNL     1       2.390  72.494  41.604  0.00  0.00    +0.066 C 
ATOM     22  C   UNL     1       3.257  73.720  41.170  0.00  0.00    -0.064 C 
ATOM     23  N   UNL     1       4.256  74.053  42.280  0.00  0.00    +0.379 N 
ATOM     24  C   UNL     1       5.111  75.169  41.852  0.00  0.00    -0.096 C 
ATOM     25  H   UNL     1       4.909  73.162  42.425  0.00  0.00    -0.082 HD
ATOM     26  C   UNL     1       3.541  74.321  43.597  0.00  0.00    -0.064 C 
ATOM     27  C   UNL     1       2.659  73.107  44.004  0.00  0.00    +0.066 C 
ENDBRANCH  19  20
ENDBRANCH  18  19
ENDBRANCH  14  15
ENDBRANCH  12  13
TORSDOF 6
ENDMDL
MODEL 5
REMARK VINA RESULT:      -8.1      3.138     14.458
REMARK  Name = C:\Users\Docking\Desktop\test protocol\1iep_ligandH.pdb
REMARK  8 active torsions:
REMARK  status: ('A' for Active; 'I' for Inactive)
REMARK    1  A    between atoms: _5  and  _11
REMARK    2  A    between atoms: _19  and  _21
REMARK    3  A    between atoms: _22  and  _66
REMARK    4  A    between atoms: _27  and  _30
REMARK    5  A    between atoms: _32  and  _33
REMARK    6  A    between atoms: _38  and  _43
REMARK    7  A    between atoms: _43  and  _46
REMARK    8  A    between atoms: _53  and  _55
REMARK                            x       y       z     vdW  Elec       q    Type
REMARK                         _______ _______ _______ _____ _____    ______ ____
ROOT
ATOM     10  C   UNL     1      15.357  53.352  43.227  0.00  0.00    +0.038 A 
ATOM     11  C   UNL     1      14.000  52.990  43.425  0.00  0.00    +0.047 A 
ATOM     12  C   UNL     1      13.642  51.719  44.036  0.00  0.00    +0.035 A 
ATOM     32  C   UNL     1      14.692  50.841  44.435  0.00  0.00    +0.024 A 
ATOM     33  C   UNL     1      16.076  51.193  44.239  0.00  0.00    +0.007 A 
ATOM     34  C   UNL     1      16.436  52.444  43.635  0.00  0.00    -0.029 A 
ATOM     35  C   UNL     1      17.936  52.766  43.444  0.00  0.00    +0.045 C 
ENDROOT
BRANCH  10   9
ATOM      4  C   UNL     1      16.082  58.090  43.460  0.00  0.00    +0.077 A 
ATOM      5  C   UNL     1      15.844  58.117  44.874  0.00  0.00    +0.048 A 
ATOM      6  C   UNL     1      15.531  56.891  45.503  0.00  0.00    +0.116 A 
ATOM      7  N   UNL     1      15.464  55.731  44.762  0.00  0.00    -0.223 NA
ATOM      8  C   UNL     1      15.698  55.740  43.399  0.00  0.00    +0.220 A 
ATOM      9  N   UNL     1      15.643  54.584  42.636  0.00  0.00    -0.283 N 
ATOM     36  H   UNL     1      15.815  54.634  41.632  0.00  0.00    +0.155 HD
ATOM     37  N   UNL     1      15.997  56.899  42.775  0.00  0.00    -0.214 NA
BRANCH   4   3
ATOM      1  C   UNL     1      15.820  61.435  41.449  0.00  0.00    +0.020 A 
ATOM      2  C   UNL     1      15.434  60.280  42.226  0.00  0.00    +0.013 A 
ATOM      3  C   UNL     1      16.428  59.304  42.654  0.00  0.00    +0.019 A 
ATOM     38  C   UNL     1      17.815  59.528  42.277  0.00  0.00    +0.120 A 
ATOM     39  N   UNL     1      18.157  60.649  41.527  0.00  0.00    -0.263 NA
ATOM     40  C   UNL     1      17.209  61.595  41.108  0.00  0.00    +0.111 A 
ENDBRANCH   4   3
ENDBRANCH  10   9
BRANCH  12  13
ATOM     13  N   UNL     1      12.282  51.294  44.256  0.00  0.00    -0.281 N 
ATOM     14  C   UNL     1      11.578  51.273  45.449  0.00  0.00    +0.248 C 
ATOM     30  O   UNL     1      12.084  51.418  46.552  0.00  0.00    -0.270 OA
ATOM     31  H   UNL     1      11.776  50.968  43.432  0.00  0.00    +0.155 HD
BRANCH  14  15
ATOM     15  C   UNL     1      10.101  51.045  45.412  0.00  0.00    +0.037 A 
ATOM     16  C   UNL     1       9.468  50.031  46.259  0.00  0.00    +0.013 A 
ATOM     17  C   UNL     1       8.044  49.819  46.192  0.00  0.00    +0.005 A 
ATOM     18  C   UNL     1       7.242  50.626  45.275  0.00  0.00    -0.033 A 
ATOM     28  C   UNL     1       7.896  51.628  44.450  0.00  0.00    +0.005 A 
ATOM     29  C   UNL     1       9.292  51.838  44.512  0.00  0.00    +0.013 A 
BRANCH  18  19
ATOM     19  C   UNL     1       5.720  50.453  45.122  0.00  0.00    +0.119 C 
BRANCH  19  20
ATOM     20  N   UNL     1       5.238  49.592  44.001  0.00  0.00    -0.302 NA
ATOM     21  C   UNL     1       4.627  50.417  42.864  0.00  0.00    +0.066 C 
ATOM     22  C   UNL     1       4.149  49.502  41.690  0.00  0.00    -0.064 C 
ATOM     23  N   UNL     1       3.141  48.481  42.221  0.00  0.00    +0.379 N 
ATOM     24  C   UNL     1       2.646  47.657  41.109  0.00  0.00    -0.096 C 
ATOM     25  H   UNL     1       2.274  49.046  42.635  0.00  0.00    -0.082 HD
ATOM     26  C   UNL     1       3.740  47.659  43.353  0.00  0.00    -0.064 C 
ATOM     27  C   UNL     1       4.238  48.579  44.501  0.00  0.00    +0.066 C 
ENDBRANCH  19  20
ENDBRANCH  18  19
ENDBRANCH  14  15
ENDBRANCH  12  13
TORSDOF 6
ENDMDL
