MODEL 1
REMARK VINA RESULT:     -11.4      0.000      0.000
REMARK  Name = C:\Users\Docking\Desktop\test protocol\1iep_ligandH.pdb
REMARK  8 active torsions:
REMARK  status: ('A' for Active; 'I' for Inactive)
REMARK    1  A    between atoms: _5  and  _11
REMARK    2  A    between atoms: _19  and  _21
REMARK    3  A    between atoms: _22  and  _66
REMARK    4  A    between atoms: _27  and  _30
REMARK    5  A    between atoms: _32  and  _33
REMARK    6  A    between atoms: _38  and  _43
REMARK    7  A    between atoms: _43  and  _46
REMARK    8  A    between atoms: _53  and  _55
REMARK                            x       y       z     vdW  Elec       q    Type
REMARK                         _______ _______ _______ _____ _____    ______ ____
ROOT
ATOM     10  C   UNL     1      49.818 -27.109  38.094  0.00  0.00    +0.038 A 
ATOM     11  C   UNL     1      50.156 -28.389  38.602  0.00  0.00    +0.047 A 
ATOM     12  C   UNL     1      49.176 -29.203  39.304  0.00  0.00    +0.035 A 
ATOM     32  C   UNL     1      47.859 -28.682  39.469  0.00  0.00    +0.024 A 
ATOM     33  C   UNL     1      47.499 -27.383  38.960  0.00  0.00    +0.007 A 
ATOM     34  C   UNL     1      48.462 -26.574  38.269  0.00  0.00    -0.029 A 
ATOM     35  C   UNL     1      48.022 -25.185  37.750  0.00  0.00    +0.045 C 
ENDROOT
BRANCH  10   9
ATOM      4  C   UNL     1      52.701 -26.320  34.339  0.00  0.00    +0.077 A 
ATOM      5  C   UNL     1      52.233 -27.493  33.658  0.00  0.00    +0.048 A 
ATOM      6  C   UNL     1      51.256 -28.276  34.312  0.00  0.00    +0.116 A 
ATOM      7  N   UNL     1      50.788 -27.904  35.553  0.00  0.00    -0.223 NA
ATOM      8  C   UNL     1      51.261 -26.768  36.183  0.00  0.00    +0.220 A 
ATOM      9  N   UNL     1      50.798 -26.370  37.428  0.00  0.00    -0.283 N 
ATOM     36  H   UNL     1      51.178 -25.529  37.862  0.00  0.00    +0.155 HD
ATOM     37  N   UNL     1      52.195 -26.004  35.580  0.00  0.00    -0.214 NA
BRANCH   4   3
ATOM      1  C   UNL     1      55.709 -24.872  32.301  0.00  0.00    +0.020 A 
ATOM      2  C   UNL     1      54.739 -25.811  32.814  0.00  0.00    +0.013 A 
ATOM      3  C   UNL     1      53.729 -25.389  33.776  0.00  0.00    +0.019 A 
ATOM     38  C   UNL     1      53.728 -23.997  34.201  0.00  0.00    +0.120 A 
ATOM     39  N   UNL     1      54.676 -23.115  33.691  0.00  0.00    -0.263 NA
ATOM     40  C   UNL     1      55.654 -23.511  32.766  0.00  0.00    +0.111 A 
ENDBRANCH   4   3
ENDBRANCH  10   9
BRANCH  12  13
ATOM     13  N   UNL     1      49.463 -30.507  39.849  0.00  0.00    -0.281 N 
ATOM     14  C   UNL     1      48.619 -31.332  40.574  0.00  0.00    +0.248 C 
ATOM     30  O   UNL     1      47.550 -30.980  41.050  0.00  0.00    -0.270 OA
ATOM     31  H   UNL     1      50.403 -30.865  39.679  0.00  0.00    +0.155 HD
BRANCH  14  15
ATOM     15  C   UNL     1      49.029 -32.749  40.817  0.00  0.00    +0.037 A 
ATOM     16  C   UNL     1      48.262 -33.617  41.714  0.00  0.00    +0.013 A 
ATOM     17  C   UNL     1      48.689 -34.975  41.945  0.00  0.00    +0.005 A 
ATOM     18  C   UNL     1      49.888 -35.472  41.276  0.00  0.00    -0.033 A 
ATOM     28  C   UNL     1      50.627 -34.591  40.387  0.00  0.00    +0.005 A 
ATOM     29  C   UNL     1      50.212 -33.259  40.159  0.00  0.00    +0.013 A 
BRANCH  18  19
ATOM     19  C   UNL     1      50.429 -36.900  41.480  0.00  0.00    +0.119 C 
BRANCH  19  20
ATOM     20  N   UNL     1      51.885 -37.122  41.234  0.00  0.00    -0.302 NA
ATOM     21  C   UNL     1      52.145 -38.407  40.444  0.00  0.00    +0.066 C 
ATOM     22  C   UNL     1      53.672 -38.612  40.176  0.00  0.00    -0.064 C 
ATOM     23  N   UNL     1      54.422 -38.634  41.509  0.00  0.00    +0.379 N 
ATOM     24  C   UNL     1      55.850 -38.884  41.264  0.00  0.00    -0.096 C 
ATOM     25  H   UNL     1      54.026 -39.489  42.106  0.00  0.00    -0.082 HD
ATOM     26  C   UNL     1      54.167 -37.360  42.302  0.00  0.00    -0.064 C 
ATOM     27  C   UNL     1      52.645 -37.151  42.538  0.00  0.00    +0.066 C 
ENDBRANCH  19  20
ENDBRANCH  18  19
ENDBRANCH  14  15
ENDBRANCH  12  13
TORSDOF 6
ENDMDL
MODEL 2
REMARK VINA RESULT:     -11.4      4.239      6.152
REMARK  Name = C:\Users\Docking\Desktop\test protocol\1iep_ligandH.pdb
REMARK  8 active torsions:
REMARK  status: ('A' for Active; 'I' for Inactive)
REMARK    1  A    between atoms: _5  and  _11
REMARK    2  A    between atoms: _19  and  _21
REMARK    3  A    between atoms: _22  and  _66
REMARK    4  A    between atoms: _27  and  _30
REMARK    5  A    between atoms: _32  and  _33
REMARK    6  A    between atoms: _38  and  _43
REMARK    7  A    between atoms: _43  and  _46
REMARK    8  A    between atoms: _53  and  _55
REMARK                            x       y       z     vdW  Elec       q    Type
REMARK                         _______ _______ _______ _____ _____    ______ ____
ROOT
ATOM     10  C   UNL     1      50.703 -29.072  35.918  0.00  0.00    +0.038 A 
ATOM     11  C   UNL     1      50.271 -29.459  37.212  0.00  0.00    +0.047 A 
ATOM     12  C   UNL     1      49.549 -30.705  37.423  0.00  0.00    +0.035 A 
ATOM     32  C   UNL     1      49.287 -31.533  36.293  0.00  0.00    +0.024 A 
ATOM     33  C   UNL     1      49.718 -31.154  34.970  0.00  0.00    +0.007 A 
ATOM     34  C   UNL     1      50.428 -29.926  34.756  0.00  0.00    -0.029 A 
ATOM     35  C   UNL     1      50.861 -29.567  33.315  0.00  0.00    +0.045 C 
ENDROOT
BRANCH  10   9
ATOM      4  C   UNL     1      51.277 -24.391  36.812  0.00  0.00    +0.077 A 
ATOM      5  C   UNL     1      50.088 -24.338  37.613  0.00  0.00    +0.048 A 
ATOM      6  C   UNL     1      49.354 -25.536  37.765  0.00  0.00    +0.116 A 
ATOM      7  N   UNL     1      49.786 -26.694  37.156  0.00  0.00    -0.223 NA
ATOM      8  C   UNL     1      50.935 -26.710  36.388  0.00  0.00    +0.220 A 
ATOM      9  N   UNL     1      51.392 -27.866  35.773  0.00  0.00    -0.283 N 
ATOM     36  H   UNL     1      52.241 -27.835  35.208  0.00  0.00    +0.155 HD
ATOM     37  N   UNL     1      51.653 -25.580  36.227  0.00  0.00    -0.214 NA
BRANCH   4   3
ATOM      1  C   UNL     1      54.416 -22.080  36.486  0.00  0.00    +0.020 A 
ATOM      2  C   UNL     1      53.607 -23.249  36.744  0.00  0.00    +0.013 A 
ATOM      3  C   UNL     1      52.161 -23.210  36.560  0.00  0.00    +0.019 A 
ATOM     38  C   UNL     1      51.561 -21.962  36.111  0.00  0.00    +0.120 A 
ATOM     39  N   UNL     1      52.365 -20.852  35.873  0.00  0.00    -0.263 NA
ATOM     40  C   UNL     1      53.757 -20.878  36.048  0.00  0.00    +0.111 A 
ENDBRANCH   4   3
ENDBRANCH  10   9
BRANCH  12  13
ATOM     13  N   UNL     1      49.078 -31.146  38.712  0.00  0.00    -0.281 N 
ATOM     14  C   UNL     1      48.222 -30.486  39.578  0.00  0.00    +0.248 C 
ATOM     30  O   UNL     1      47.898 -29.313  39.468  0.00  0.00    -0.270 OA
ATOM     31  H   UNL     1      49.418 -32.056  39.024  0.00  0.00    +0.155 HD
BRANCH  14  15
ATOM     15  C   UNL     1      47.656 -31.233  40.742  0.00  0.00    +0.037 A 
ATOM     16  C   UNL     1      46.451 -30.764  41.432  0.00  0.00    +0.013 A 
ATOM     17  C   UNL     1      45.935 -31.494  42.563  0.00  0.00    +0.005 A 
ATOM     18  C   UNL     1      46.624 -32.702  43.011  0.00  0.00    -0.033 A 
ATOM     28  C   UNL     1      47.814 -33.147  42.305  0.00  0.00    +0.005 A 
ATOM     29  C   UNL     1      48.324 -32.433  41.197  0.00  0.00    +0.013 A 
BRANCH  18  19
ATOM     19  C   UNL     1      46.157 -33.531  44.221  0.00  0.00    +0.119 C 
BRANCH  19  20
ATOM     20  N   UNL     1      44.712 -33.905  44.277  0.00  0.00    -0.302 NA
ATOM     21  C   UNL     1      44.335 -34.541  45.618  0.00  0.00    +0.066 C 
ATOM     22  C   UNL     1      42.815 -34.905  45.668  0.00  0.00    -0.064 C 
ATOM     23  N   UNL     1      42.481 -35.846  44.509  0.00  0.00    +0.379 N 
ATOM     24  C   UNL     1      41.065 -36.236  44.587  0.00  0.00    -0.096 C 
ATOM     25  H   UNL     1      43.094 -36.769  44.636  0.00  0.00    -0.082 HD
ATOM     26  C   UNL     1      42.855 -35.223  43.172  0.00  0.00    -0.064 C 
ATOM     27  C   UNL     1      44.361 -34.838  43.144  0.00  0.00    +0.066 C 
ENDBRANCH  19  20
ENDBRANCH  18  19
ENDBRANCH  14  15
ENDBRANCH  12  13
TORSDOF 6
ENDMDL
MODEL 3
REMARK VINA RESULT:     -11.0      4.012     12.164
REMARK  Name = C:\Users\Docking\Desktop\test protocol\1iep_ligandH.pdb
REMARK  8 active torsions:
REMARK  status: ('A' for Active; 'I' for Inactive)
REMARK    1  A    between atoms: _5  and  _11
REMARK    2  A    between atoms: _19  and  _21
REMARK    3  A    between atoms: _22  and  _66
REMARK    4  A    between atoms: _27  and  _30
REMARK    5  A    between atoms: _32  and  _33
REMARK    6  A    between atoms: _38  and  _43
REMARK    7  A    between atoms: _43  and  _46
REMARK    8  A    between atoms: _53  and  _55
REMARK                            x       y       z     vdW  Elec       q    Type
REMARK                         _______ _______ _______ _____ _____    ______ ____
ROOT
ATOM     10  C   UNL     1      49.206 -29.525  38.585  0.00  0.00    +0.038 A 
ATOM     11  C   UNL     1      49.835 -28.371  38.052  0.00  0.00    +0.047 A 
ATOM     12  C   UNL     1      49.309 -27.040  38.309  0.00  0.00    +0.035 A 
ATOM     32  C   UNL     1      48.140 -26.920  39.116  0.00  0.00    +0.024 A 
ATOM     33  C   UNL     1      47.487 -28.082  39.665  0.00  0.00    +0.007 A 
ATOM     34  C   UNL     1      48.000 -29.398  39.413  0.00  0.00    -0.029 A 
ATOM     35  C   UNL     1      47.256 -30.608  40.022  0.00  0.00    +0.045 C 
ENDROOT
BRANCH  10   9
ATOM      4  C   UNL     1      50.463 -33.013  35.537  0.00  0.00    +0.077 A 
ATOM      5  C   UNL     1      49.959 -32.287  34.407  0.00  0.00    +0.048 A 
ATOM      6  C   UNL     1      49.378 -31.023  34.653  0.00  0.00    +0.116 A 
ATOM      7  N   UNL     1      49.311 -30.531  35.939  0.00  0.00    -0.223 NA
ATOM      8  C   UNL     1      49.805 -31.257  37.007  0.00  0.00    +0.220 A 
ATOM      9  N   UNL     1      49.755 -30.778  38.307  0.00  0.00    -0.283 N 
ATOM     36  H   UNL     1      50.123 -31.348  39.068  0.00  0.00    +0.155 HD
ATOM     37  N   UNL     1      50.363 -32.468  36.798  0.00  0.00    -0.214 NA
BRANCH   4   3
ATOM      1  C   UNL     1      51.666 -36.644  36.351  0.00  0.00    +0.020 A 
ATOM      2  C   UNL     1      51.025 -35.358  36.497  0.00  0.00    +0.013 A 
ATOM      3  C   UNL     1      51.108 -34.360  35.438  0.00  0.00    +0.019 A 
ATOM     38  C   UNL     1      51.852 -34.699  34.234  0.00  0.00    +0.120 A 
ATOM     39  N   UNL     1      52.460 -35.945  34.122  0.00  0.00    -0.263 NA
ATOM     40  C   UNL     1      52.389 -36.913  35.135  0.00  0.00    +0.111 A 
ENDBRANCH   4   3
ENDBRANCH  10   9
BRANCH  12  13
ATOM     13  N   UNL     1      49.900 -25.832  37.787  0.00  0.00    -0.281 N 
ATOM     14  C   UNL     1      51.246 -25.523  37.676  0.00  0.00    +0.248 C 
ATOM     30  O   UNL     1      52.147 -26.154  38.208  0.00  0.00    -0.270 OA
ATOM     31  H   UNL     1      49.248 -25.120  37.460  0.00  0.00    +0.155 HD
BRANCH  14  15
ATOM     15  C   UNL     1      51.648 -24.331  36.868  0.00  0.00    +0.037 A 
ATOM     16  C   UNL     1      50.820 -23.123  36.832  0.00  0.00    +0.013 A 
ATOM     17  C   UNL     1      51.222 -21.994  36.031  0.00  0.00    +0.005 A 
ATOM     18  C   UNL     1      52.462 -22.068  35.261  0.00  0.00    -0.033 A 
ATOM     28  C   UNL     1      53.267 -23.277  35.319  0.00  0.00    +0.005 A 
ATOM     29  C   UNL     1      52.875 -24.385  36.102  0.00  0.00    +0.013 A 
BRANCH  18  19
ATOM     19  C   UNL     1      52.958 -20.919  34.363  0.00  0.00    +0.119 C 
BRANCH  19  20
ATOM     20  N   UNL     1      52.507 -20.921  32.939  0.00  0.00    -0.302 NA
ATOM     21  C   UNL     1      53.687 -20.927  31.963  0.00  0.00    +0.066 C 
ATOM     22  C   UNL     1      53.197 -20.952  30.478  0.00  0.00    -0.064 C 
ATOM     23  N   UNL     1      52.289 -19.747  30.224  0.00  0.00    +0.379 N 
ATOM     24  C   UNL     1      51.874 -19.735  28.813  0.00  0.00    -0.096 C 
ATOM     25  H   UNL     1      52.891 -18.826  30.407  0.00  0.00    -0.082 HD
ATOM     26  C   UNL     1      51.115 -19.731  31.192  0.00  0.00    -0.064 C 
ATOM     27  C   UNL     1      51.613 -19.737  32.664  0.00  0.00    +0.066 C 
ENDBRANCH  19  20
ENDBRANCH  18  19
ENDBRANCH  14  15
ENDBRANCH  12  13
TORSDOF 6
ENDMDL
MODEL 4
REMARK VINA RESULT:     -10.8      5.565     14.352
REMARK  Name = C:\Users\Docking\Desktop\test protocol\1iep_ligandH.pdb
REMARK  8 active torsions:
REMARK  status: ('A' for Active; 'I' for Inactive)
REMARK    1  A    between atoms: _5  and  _11
REMARK    2  A    between atoms: _19  and  _21
REMARK    3  A    between atoms: _22  and  _66
REMARK    4  A    between atoms: _27  and  _30
REMARK    5  A    between atoms: _32  and  _33
REMARK    6  A    between atoms: _38  and  _43
REMARK    7  A    between atoms: _43  and  _46
REMARK    8  A    between atoms: _53  and  _55
REMARK                            x       y       z     vdW  Elec       q    Type
REMARK                         _______ _______ _______ _____ _____    ______ ____
ROOT
ATOM     10  C   UNL     1      52.288 -27.004  37.322  0.00  0.00    +0.038 A 
ATOM     11  C   UNL     1      51.713 -25.715  37.181  0.00  0.00    +0.047 A 
ATOM     12  C   UNL     1      52.235 -24.760  36.216  0.00  0.00    +0.035 A 
ATOM     32  C   UNL     1      53.343 -25.152  35.408  0.00  0.00    +0.024 A 
ATOM     33  C   UNL     1      53.940 -26.458  35.539  0.00  0.00    +0.007 A 
ATOM     34  C   UNL     1      53.430 -27.403  36.491  0.00  0.00    -0.029 A 
ATOM     35  C   UNL     1      54.114 -28.787  36.594  0.00  0.00    +0.045 C 
ENDROOT
BRANCH  10   9
ATOM      4  C   UNL     1      49.216 -30.457  38.616  0.00  0.00    +0.077 A 
ATOM      5  C   UNL     1      48.621 -30.499  37.311  0.00  0.00    +0.048 A 
ATOM      6  C   UNL     1      49.130 -29.610  36.337  0.00  0.00    +0.116 A 
ATOM      7  N   UNL     1      50.157 -28.749  36.656  0.00  0.00    -0.223 NA
ATOM      8  C   UNL     1      50.707 -28.733  37.924  0.00  0.00    +0.220 A 
ATOM      9  N   UNL     1      51.746 -27.881  38.265  0.00  0.00    -0.283 N 
ATOM     36  H   UNL     1      52.120 -27.894  39.213  0.00  0.00    +0.155 HD
ATOM     37  N   UNL     1      50.238 -29.571  38.872  0.00  0.00    -0.214 NA
BRANCH   4   3
ATOM      1  C   UNL     1      49.072 -33.343  41.252  0.00  0.00    +0.020 A 
ATOM      2  C   UNL     1      49.527 -32.529  40.148  0.00  0.00    +0.013 A 
ATOM      3  C   UNL     1      48.790 -31.336  39.750  0.00  0.00    +0.019 A 
ATOM     38  C   UNL     1      47.588 -30.992  40.496  0.00  0.00    +0.120 A 
ATOM     39  N   UNL     1      47.174 -31.796  41.553  0.00  0.00    -0.263 NA
ATOM     40  C   UNL     1      47.874 -32.947  41.944  0.00  0.00    +0.111 A 
ENDBRANCH   4   3
ENDBRANCH  10   9
BRANCH  12  13
ATOM     13  N   UNL     1      51.698 -23.434  36.033  0.00  0.00    -0.281 N 
ATOM     14  C   UNL     1      52.346 -22.222  36.205  0.00  0.00    +0.248 C 
ATOM     30  O   UNL     1      53.432 -22.089  36.751  0.00  0.00    -0.270 OA
ATOM     31  H   UNL     1      50.722 -23.383  35.742  0.00  0.00    +0.155 HD
BRANCH  14  15
ATOM     15  C   UNL     1      51.687 -20.974  35.711  0.00  0.00    +0.037 A 
ATOM     16  C   UNL     1      51.709 -19.740  36.499  0.00  0.00    +0.013 A 
ATOM     17  C   UNL     1      51.051 -18.555  36.008  0.00  0.00    +0.005 A 
ATOM     18  C   UNL     1      50.365 -18.600  34.719  0.00  0.00    -0.033 A 
ATOM     28  C   UNL     1      50.363 -19.837  33.955  0.00  0.00    +0.005 A 
ATOM     29  C   UNL     1      51.006 -21.000  34.434  0.00  0.00    +0.013 A 
BRANCH  18  19
ATOM     19  C   UNL     1      49.618 -17.391  34.126  0.00  0.00    +0.119 C 
BRANCH  19  20
ATOM     20  N   UNL     1      48.220 -17.154  34.594  0.00  0.00    -0.302 NA
ATOM     21  C   UNL     1      47.241 -17.003  33.427  0.00  0.00    +0.066 C 
ATOM     22  C   UNL     1      45.779 -16.778  33.935  0.00  0.00    -0.064 C 
ATOM     23  N   UNL     1      45.740 -15.544  34.838  0.00  0.00    +0.379 N 
ATOM     24  C   UNL     1      44.357 -15.297  35.271  0.00  0.00    -0.096 C 
ATOM     25  H   UNL     1      46.066 -14.669  34.229  0.00  0.00    -0.082 HD
ATOM     26  C   UNL     1      46.713 -15.685  36.000  0.00  0.00    -0.064 C 
ATOM     27  C   UNL     1      48.158 -15.937  35.485  0.00  0.00    +0.066 C 
ENDBRANCH  19  20
ENDBRANCH  18  19
ENDBRANCH  14  15
ENDBRANCH  12  13
TORSDOF 6
ENDMDL
MODEL 5
REMARK VINA RESULT:     -10.8      4.349     13.094
REMARK  Name = C:\Users\Docking\Desktop\test protocol\1iep_ligandH.pdb
REMARK  8 active torsions:
REMARK  status: ('A' for Active; 'I' for Inactive)
REMARK    1  A    between atoms: _5  and  _11
REMARK    2  A    between atoms: _19  and  _21
REMARK    3  A    between atoms: _22  and  _66
REMARK    4  A    between atoms: _27  and  _30
REMARK    5  A    between atoms: _32  and  _33
REMARK    6  A    between atoms: _38  and  _43
REMARK    7  A    between atoms: _43  and  _46
REMARK    8  A    between atoms: _53  and  _55
REMARK                            x       y       z     vdW  Elec       q    Type
REMARK                         _______ _______ _______ _____ _____    ______ ____
ROOT
ATOM     10  C   UNL     1      50.436 -31.390  35.860  0.00  0.00    +0.038 A 
ATOM     11  C   UNL     1      50.857 -30.051  35.660  0.00  0.00    +0.047 A 
ATOM     12  C   UNL     1      51.487 -29.637  34.416  0.00  0.00    +0.035 A 
ATOM     32  C   UNL     1      51.670 -30.614  33.394  0.00  0.00    +0.024 A 
ATOM     33  C   UNL     1      51.248 -31.980  33.580  0.00  0.00    +0.007 A 
ATOM     34  C   UNL     1      50.629 -32.394  34.806  0.00  0.00    -0.029 A 
ATOM     35  C   UNL     1      50.203 -33.874  34.953  0.00  0.00    +0.045 C 
ENDROOT
BRANCH  10   9
ATOM      4  C   UNL     1      47.959 -30.281  39.818  0.00  0.00    +0.077 A 
ATOM      5  C   UNL     1      47.875 -28.897  39.449  0.00  0.00    +0.048 A 
ATOM      6  C   UNL     1      48.488 -28.510  38.236  0.00  0.00    +0.116 A 
ATOM      7  N   UNL     1      49.135 -29.446  37.459  0.00  0.00    -0.223 NA
ATOM      8  C   UNL     1      49.199 -30.773  37.845  0.00  0.00    +0.220 A 
ATOM      9  N   UNL     1      49.837 -31.732  37.074  0.00  0.00    -0.283 N 
ATOM     36  H   UNL     1      49.869 -32.699  37.397  0.00  0.00    +0.155 HD
ATOM     37  N   UNL     1      48.623 -31.167  38.999  0.00  0.00    -0.214 NA
BRANCH   4   3
ATOM      1  C   UNL     1      45.661 -30.834  42.935  0.00  0.00    +0.020 A 
ATOM      2  C   UNL     1      46.203 -30.251  41.729  0.00  0.00    +0.013 A 
ATOM      3  C   UNL     1      47.359 -30.844  41.069  0.00  0.00    +0.019 A 
ATOM     38  C   UNL     1      47.947 -32.037  41.658  0.00  0.00    +0.120 A 
ATOM     39  N   UNL     1      47.404 -32.576  42.820  0.00  0.00    -0.263 NA
ATOM     40  C   UNL     1      46.293 -32.013  43.466  0.00  0.00    +0.111 A 
ENDBRANCH   4   3
ENDBRANCH  10   9
BRANCH  12  13
ATOM     13  N   UNL     1      51.943 -28.293  34.160  0.00  0.00    -0.281 N 
ATOM     14  C   UNL     1      53.095 -27.681  34.625  0.00  0.00    +0.248 C 
ATOM     30  O   UNL     1      53.806 -28.131  35.512  0.00  0.00    -0.270 OA
ATOM     31  H   UNL     1      51.343 -27.724  33.563  0.00  0.00    +0.155 HD
BRANCH  14  15
ATOM     15  C   UNL     1      53.509 -26.374  34.030  0.00  0.00    +0.037 A 
ATOM     16  C   UNL     1      54.812 -26.215  33.378  0.00  0.00    +0.013 A 
ATOM     17  C   UNL     1      55.193 -24.939  32.827  0.00  0.00    +0.005 A 
ATOM     18  C   UNL     1      54.270 -23.811  32.925  0.00  0.00    -0.033 A 
ATOM     28  C   UNL     1      52.982 -23.998  33.573  0.00  0.00    +0.005 A 
ATOM     29  C   UNL     1      52.605 -25.247  34.115  0.00  0.00    +0.013 A 
BRANCH  18  19
ATOM     19  C   UNL     1      54.603 -22.408  32.384  0.00  0.00    +0.119 C 
BRANCH  19  20
ATOM     20  N   UNL     1      53.699 -21.848  31.336  0.00  0.00    -0.302 NA
ATOM     21  C   UNL     1      54.353 -21.856  29.951  0.00  0.00    +0.066 C 
ATOM     22  C   UNL     1      53.386 -21.287  28.862  0.00  0.00    -0.064 C 
ATOM     23  N   UNL     1      52.960 -19.870  29.252  0.00  0.00    +0.379 N 
ATOM     24  C   UNL     1      52.097 -19.311  28.201  0.00  0.00    -0.096 C 
ATOM     25  H   UNL     1      53.880 -19.243  29.303  0.00  0.00    -0.082 HD
ATOM     26  C   UNL     1      52.312 -19.853  30.629  0.00  0.00    -0.064 C 
ATOM     27  C   UNL     1      53.270 -20.447  31.698  0.00  0.00    +0.066 C 
ENDBRANCH  19  20
ENDBRANCH  18  19
ENDBRANCH  14  15
ENDBRANCH  12  13
TORSDOF 6
ENDMDL
