MODEL 1
REMARK VINA RESULT:      -9.0      0.000      0.000
REMARK  Name = C:\Users\Docking\Desktop\test protocol\1iep_ligandH.pdb
REMARK  8 active torsions:
REMARK  status: ('A' for Active; 'I' for Inactive)
REMARK    1  A    between atoms: _5  and  _11
REMARK    2  A    between atoms: _19  and  _21
REMARK    3  A    between atoms: _22  and  _66
REMARK    4  A    between atoms: _27  and  _30
REMARK    5  A    between atoms: _32  and  _33
REMARK    6  A    between atoms: _38  and  _43
REMARK    7  A    between atoms: _43  and  _46
REMARK    8  A    between atoms: _53  and  _55
REMARK                            x       y       z     vdW  Elec       q    Type
REMARK                         _______ _______ _______ _____ _____    ______ ____
ROOT
ATOM     10  C   UNL     1       9.494  28.802  21.367  0.00  0.00    +0.038 A 
ATOM     11  C   UNL     1       8.824  29.863  20.706  0.00  0.00    +0.047 A 
ATOM     12  C   UNL     1       8.067  30.856  21.452  0.00  0.00    +0.035 A 
ATOM     32  C   UNL     1       8.016  30.739  22.872  0.00  0.00    +0.024 A 
ATOM     33  C   UNL     1       8.690  29.666  23.560  0.00  0.00    +0.007 A 
ATOM     34  C   UNL     1       9.436  28.683  22.829  0.00  0.00    -0.029 A 
ATOM     35  C   UNL     1      10.134  27.551  23.618  0.00  0.00    +0.045 C 
ENDROOT
BRANCH  10   9
ATOM      4  C   UNL     1       9.855  24.624  19.032  0.00  0.00    +0.077 A 
ATOM      5  C   UNL     1       8.520  24.240  19.392  0.00  0.00    +0.048 A 
ATOM      6  C   UNL     1       7.777  25.143  20.185  0.00  0.00    +0.116 A 
ATOM      7  N   UNL     1       8.336  26.338  20.582  0.00  0.00    -0.223 NA
ATOM      8  C   UNL     1       9.627  26.677  20.219  0.00  0.00    +0.220 A 
ATOM      9  N   UNL     1      10.207  27.877  20.601  0.00  0.00    -0.283 N 
ATOM     36  H   UNL     1      11.164  28.086  20.319  0.00  0.00    +0.155 HD
ATOM     37  N   UNL     1      10.358  25.831  19.464  0.00  0.00    -0.214 NA
BRANCH   4   3
ATOM      1  C   UNL     1      12.995  23.270  17.133  0.00  0.00    +0.020 A 
ATOM      2  C   UNL     1      12.159  24.121  17.948  0.00  0.00    +0.013 A 
ATOM      3  C   UNL     1      10.765  23.778  18.196  0.00  0.00    +0.019 A 
ATOM     38  C   UNL     1      10.243  22.557  17.601  0.00  0.00    +0.120 A 
ATOM     39  N   UNL     1      11.071  21.758  16.820  0.00  0.00    -0.263 NA
ATOM     40  C   UNL     1      12.414  22.078  16.573  0.00  0.00    +0.111 A 
ENDBRANCH   4   3
ENDBRANCH  10   9
BRANCH  12  13
ATOM     13  N   UNL     1       7.360  31.950  20.835  0.00  0.00    -0.281 N 
ATOM     14  C   UNL     1       7.430  33.297  21.153  0.00  0.00    +0.248 C 
ATOM     30  O   UNL     1       7.955  33.742  22.163  0.00  0.00    -0.270 OA
ATOM     31  H   UNL     1       6.731  31.702  20.072  0.00  0.00    +0.155 HD
BRANCH  14  15
ATOM     15  C   UNL     1       6.817  34.291  20.221  0.00  0.00    +0.037 A 
ATOM     16  C   UNL     1       5.462  34.803  20.440  0.00  0.00    +0.013 A 
ATOM     17  C   UNL     1       4.888  35.749  19.516  0.00  0.00    +0.005 A 
ATOM     18  C   UNL     1       5.671  36.191  18.364  0.00  0.00    -0.033 A 
ATOM     28  C   UNL     1       7.015  35.671  18.174  0.00  0.00    +0.005 A 
ATOM     29  C   UNL     1       7.580  34.743  19.077  0.00  0.00    +0.013 A 
BRANCH  18  19
ATOM     19  C   UNL     1       5.130  37.181  17.316  0.00  0.00    +0.119 C 
BRANCH  19  20
ATOM     20  N   UNL     1       5.344  38.636  17.576  0.00  0.00    -0.302 NA
ATOM     21  C   UNL     1       4.383  39.177  18.639  0.00  0.00    +0.066 C 
ATOM     22  C   UNL     1       4.635  40.695  18.915  0.00  0.00    -0.064 C 
ATOM     23  N   UNL     1       4.494  41.478  17.609  0.00  0.00    +0.379 N 
ATOM     24  C   UNL     1       4.673  42.913  17.876  0.00  0.00    -0.096 C 
ATOM     25  H   UNL     1       3.453  41.330  17.238  0.00  0.00    -0.082 HD
ATOM     26  C   UNL     1       5.444  40.946  16.546  0.00  0.00    -0.064 C 
ATOM     27  C   UNL     1       5.205  39.430  16.300  0.00  0.00    +0.066 C 
ENDBRANCH  19  20
ENDBRANCH  18  19
ENDBRANCH  14  15
ENDBRANCH  12  13
TORSDOF 6
ENDMDL
MODEL 2
REMARK VINA RESULT:      -8.9      5.235     13.495
REMARK  Name = C:\Users\Docking\Desktop\test protocol\1iep_ligandH.pdb
REMARK  8 active torsions:
REMARK  status: ('A' for Active; 'I' for Inactive)
REMARK    1  A    between atoms: _5  and  _11
REMARK    2  A    between atoms: _19  and  _21
REMARK    3  A    between atoms: _22  and  _66
REMARK    4  A    between atoms: _27  and  _30
REMARK    5  A    between atoms: _32  and  _33
REMARK    6  A    between atoms: _38  and  _43
REMARK    7  A    between atoms: _43  and  _46
REMARK    8  A    between atoms: _53  and  _55
REMARK                            x       y       z     vdW  Elec       q    Type
REMARK                         _______ _______ _______ _____ _____    ______ ____
ROOT
ATOM     10  C   UNL     1       9.697  25.433  18.896  0.00  0.00    +0.038 A 
ATOM     11  C   UNL     1      11.074  25.309  18.581  0.00  0.00    +0.047 A 
ATOM     12  C   UNL     1      11.714  24.005  18.499  0.00  0.00    +0.035 A 
ATOM     32  C   UNL     1      10.919  22.847  18.740  0.00  0.00    +0.024 A 
ATOM     33  C   UNL     1       9.518  22.954  19.062  0.00  0.00    +0.007 A 
ATOM     34  C   UNL     1       8.882  24.238  19.147  0.00  0.00    -0.029 A 
ATOM     35  C   UNL     1       7.378  24.293  19.503  0.00  0.00    +0.045 C 
ENDROOT
BRANCH  10   9
ATOM      4  C   UNL     1       8.365  29.351  21.327  0.00  0.00    +0.077 A 
ATOM      5  C   UNL     1       8.803  28.797  22.576  0.00  0.00    +0.048 A 
ATOM      6  C   UNL     1       9.358  27.498  22.550  0.00  0.00    +0.116 A 
ATOM      7  N   UNL     1       9.464  26.814  21.359  0.00  0.00    -0.223 NA
ATOM      8  C   UNL     1       9.031  27.376  20.172  0.00  0.00    +0.220 A 
ATOM      9  N   UNL     1       9.134  26.709  18.962  0.00  0.00    -0.283 N 
ATOM     36  H   UNL     1       8.797  27.156  18.109  0.00  0.00    +0.155 HD
ATOM     37  N   UNL     1       8.495  28.615  20.170  0.00  0.00    -0.214 NA
BRANCH   4   3
ATOM      1  C   UNL     1       6.717  32.572  19.840  0.00  0.00    +0.020 A 
ATOM      2  C   UNL     1       7.294  31.250  19.917  0.00  0.00    +0.013 A 
ATOM      3  C   UNL     1       7.760  30.714  21.190  0.00  0.00    +0.019 A 
ATOM     38  C   UNL     1       7.626  31.548  22.375  0.00  0.00    +0.120 A 
ATOM     39  N   UNL     1       7.068  32.818  22.270  0.00  0.00    -0.263 NA
ATOM     40  C   UNL     1       6.617  33.345  21.050  0.00  0.00    +0.111 A 
ENDBRANCH   4   3
ENDBRANCH  10   9
BRANCH  12  13
ATOM     13  N   UNL     1      13.110  23.819  18.192  0.00  0.00    -0.281 N 
ATOM     14  C   UNL     1      13.663  23.232  17.065  0.00  0.00    +0.248 C 
ATOM     30  O   UNL     1      13.033  22.583  16.244  0.00  0.00    -0.270 OA
ATOM     31  H   UNL     1      13.771  24.160  18.890  0.00  0.00    +0.155 HD
BRANCH  14  15
ATOM     15  C   UNL     1      15.131  23.375  16.824  0.00  0.00    +0.037 A 
ATOM     16  C   UNL     1      16.009  23.992  17.822  0.00  0.00    +0.013 A 
ATOM     17  C   UNL     1      17.419  24.132  17.556  0.00  0.00    +0.005 A 
ATOM     18  C   UNL     1      17.960  23.653  16.287  0.00  0.00    -0.033 A 
ATOM     28  C   UNL     1      17.067  23.040  15.317  0.00  0.00    +0.005 A 
ATOM     29  C   UNL     1      15.685  22.901  15.573  0.00  0.00    +0.013 A 
BRANCH  18  19
ATOM     19  C   UNL     1      19.448  23.781  15.910  0.00  0.00    +0.119 C 
BRANCH  19  20
ATOM     20  N   UNL     1      20.008  25.161  15.796  0.00  0.00    -0.302 NA
ATOM     21  C   UNL     1      19.292  25.984  14.722  0.00  0.00    +0.066 C 
ATOM     22  C   UNL     1      19.876  27.432  14.631  0.00  0.00    -0.064 C 
ATOM     23  N   UNL     1      21.377  27.357  14.346  0.00  0.00    +0.379 N 
ATOM     24  C   UNL     1      21.917  28.716  14.202  0.00  0.00    -0.096 C 
ATOM     25  H   UNL     1      21.509  26.835  13.369  0.00  0.00    -0.082 HD
ATOM     26  C   UNL     1      22.096  26.537  15.408  0.00  0.00    -0.064 C 
ATOM     27  C   UNL     1      21.489  25.110  15.510  0.00  0.00    +0.066 C 
ENDBRANCH  19  20
ENDBRANCH  18  19
ENDBRANCH  14  15
ENDBRANCH  12  13
TORSDOF 6
ENDMDL
MODEL 3
REMARK VINA RESULT:      -8.8      4.602     14.262
REMARK  Name = C:\Users\Docking\Desktop\test protocol\1iep_ligandH.pdb
REMARK  8 active torsions:
REMARK  status: ('A' for Active; 'I' for Inactive)
REMARK    1  A    between atoms: _5  and  _11
REMARK    2  A    between atoms: _19  and  _21
REMARK    3  A    between atoms: _22  and  _66
REMARK    4  A    between atoms: _27  and  _30
REMARK    5  A    between atoms: _32  and  _33
REMARK    6  A    between atoms: _38  and  _43
REMARK    7  A    between atoms: _43  and  _46
REMARK    8  A    between atoms: _53  and  _55
REMARK                            x       y       z     vdW  Elec       q    Type
REMARK                         _______ _______ _______ _____ _____    ______ ____
ROOT
ATOM     10  C   UNL     1       9.136  26.123  20.001  0.00  0.00    +0.038 A 
ATOM     11  C   UNL     1      10.449  25.866  19.529  0.00  0.00    +0.047 A 
ATOM     12  C   UNL     1      11.058  24.553  19.676  0.00  0.00    +0.035 A 
ATOM     32  C   UNL     1      10.300  23.524  20.306  0.00  0.00    +0.024 A 
ATOM     33  C   UNL     1       8.965  23.767  20.793  0.00  0.00    +0.007 A 
ATOM     34  C   UNL     1       8.360  25.061  20.653  0.00  0.00    -0.029 A 
ATOM     35  C   UNL     1       6.927  25.267  21.199  0.00  0.00    +0.045 C 
ENDROOT
BRANCH  10   9
ATOM      4  C   UNL     1       8.014  30.490  21.645  0.00  0.00    +0.077 A 
ATOM      5  C   UNL     1       8.514  30.190  22.956  0.00  0.00    +0.048 A 
ATOM      6  C   UNL     1       9.045  28.898  23.168  0.00  0.00    +0.116 A 
ATOM      7  N   UNL     1       9.070  27.982  22.138  0.00  0.00    -0.223 NA
ATOM      8  C   UNL     1       8.578  28.304  20.886  0.00  0.00    +0.220 A 
ATOM      9  N   UNL     1       8.600  27.402  19.834  0.00  0.00    -0.283 N 
ATOM     36  H   UNL     1       8.221  27.675  18.927  0.00  0.00    +0.155 HD
ATOM     37  N   UNL     1       8.065  29.531  20.659  0.00  0.00    -0.214 NA
BRANCH   4   3
ATOM      1  C   UNL     1       6.024  33.293  19.777  0.00  0.00    +0.020 A 
ATOM      2  C   UNL     1       6.568  31.993  20.101  0.00  0.00    +0.013 A 
ATOM      3  C   UNL     1       7.426  31.813  21.265  0.00  0.00    +0.019 A 
ATOM     38  C   UNL     1       7.717  32.977  22.088  0.00  0.00    +0.120 A 
ATOM     39  N   UNL     1       7.180  34.216  21.751  0.00  0.00    -0.263 NA
ATOM     40  C   UNL     1       6.355  34.402  20.633  0.00  0.00    +0.111 A 
ENDBRANCH   4   3
ENDBRANCH  10   9
BRANCH  12  13
ATOM     13  N   UNL     1      12.390  24.236  19.224  0.00  0.00    -0.281 N 
ATOM     14  C   UNL     1      12.760  23.567  18.069  0.00  0.00    +0.248 C 
ATOM     30  O   UNL     1      11.989  22.948  17.351  0.00  0.00    -0.270 OA
ATOM     31  H   UNL     1      13.152  24.542  19.829  0.00  0.00    +0.155 HD
BRANCH  14  15
ATOM     15  C   UNL     1      14.198  23.573  17.660  0.00  0.00    +0.037 A 
ATOM     16  C   UNL     1      14.590  23.409  16.258  0.00  0.00    +0.013 A 
ATOM     17  C   UNL     1      15.984  23.402  15.893  0.00  0.00    +0.005 A 
ATOM     18  C   UNL     1      16.998  23.562  16.934  0.00  0.00    -0.033 A 
ATOM     28  C   UNL     1      16.581  23.728  18.316  0.00  0.00    +0.005 A 
ATOM     29  C   UNL     1      15.215  23.734  18.678  0.00  0.00    +0.013 A 
BRANCH  18  19
ATOM     19  C   UNL     1      18.509  23.545  16.638  0.00  0.00    +0.119 C 
BRANCH  19  20
ATOM     20  N   UNL     1      18.943  22.990  15.321  0.00  0.00    -0.302 NA
ATOM     21  C   UNL     1      18.884  21.460  15.295  0.00  0.00    +0.066 C 
ATOM     22  C   UNL     1      19.319  20.898  13.903  0.00  0.00    -0.064 C 
ATOM     23  N   UNL     1      20.729  21.391  13.575  0.00  0.00    +0.379 N 
ATOM     24  C   UNL     1      21.164  20.817  12.293  0.00  0.00    -0.096 C 
ATOM     25  H   UNL     1      21.414  21.008  14.367  0.00  0.00    -0.082 HD
ATOM     26  C   UNL     1      20.797  22.911  13.601  0.00  0.00    -0.064 C 
ATOM     27  C   UNL     1      20.335  23.462  14.979  0.00  0.00    +0.066 C 
ENDBRANCH  19  20
ENDBRANCH  18  19
ENDBRANCH  14  15
ENDBRANCH  12  13
TORSDOF 6
ENDMDL
MODEL 4
REMARK VINA RESULT:      -8.8      2.169      4.172
REMARK  Name = C:\Users\Docking\Desktop\test protocol\1iep_ligandH.pdb
REMARK  8 active torsions:
REMARK  status: ('A' for Active; 'I' for Inactive)
REMARK    1  A    between atoms: _5  and  _11
REMARK    2  A    between atoms: _19  and  _21
REMARK    3  A    between atoms: _22  and  _66
REMARK    4  A    between atoms: _27  and  _30
REMARK    5  A    between atoms: _32  and  _33
REMARK    6  A    between atoms: _38  and  _43
REMARK    7  A    between atoms: _43  and  _46
REMARK    8  A    between atoms: _53  and  _55
REMARK                            x       y       z     vdW  Elec       q    Type
REMARK                         _______ _______ _______ _____ _____    ______ ____
ROOT
ATOM     10  C   UNL     1       9.116  25.110  20.111  0.00  0.00    +0.038 A 
ATOM     11  C   UNL     1       8.726  26.473  20.143  0.00  0.00    +0.047 A 
ATOM     12  C   UNL     1       8.034  27.031  21.295  0.00  0.00    +0.035 A 
ATOM     32  C   UNL     1       7.759  26.172  22.399  0.00  0.00    +0.024 A 
ATOM     33  C   UNL     1       8.148  24.784  22.383  0.00  0.00    +0.007 A 
ATOM     34  C   UNL     1       8.828  24.227  21.248  0.00  0.00    -0.029 A 
ATOM     35  C   UNL     1       9.216  22.731  21.283  0.00  0.00    +0.045 C 
ENDROOT
BRANCH  10   9
ATOM      4  C   UNL     1      13.073  23.637  17.827  0.00  0.00    +0.077 A 
ATOM      5  C   UNL     1      13.897  23.875  18.977  0.00  0.00    +0.048 A 
ATOM      6  C   UNL     1      13.265  24.383  20.134  0.00  0.00    +0.116 A 
ATOM      7  N   UNL     1      11.909  24.631  20.130  0.00  0.00    -0.223 NA
ATOM      8  C   UNL     1      11.144  24.392  19.003  0.00  0.00    +0.220 A 
ATOM      9  N   UNL     1       9.778  24.627  18.979  0.00  0.00    -0.283 N 
ATOM     36  H   UNL     1       9.250  24.444  18.126  0.00  0.00    +0.155 HD
ATOM     37  N   UNL     1      11.724  23.908  17.885  0.00  0.00    -0.214 NA
BRANCH   4   3
ATOM      1  C   UNL     1      13.276  22.200  14.194  0.00  0.00    +0.020 A 
ATOM      2  C   UNL     1      12.723  22.715  15.426  0.00  0.00    +0.013 A 
ATOM      3  C   UNL     1      13.593  23.098  16.530  0.00  0.00    +0.019 A 
ATOM     38  C   UNL     1      15.030  22.948  16.355  0.00  0.00    +0.120 A 
ATOM     39  N   UNL     1      15.534  22.448  15.159  0.00  0.00    -0.263 NA
ATOM     40  C   UNL     1      14.706  22.074  14.089  0.00  0.00    +0.111 A 
ENDBRANCH   4   3
ENDBRANCH  10   9
BRANCH  12  13
ATOM     13  N   UNL     1       7.606  28.405  21.380  0.00  0.00    -0.281 N 
ATOM     14  C   UNL     1       8.356  29.546  21.152  0.00  0.00    +0.248 C 
ATOM     30  O   UNL     1       9.574  29.564  21.047  0.00  0.00    -0.270 OA
ATOM     31  H   UNL     1       6.631  28.554  21.641  0.00  0.00    +0.155 HD
BRANCH  14  15
ATOM     15  C   UNL     1       7.654  30.861  21.039  0.00  0.00    +0.037 A 
ATOM     16  C   UNL     1       6.947  31.242  19.813  0.00  0.00    +0.013 A 
ATOM     17  C   UNL     1       6.293  32.523  19.725  0.00  0.00    +0.005 A 
ATOM     18  C   UNL     1       6.342  33.433  20.867  0.00  0.00    -0.033 A 
ATOM     28  C   UNL     1       7.046  33.028  22.072  0.00  0.00    +0.005 A 
ATOM     29  C   UNL     1       7.689  31.773  22.162  0.00  0.00    +0.013 A 
BRANCH  18  19
ATOM     19  C   UNL     1       5.690  34.828  20.853  0.00  0.00    +0.119 C 
BRANCH  19  20
ATOM     20  N   UNL     1       5.345  35.409  19.521  0.00  0.00    -0.302 NA
ATOM     21  C   UNL     1       6.573  35.986  18.811  0.00  0.00    +0.066 C 
ATOM     22  C   UNL     1       6.198  36.569  17.409  0.00  0.00    -0.064 C 
ATOM     23  N   UNL     1       5.117  37.638  17.577  0.00  0.00    +0.379 N 
ATOM     24  C   UNL     1       4.804  38.229  16.267  0.00  0.00    -0.096 C 
ATOM     25  H   UNL     1       5.537  38.445  18.221  0.00  0.00    -0.082 HD
ATOM     26  C   UNL     1       3.893  37.073  18.284  0.00  0.00    -0.064 C 
ATOM     27  C   UNL     1       4.282  36.470  19.663  0.00  0.00    +0.066 C 
ENDBRANCH  19  20
ENDBRANCH  18  19
ENDBRANCH  14  15
ENDBRANCH  12  13
TORSDOF 6
ENDMDL
MODEL 5
REMARK VINA RESULT:      -8.6      2.988      4.403
REMARK  Name = C:\Users\Docking\Desktop\test protocol\1iep_ligandH.pdb
REMARK  8 active torsions:
REMARK  status: ('A' for Active; 'I' for Inactive)
REMARK    1  A    between atoms: _5  and  _11
REMARK    2  A    between atoms: _19  and  _21
REMARK    3  A    between atoms: _22  and  _66
REMARK    4  A    between atoms: _27  and  _30
REMARK    5  A    between atoms: _32  and  _33
REMARK    6  A    between atoms: _38  and  _43
REMARK    7  A    between atoms: _43  and  _46
REMARK    8  A    between atoms: _53  and  _55
REMARK                            x       y       z     vdW  Elec       q    Type
REMARK                         _______ _______ _______ _____ _____    ______ ____
ROOT
ATOM     10  C   UNL     1       8.710  25.129  20.509  0.00  0.00    +0.038 A 
ATOM     11  C   UNL     1       8.385  26.507  20.439  0.00  0.00    +0.047 A 
ATOM     12  C   UNL     1       7.900  27.226  21.607  0.00  0.00    +0.035 A 
ATOM     32  C   UNL     1       7.760  26.510  22.831  0.00  0.00    +0.024 A 
ATOM     33  C   UNL     1       8.084  25.108  22.919  0.00  0.00    +0.007 A 
ATOM     34  C   UNL     1       8.561  24.393  21.770  0.00  0.00    -0.029 A 
ATOM     35  C   UNL     1       8.888  22.889  21.922  0.00  0.00    +0.045 C 
ENDROOT
BRANCH  10   9
ATOM      4  C   UNL     1      12.234  23.344  17.783  0.00  0.00    +0.077 A 
ATOM      5  C   UNL     1      13.243  23.744  18.721  0.00  0.00    +0.048 A 
ATOM      6  C   UNL     1      12.814  24.414  19.889  0.00  0.00    +0.116 A 
ATOM      7  N   UNL     1      11.473  24.658  20.093  0.00  0.00    -0.223 NA
ATOM      8  C   UNL     1      10.526  24.260  19.168  0.00  0.00    +0.220 A 
ATOM      9  N   UNL     1       9.172  24.488  19.357  0.00  0.00    -0.283 N 
ATOM     36  H   UNL     1       8.506  24.185  18.647  0.00  0.00    +0.155 HD
ATOM     37  N   UNL     1      10.911  23.620  18.043  0.00  0.00    -0.214 NA
BRANCH   4   3
ATOM      1  C   UNL     1      12.142  20.766  14.842  0.00  0.00    +0.020 A 
ATOM      2  C   UNL     1      11.818  21.422  16.088  0.00  0.00    +0.013 A 
ATOM      3  C   UNL     1      12.530  22.624  16.503  0.00  0.00    +0.019 A 
ATOM     38  C   UNL     1      13.571  23.141  15.628  0.00  0.00    +0.120 A 
ATOM     39  N   UNL     1      13.862  22.487  14.435  0.00  0.00    -0.263 NA
ATOM     40  C   UNL     1      13.185  21.329  14.026  0.00  0.00    +0.111 A 
ENDBRANCH   4   3
ENDBRANCH  10   9
BRANCH  12  13
ATOM     13  N   UNL     1       7.546  28.624  21.594  0.00  0.00    -0.281 N 
ATOM     14  C   UNL     1       8.362  29.706  21.306  0.00  0.00    +0.248 C 
ATOM     30  O   UNL     1       9.580  29.651  21.224  0.00  0.00    -0.270 OA
ATOM     31  H   UNL     1       6.577  28.842  21.826  0.00  0.00    +0.155 HD
BRANCH  14  15
ATOM     15  C   UNL     1       7.735  31.046  21.094  0.00  0.00    +0.037 A 
ATOM     16  C   UNL     1       7.771  32.076  22.136  0.00  0.00    +0.013 A 
ATOM     17  C   UNL     1       7.144  33.354  21.911  0.00  0.00    +0.005 A 
ATOM     18  C   UNL     1       6.476  33.610  20.637  0.00  0.00    -0.033 A 
ATOM     28  C   UNL     1       6.460  32.573  19.619  0.00  0.00    +0.005 A 
ATOM     29  C   UNL     1       7.072  31.318  19.836  0.00  0.00    +0.013 A 
BRANCH  18  19
ATOM     19  C   UNL     1       5.762  34.938  20.319  0.00  0.00    +0.119 C 
BRANCH  19  20
ATOM     20  N   UNL     1       5.227  35.720  21.473  0.00  0.00    -0.302 NA
ATOM     21  C   UNL     1       4.042  35.017  22.143  0.00  0.00    +0.066 C 
ATOM     22  C   UNL     1       3.509  35.838  23.362  0.00  0.00    -0.064 C 
ATOM     23  N   UNL     1       3.113  37.240  22.895  0.00  0.00    +0.379 N 
ATOM     24  C   UNL     1       2.557  37.995  24.027  0.00  0.00    -0.096 C 
ATOM     25  H   UNL     1       2.307  37.128  22.134  0.00  0.00    -0.082 HD
ATOM     26  C   UNL     1       4.285  37.945  22.226  0.00  0.00    -0.064 C 
ATOM     27  C   UNL     1       4.826  37.107  21.034  0.00  0.00    +0.066 C 
ENDBRANCH  19  20
ENDBRANCH  18  19
ENDBRANCH  14  15
ENDBRANCH  12  13
TORSDOF 6
ENDMDL
