MODEL 1
REMARK VINA RESULT:      -9.3      0.000      0.000
REMARK  Name = C:\Users\Docking\Desktop\test protocol\1iep_ligandH.pdb
REMARK  8 active torsions:
REMARK  status: ('A' for Active; 'I' for Inactive)
REMARK    1  A    between atoms: _5  and  _11
REMARK    2  A    between atoms: _19  and  _21
REMARK    3  A    between atoms: _22  and  _66
REMARK    4  A    between atoms: _27  and  _30
REMARK    5  A    between atoms: _32  and  _33
REMARK    6  A    between atoms: _38  and  _43
REMARK    7  A    between atoms: _43  and  _46
REMARK    8  A    between atoms: _53  and  _55
REMARK                            x       y       z     vdW  Elec       q    Type
REMARK                         _______ _______ _______ _____ _____    ______ ____
ROOT
ATOM     10  C   UNL     1      19.806  22.514  13.916  0.00  0.00    +0.038 A 
ATOM     11  C   UNL     1      18.483  22.691  14.393  0.00  0.00    +0.047 A 
ATOM     12  C   UNL     1      17.420  21.769  14.024  0.00  0.00    +0.035 A 
ATOM     32  C   UNL     1      17.741  20.675  13.168  0.00  0.00    +0.024 A 
ATOM     33  C   UNL     1      19.081  20.481  12.673  0.00  0.00    +0.007 A 
ATOM     34  C   UNL     1      20.133  21.388  13.032  0.00  0.00    -0.029 A 
ATOM     35  C   UNL     1      21.550  21.135  12.466  0.00  0.00    +0.045 C 
ENDROOT
BRANCH  10   9
ATOM      4  C   UNL     1      21.325  26.988  14.756  0.00  0.00    +0.077 A 
ATOM      5  C   UNL     1      20.065  27.552  14.367  0.00  0.00    +0.048 A 
ATOM      6  C   UNL     1      19.055  26.657  13.949  0.00  0.00    +0.116 A 
ATOM      7  N   UNL     1      19.297  25.301  13.928  0.00  0.00    -0.223 NA
ATOM      8  C   UNL     1      20.525  24.790  14.309  0.00  0.00    +0.220 A 
ATOM      9  N   UNL     1      20.788  23.429  14.303  0.00  0.00    -0.283 N 
ATOM     36  H   UNL     1      21.708  23.092  14.584  0.00  0.00    +0.155 HD
ATOM     37  N   UNL     1      21.506  25.624  14.710  0.00  0.00    -0.214 NA
BRANCH   4   3
ATOM      1  C   UNL     1      23.915  29.886  15.202  0.00  0.00    +0.020 A 
ATOM      2  C   UNL     1      22.777  29.140  14.716  0.00  0.00    +0.013 A 
ATOM      3  C   UNL     1      22.490  27.804  15.224  0.00  0.00    +0.019 A 
ATOM     38  C   UNL     1      23.381  27.248  16.231  0.00  0.00    +0.120 A 
ATOM     39  N   UNL     1      24.471  27.989  16.679  0.00  0.00    -0.263 NA
ATOM     40  C   UNL     1      24.757  29.275  16.196  0.00  0.00    +0.111 A 
ENDBRANCH   4   3
ENDBRANCH  10   9
BRANCH  12  13
ATOM     13  N   UNL     1      16.055  21.903  14.471  0.00  0.00    -0.281 N 
ATOM     14  C   UNL     1      14.902  21.879  13.704  0.00  0.00    +0.248 C 
ATOM     30  O   UNL     1      14.881  21.952  12.485  0.00  0.00    -0.270 OA
ATOM     31  H   UNL     1      15.924  22.031  15.474  0.00  0.00    +0.155 HD
BRANCH  14  15
ATOM     15  C   UNL     1      13.579  21.772  14.393  0.00  0.00    +0.037 A 
ATOM     16  C   UNL     1      12.494  20.963  13.832  0.00  0.00    +0.013 A 
ATOM     17  C   UNL     1      11.223  20.891  14.508  0.00  0.00    +0.005 A 
ATOM     18  C   UNL     1      11.031  21.629  15.754  0.00  0.00    -0.033 A 
ATOM     28  C   UNL     1      12.127  22.419  16.291  0.00  0.00    +0.005 A 
ATOM     29  C   UNL     1      13.374  22.493  15.631  0.00  0.00    +0.013 A 
BRANCH  18  19
ATOM     19  C   UNL     1       9.701  21.627  16.532  0.00  0.00    +0.119 C 
BRANCH  19  20
ATOM     20  N   UNL     1       9.559  22.610  17.646  0.00  0.00    -0.302 NA
ATOM     21  C   UNL     1       9.703  21.948  19.019  0.00  0.00    +0.066 C 
ATOM     22  C   UNL     1       9.574  22.995  20.173  0.00  0.00    -0.064 C 
ATOM     23  N   UNL     1       8.229  23.715  20.057  0.00  0.00    +0.379 N 
ATOM     24  C   UNL     1       8.080  24.659  21.174  0.00  0.00    -0.096 C 
ATOM     25  H   UNL     1       7.426  22.947  20.153  0.00  0.00    -0.082 HD
ATOM     26  C   UNL     1       8.077  24.374  18.693  0.00  0.00    -0.064 C 
ATOM     27  C   UNL     1       8.236  23.329  17.553  0.00  0.00    +0.066 C 
ENDBRANCH  19  20
ENDBRANCH  18  19
ENDBRANCH  14  15
ENDBRANCH  12  13
TORSDOF 6
ENDMDL
MODEL 2
REMARK VINA RESULT:      -9.1      7.708     13.017
REMARK  Name = C:\Users\Docking\Desktop\test protocol\1iep_ligandH.pdb
REMARK  8 active torsions:
REMARK  status: ('A' for Active; 'I' for Inactive)
REMARK    1  A    between atoms: _5  and  _11
REMARK    2  A    between atoms: _19  and  _21
REMARK    3  A    between atoms: _22  and  _66
REMARK    4  A    between atoms: _27  and  _30
REMARK    5  A    between atoms: _32  and  _33
REMARK    6  A    between atoms: _38  and  _43
REMARK    7  A    between atoms: _43  and  _46
REMARK    8  A    between atoms: _53  and  _55
REMARK                            x       y       z     vdW  Elec       q    Type
REMARK                         _______ _______ _______ _____ _____    ______ ____
ROOT
ATOM     10  C   UNL     1      10.265  25.889  20.486  0.00  0.00    +0.038 A 
ATOM     11  C   UNL     1       9.623  27.123  20.211  0.00  0.00    +0.047 A 
ATOM     12  C   UNL     1       8.567  27.630  21.074  0.00  0.00    +0.035 A 
ATOM     32  C   UNL     1       8.193  26.856  22.210  0.00  0.00    +0.024 A 
ATOM     33  C   UNL     1       8.834  25.598  22.504  0.00  0.00    +0.007 A 
ATOM     34  C   UNL     1       9.875  25.092  21.655  0.00  0.00    -0.029 A 
ATOM     35  C   UNL     1      10.523  23.735  22.015  0.00  0.00    +0.045 C 
ENDROOT
BRANCH  10   9
ATOM      4  C   UNL     1      11.885  23.062  16.961  0.00  0.00    +0.077 A 
ATOM      5  C   UNL     1      10.626  22.385  16.845  0.00  0.00    +0.048 A 
ATOM      6  C   UNL     1       9.589  22.789  17.716  0.00  0.00    +0.116 A 
ATOM      7  N   UNL     1       9.807  23.797  18.630  0.00  0.00    -0.223 NA
ATOM      8  C   UNL     1      11.034  24.428  18.717  0.00  0.00    +0.220 A 
ATOM      9  N   UNL     1      11.273  25.449  19.624  0.00  0.00    -0.283 N 
ATOM     36  H   UNL     1      12.194  25.884  19.662  0.00  0.00    +0.155 HD
ATOM     37  N   UNL     1      12.041  24.059  17.898  0.00  0.00    -0.214 NA
BRANCH   4   3
ATOM      1  C   UNL     1      15.545  22.842  15.598  0.00  0.00    +0.020 A 
ATOM      2  C   UNL     1      14.429  23.169  16.455  0.00  0.00    +0.013 A 
ATOM      3  C   UNL     1      13.077  22.750  16.110  0.00  0.00    +0.019 A 
ATOM     38  C   UNL     1      12.886  21.994  14.881  0.00  0.00    +0.120 A 
ATOM     39  N   UNL     1      13.980  21.695  14.074  0.00  0.00    -0.263 NA
ATOM     40  C   UNL     1      15.286  22.095  14.396  0.00  0.00    +0.111 A 
ENDBRANCH   4   3
ENDBRANCH  10   9
BRANCH  12  13
ATOM     13  N   UNL     1       7.873  28.872  20.840  0.00  0.00    -0.281 N 
ATOM     14  C   UNL     1       7.989  30.058  21.547  0.00  0.00    +0.248 C 
ATOM     30  O   UNL     1       8.552  30.167  22.626  0.00  0.00    -0.270 OA
ATOM     31  H   UNL     1       7.218  28.878  20.059  0.00  0.00    +0.155 HD
BRANCH  14  15
ATOM     15  C   UNL     1       7.378  31.299  20.981  0.00  0.00    +0.037 A 
ATOM     16  C   UNL     1       6.650  31.275  19.710  0.00  0.00    +0.013 A 
ATOM     17  C   UNL     1       6.085  32.490  19.177  0.00  0.00    +0.005 A 
ATOM     18  C   UNL     1       6.245  33.739  19.918  0.00  0.00    -0.033 A 
ATOM     28  C   UNL     1       6.968  33.733  21.179  0.00  0.00    +0.005 A 
ATOM     29  C   UNL     1       7.524  32.545  21.703  0.00  0.00    +0.013 A 
BRANCH  18  19
ATOM     19  C   UNL     1       5.694  35.086  19.414  0.00  0.00    +0.119 C 
BRANCH  19  20
ATOM     20  N   UNL     1       5.234  36.065  20.445  0.00  0.00    -0.302 NA
ATOM     21  C   UNL     1       3.770  35.842  20.835  0.00  0.00    +0.066 C 
ATOM     22  C   UNL     1       3.312  36.859  21.930  0.00  0.00    -0.064 C 
ATOM     23  N   UNL     1       3.525  38.285  21.419  0.00  0.00    +0.379 N 
ATOM     24  C   UNL     1       3.041  39.244  22.423  0.00  0.00    -0.096 C 
ATOM     25  H   UNL     1       2.902  38.412  20.502  0.00  0.00    -0.082 HD
ATOM     26  C   UNL     1       4.977  38.514  21.025  0.00  0.00    -0.064 C 
ATOM     27  C   UNL     1       5.431  37.479  19.958  0.00  0.00    +0.066 C 
ENDBRANCH  19  20
ENDBRANCH  18  19
ENDBRANCH  14  15
ENDBRANCH  12  13
TORSDOF 6
ENDMDL
MODEL 3
REMARK VINA RESULT:      -9.0      2.117      2.711
REMARK  Name = C:\Users\Docking\Desktop\test protocol\1iep_ligandH.pdb
REMARK  8 active torsions:
REMARK  status: ('A' for Active; 'I' for Inactive)
REMARK    1  A    between atoms: _5  and  _11
REMARK    2  A    between atoms: _19  and  _21
REMARK    3  A    between atoms: _22  and  _66
REMARK    4  A    between atoms: _27  and  _30
REMARK    5  A    between atoms: _32  and  _33
REMARK    6  A    between atoms: _38  and  _43
REMARK    7  A    between atoms: _43  and  _46
REMARK    8  A    between atoms: _53  and  _55
REMARK                            x       y       z     vdW  Elec       q    Type
REMARK                         _______ _______ _______ _____ _____    ______ ____
ROOT
ATOM     10  C   UNL     1      19.935  23.310  14.307  0.00  0.00    +0.038 A 
ATOM     11  C   UNL     1      18.712  23.500  15.000  0.00  0.00    +0.047 A 
ATOM     12  C   UNL     1      17.538  22.700  14.689  0.00  0.00    +0.035 A 
ATOM     32  C   UNL     1      17.645  21.712  13.667  0.00  0.00    +0.024 A 
ATOM     33  C   UNL     1      18.880  21.506  12.952  0.00  0.00    +0.007 A 
ATOM     34  C   UNL     1      20.041  22.294  13.253  0.00  0.00    -0.029 A 
ATOM     35  C   UNL     1      21.336  22.034  12.449  0.00  0.00    +0.045 C 
ENDROOT
BRANCH  10   9
ATOM      4  C   UNL     1      22.000  27.582  15.028  0.00  0.00    +0.077 A 
ATOM      5  C   UNL     1      20.802  28.288  14.673  0.00  0.00    +0.048 A 
ATOM      6  C   UNL     1      19.679  27.514  14.303  0.00  0.00    +0.116 A 
ATOM      7  N   UNL     1      19.759  26.138  14.294  0.00  0.00    -0.223 NA
ATOM      8  C   UNL     1      20.930  25.490  14.641  0.00  0.00    +0.220 A 
ATOM      9  N   UNL     1      21.030  24.107  14.646  0.00  0.00    -0.283 N 
ATOM     36  H   UNL     1      21.914  23.666  14.901  0.00  0.00    +0.155 HD
ATOM     37  N   UNL     1      22.017  26.206  14.996  0.00  0.00    -0.214 NA
BRANCH   4   3
ATOM      1  C   UNL     1      24.881  30.200  15.417  0.00  0.00    +0.020 A 
ATOM      2  C   UNL     1      23.644  29.590  14.984  0.00  0.00    +0.013 A 
ATOM      3  C   UNL     1      23.269  28.259  15.444  0.00  0.00    +0.019 A 
ATOM     38  C   UNL     1      24.174  27.566  16.348  0.00  0.00    +0.120 A 
ATOM     39  N   UNL     1      25.359  28.177  16.746  0.00  0.00    -0.263 NA
ATOM     40  C   UNL     1      25.731  29.457  16.309  0.00  0.00    +0.111 A 
ENDBRANCH   4   3
ENDBRANCH  10   9
BRANCH  12  13
ATOM     13  N   UNL     1      16.268  22.854  15.354  0.00  0.00    -0.281 N 
ATOM     14  C   UNL     1      15.987  22.695  16.701  0.00  0.00    +0.248 C 
ATOM     30  O   UNL     1      16.747  22.185  17.510  0.00  0.00    -0.270 OA
ATOM     31  H   UNL     1      15.480  23.111  14.759  0.00  0.00    +0.155 HD
BRANCH  14  15
ATOM     15  C   UNL     1      14.664  23.156  17.222  0.00  0.00    +0.037 A 
ATOM     16  C   UNL     1      14.495  23.554  18.622  0.00  0.00    +0.013 A 
ATOM     17  C   UNL     1      13.204  23.978  19.103  0.00  0.00    +0.005 A 
ATOM     18  C   UNL     1      12.071  24.009  18.181  0.00  0.00    -0.033 A 
ATOM     28  C   UNL     1      12.268  23.614  16.796  0.00  0.00    +0.005 A 
ATOM     29  C   UNL     1      13.531  23.196  16.321  0.00  0.00    +0.013 A 
BRANCH  18  19
ATOM     19  C   UNL     1      10.653  24.428  18.612  0.00  0.00    +0.119 C 
BRANCH  19  20
ATOM     20  N   UNL     1      10.542  25.445  19.700  0.00  0.00    -0.302 NA
ATOM     21  C   UNL     1       9.719  24.931  20.884  0.00  0.00    +0.066 C 
ATOM     22  C   UNL     1       9.632  25.999  22.023  0.00  0.00    -0.064 C 
ATOM     23  N   UNL     1       9.029  27.288  21.464  0.00  0.00    +0.379 N 
ATOM     24  C   UNL     1       8.892  28.275  22.545  0.00  0.00    -0.096 C 
ATOM     25  H   UNL     1       8.005  27.049  21.092  0.00  0.00    -0.082 HD
ATOM     26  C   UNL     1       9.840  27.805  20.284  0.00  0.00    -0.064 C 
ATOM     27  C   UNL     1       9.945  26.726  19.170  0.00  0.00    +0.066 C 
ENDBRANCH  19  20
ENDBRANCH  18  19
ENDBRANCH  14  15
ENDBRANCH  12  13
TORSDOF 6
ENDMDL
MODEL 4
REMARK VINA RESULT:      -8.9      1.888      2.470
REMARK  Name = C:\Users\Docking\Desktop\test protocol\1iep_ligandH.pdb
REMARK  8 active torsions:
REMARK  status: ('A' for Active; 'I' for Inactive)
REMARK    1  A    between atoms: _5  and  _11
REMARK    2  A    between atoms: _19  and  _21
REMARK    3  A    between atoms: _22  and  _66
REMARK    4  A    between atoms: _27  and  _30
REMARK    5  A    between atoms: _32  and  _33
REMARK    6  A    between atoms: _38  and  _43
REMARK    7  A    between atoms: _43  and  _46
REMARK    8  A    between atoms: _53  and  _55
REMARK                            x       y       z     vdW  Elec       q    Type
REMARK                         _______ _______ _______ _____ _____    ______ ____
ROOT
ATOM     10  C   UNL     1      19.654  23.279  14.362  0.00  0.00    +0.038 A 
ATOM     11  C   UNL     1      18.471  23.528  15.104  0.00  0.00    +0.047 A 
ATOM     12  C   UNL     1      17.245  22.794  14.833  0.00  0.00    +0.035 A 
ATOM     32  C   UNL     1      17.259  21.811  13.801  0.00  0.00    +0.024 A 
ATOM     33  C   UNL     1      18.453  21.546  13.037  0.00  0.00    +0.007 A 
ATOM     34  C   UNL     1      19.665  22.269  13.298  0.00  0.00    -0.029 A 
ATOM     35  C   UNL     1      20.912  21.947  12.442  0.00  0.00    +0.045 C 
ENDROOT
BRANCH  10   9
ATOM      4  C   UNL     1      21.993  27.429  14.948  0.00  0.00    +0.077 A 
ATOM      5  C   UNL     1      20.835  28.200  14.597  0.00  0.00    +0.048 A 
ATOM      6  C   UNL     1      19.659  27.490  14.265  0.00  0.00    +0.116 A 
ATOM      7  N   UNL     1      19.654  26.112  14.286  0.00  0.00    -0.223 NA
ATOM      8  C   UNL     1      20.788  25.399  14.628  0.00  0.00    +0.220 A 
ATOM      9  N   UNL     1      20.803  24.014  14.664  0.00  0.00    -0.283 N 
ATOM     36  H   UNL     1      21.662  23.525  14.914  0.00  0.00    +0.155 HD
ATOM     37  N   UNL     1      21.924  26.054  14.948  0.00  0.00    -0.214 NA
BRANCH   4   3
ATOM      1  C   UNL     1      24.877  29.994  15.584  0.00  0.00    +0.020 A 
ATOM      2  C   UNL     1      23.589  29.460  15.205  0.00  0.00    +0.013 A 
ATOM      3  C   UNL     1      23.309  28.035  15.326  0.00  0.00    +0.019 A 
ATOM     38  C   UNL     1      24.361  27.171  15.840  0.00  0.00    +0.120 A 
ATOM     39  N   UNL     1      25.592  27.713  16.196  0.00  0.00    -0.263 NA
ATOM     40  C   UNL     1      25.874  29.083  16.082  0.00  0.00    +0.111 A 
ENDBRANCH   4   3
ENDBRANCH  10   9
BRANCH  12  13
ATOM     13  N   UNL     1      16.011  23.009  15.548  0.00  0.00    -0.281 N 
ATOM     14  C   UNL     1      15.668  22.556  16.811  0.00  0.00    +0.248 C 
ATOM     30  O   UNL     1      16.293  21.711  17.435  0.00  0.00    -0.270 OA
ATOM     31  H   UNL     1      15.304  23.563  15.064  0.00  0.00    +0.155 HD
BRANCH  14  15
ATOM     15  C   UNL     1      14.447  23.110  17.471  0.00  0.00    +0.037 A 
ATOM     16  C   UNL     1      13.169  23.189  16.759  0.00  0.00    +0.013 A 
ATOM     17  C   UNL     1      12.010  23.743  17.413  0.00  0.00    +0.005 A 
ATOM     18  C   UNL     1      12.124  24.222  18.788  0.00  0.00    -0.033 A 
ATOM     28  C   UNL     1      13.403  24.127  19.473  0.00  0.00    +0.005 A 
ATOM     29  C   UNL     1      14.541  23.585  18.835  0.00  0.00    +0.013 A 
BRANCH  18  19
ATOM     19  C   UNL     1      10.945  24.848  19.557  0.00  0.00    +0.119 C 
BRANCH  19  20
ATOM     20  N   UNL     1       9.633  24.137  19.492  0.00  0.00    -0.302 NA
ATOM     21  C   UNL     1       8.696  24.754  18.450  0.00  0.00    +0.066 C 
ATOM     22  C   UNL     1       7.337  23.985  18.381  0.00  0.00    -0.064 C 
ATOM     23  N   UNL     1       6.683  23.984  19.763  0.00  0.00    +0.379 N 
ATOM     24  C   UNL     1       5.377  23.312  19.689  0.00  0.00    -0.096 C 
ATOM     25  H   UNL     1       6.501  25.045  20.052  0.00  0.00    -0.082 HD
ATOM     26  C   UNL     1       7.609  23.375  20.807  0.00  0.00    -0.064 C 
ATOM     27  C   UNL     1       8.968  24.128  20.847  0.00  0.00    +0.066 C 
ENDBRANCH  19  20
ENDBRANCH  18  19
ENDBRANCH  14  15
ENDBRANCH  12  13
TORSDOF 6
ENDMDL
MODEL 5
REMARK VINA RESULT:      -8.7      3.506      5.129
REMARK  Name = C:\Users\Docking\Desktop\test protocol\1iep_ligandH.pdb
REMARK  8 active torsions:
REMARK  status: ('A' for Active; 'I' for Inactive)
REMARK    1  A    between atoms: _5  and  _11
REMARK    2  A    between atoms: _19  and  _21
REMARK    3  A    between atoms: _22  and  _66
REMARK    4  A    between atoms: _27  and  _30
REMARK    5  A    between atoms: _32  and  _33
REMARK    6  A    between atoms: _38  and  _43
REMARK    7  A    between atoms: _43  and  _46
REMARK    8  A    between atoms: _53  and  _55
REMARK                            x       y       z     vdW  Elec       q    Type
REMARK                         _______ _______ _______ _____ _____    ______ ____
ROOT
ATOM     10  C   UNL     1      16.931  24.124  19.146  0.00  0.00    +0.038 A 
ATOM     11  C   UNL     1      15.566  24.497  19.058  0.00  0.00    +0.047 A 
ATOM     12  C   UNL     1      14.510  23.599  19.497  0.00  0.00    +0.035 A 
ATOM     32  C   UNL     1      14.881  22.327  20.025  0.00  0.00    +0.024 A 
ATOM     33  C   UNL     1      16.264  21.931  20.121  0.00  0.00    +0.007 A 
ATOM     34  C   UNL     1      17.310  22.812  19.686  0.00  0.00    -0.029 A 
ATOM     35  C   UNL     1      18.775  22.332  19.807  0.00  0.00    +0.045 C 
ENDROOT
BRANCH  10   9
ATOM      4  C   UNL     1      19.568  26.161  15.692  0.00  0.00    +0.077 A 
ATOM      5  C   UNL     1      18.977  25.340  14.675  0.00  0.00    +0.048 A 
ATOM      6  C   UNL     1      18.004  24.401  15.083  0.00  0.00    +0.116 A 
ATOM      7  N   UNL     1      17.655  24.300  16.412  0.00  0.00    -0.223 NA
ATOM      8  C   UNL     1      18.245  25.105  17.368  0.00  0.00    +0.220 A 
ATOM      9  N   UNL     1      17.904  25.026  18.709  0.00  0.00    -0.283 N 
ATOM     36  H   UNL     1      18.368  25.633  19.385  0.00  0.00    +0.155 HD
ATOM     37  N   UNL     1      19.179  26.009  17.004  0.00  0.00    -0.214 NA
BRANCH   4   3
ATOM      1  C   UNL     1      21.854  28.769  13.881  0.00  0.00    +0.020 A 
ATOM      2  C   UNL     1      20.836  27.765  14.093  0.00  0.00    +0.013 A 
ATOM      3  C   UNL     1      20.609  27.202  15.417  0.00  0.00    +0.019 A 
ATOM     38  C   UNL     1      21.435  27.680  16.516  0.00  0.00    +0.120 A 
ATOM     39  N   UNL     1      22.409  28.646  16.282  0.00  0.00    -0.263 NA
ATOM     40  C   UNL     1      22.637  29.194  15.011  0.00  0.00    +0.111 A 
ENDBRANCH   4   3
ENDBRANCH  10   9
BRANCH  12  13
ATOM     13  N   UNL     1      13.106  23.920  19.425  0.00  0.00    -0.281 N 
ATOM     14  C   UNL     1      12.270  23.838  18.323  0.00  0.00    +0.248 C 
ATOM     30  O   UNL     1      12.654  23.677  17.174  0.00  0.00    -0.270 OA
ATOM     31  H   UNL     1      12.677  24.248  20.290  0.00  0.00    +0.155 HD
BRANCH  14  15
ATOM     15  C   UNL     1      10.795  23.967  18.526  0.00  0.00    +0.037 A 
ATOM     16  C   UNL     1      10.138  25.277  18.514  0.00  0.00    +0.013 A 
ATOM     17  C   UNL     1       8.716  25.374  18.729  0.00  0.00    +0.005 A 
ATOM     18  C   UNL     1       7.940  24.157  18.957  0.00  0.00    -0.033 A 
ATOM     28  C   UNL     1       8.617  22.871  18.958  0.00  0.00    +0.005 A 
ATOM     29  C   UNL     1      10.011  22.771  18.749  0.00  0.00    +0.013 A 
BRANCH  18  19
ATOM     19  C   UNL     1       6.422  24.169  19.216  0.00  0.00    +0.119 C 
BRANCH  19  20
ATOM     20  N   UNL     1       5.900  23.240  20.263  0.00  0.00    -0.302 NA
ATOM     21  C   UNL     1       4.553  22.628  19.868  0.00  0.00    +0.066 C 
ATOM     22  C   UNL     1       4.033  21.642  20.964  0.00  0.00    -0.064 C 
ATOM     23  N   UNL     1       3.921  22.381  22.299  0.00  0.00    +0.379 N 
ATOM     24  C   UNL     1       3.377  21.473  23.318  0.00  0.00    -0.096 C 
ATOM     25  H   UNL     1       3.193  23.214  22.164  0.00  0.00    -0.082 HD
ATOM     26  C   UNL     1       5.256  22.995  22.698  0.00  0.00    -0.064 C 
ATOM     27  C   UNL     1       5.778  23.951  21.588  0.00  0.00    +0.066 C 
ENDBRANCH  19  20
ENDBRANCH  18  19
ENDBRANCH  14  15
ENDBRANCH  12  13
TORSDOF 6
ENDMDL
