MODEL 1
REMARK VINA RESULT:      -8.9      0.000      0.000
REMARK  Name = C:\Users\Docking\Desktop\test protocol\1iep_ligandH.pdb
REMARK  8 active torsions:
REMARK  status: ('A' for Active; 'I' for Inactive)
REMARK    1  A    between atoms: _5  and  _11
REMARK    2  A    between atoms: _19  and  _21
REMARK    3  A    between atoms: _22  and  _66
REMARK    4  A    between atoms: _27  and  _30
REMARK    5  A    between atoms: _32  and  _33
REMARK    6  A    between atoms: _38  and  _43
REMARK    7  A    between atoms: _43  and  _46
REMARK    8  A    between atoms: _53  and  _55
REMARK                            x       y       z     vdW  Elec       q    Type
REMARK                         _______ _______ _______ _____ _____    ______ ____
ROOT
ATOM     10  C   UNL     1       9.092  24.981  18.692  0.00  0.00    +0.038 A 
ATOM     11  C   UNL     1      10.443  24.702  18.362  0.00  0.00    +0.047 A 
ATOM     12  C   UNL     1      10.921  23.333  18.242  0.00  0.00    +0.035 A 
ATOM     32  C   UNL     1       9.995  22.273  18.462  0.00  0.00    +0.024 A 
ATOM     33  C   UNL     1       8.618  22.538  18.799  0.00  0.00    +0.007 A 
ATOM     34  C   UNL     1       8.142  23.886  18.922  0.00  0.00    -0.029 A 
ATOM     35  C   UNL     1       6.658  24.112  19.292  0.00  0.00    +0.045 C 
ENDROOT
BRANCH  10   9
ATOM      4  C   UNL     1       8.203  28.951  21.239  0.00  0.00    +0.077 A 
ATOM      5  C   UNL     1       8.548  28.307  22.474  0.00  0.00    +0.048 A 
ATOM      6  C   UNL     1       8.943  26.952  22.411  0.00  0.00    +0.116 A 
ATOM      7  N   UNL     1       8.985  26.299  21.198  0.00  0.00    -0.223 NA
ATOM      8  C   UNL     1       8.644  26.949  20.026  0.00  0.00    +0.220 A 
ATOM      9  N   UNL     1       8.688  26.314  18.795  0.00  0.00    -0.283 N 
ATOM     36  H   UNL     1       8.421  26.826  17.954  0.00  0.00    +0.155 HD
ATOM     37  N   UNL     1       8.263  28.243  20.060  0.00  0.00    -0.214 NA
BRANCH   4   3
ATOM      1  C   UNL     1       6.692  32.460  22.080  0.00  0.00    +0.020 A 
ATOM      2  C   UNL     1       7.089  31.078  22.225  0.00  0.00    +0.013 A 
ATOM      3  C   UNL     1       7.770  30.381  21.142  0.00  0.00    +0.019 A 
ATOM     38  C   UNL     1       8.038  31.116  19.915  0.00  0.00    +0.120 A 
ATOM     39  N   UNL     1       7.642  32.446  19.804  0.00  0.00    -0.263 NA
ATOM     40  C   UNL     1       6.985  33.126  20.839  0.00  0.00    +0.111 A 
ENDBRANCH   4   3
ENDBRANCH  10   9
BRANCH  12  13
ATOM     13  N   UNL     1      12.283  22.989  17.918  0.00  0.00    -0.281 N 
ATOM     14  C   UNL     1      12.786  22.559  16.700  0.00  0.00    +0.248 C 
ATOM     30  O   UNL     1      12.098  22.199  15.757  0.00  0.00    -0.270 OA
ATOM     31  H   UNL     1      12.959  23.072  18.678  0.00  0.00    +0.155 HD
BRANCH  14  15
ATOM     15  C   UNL     1      14.267  22.508  16.509  0.00  0.00    +0.037 A 
ATOM     16  C   UNL     1      15.187  22.878  17.588  0.00  0.00    +0.013 A 
ATOM     17  C   UNL     1      16.611  22.836  17.371  0.00  0.00    +0.005 A 
ATOM     18  C   UNL     1      17.125  22.420  16.068  0.00  0.00    -0.033 A 
ATOM     28  C   UNL     1      16.191  22.053  15.017  0.00  0.00    +0.005 A 
ATOM     29  C   UNL     1      14.794  22.094  15.226  0.00  0.00    +0.013 A 
BRANCH  18  19
ATOM     19  C   UNL     1      18.629  22.366  15.741  0.00  0.00    +0.119 C 
BRANCH  19  20
ATOM     20  N   UNL     1      19.350  23.668  15.621  0.00  0.00    -0.302 NA
ATOM     21  C   UNL     1      18.401  24.820  15.278  0.00  0.00    +0.066 C 
ATOM     22  C   UNL     1      19.169  26.179  15.178  0.00  0.00    -0.064 C 
ATOM     23  N   UNL     1      20.277  26.060  14.131  0.00  0.00    +0.379 N 
ATOM     24  C   UNL     1      20.963  27.353  13.993  0.00  0.00    -0.096 C 
ATOM     25  H   UNL     1      19.794  25.827  13.153  0.00  0.00    -0.082 HD
ATOM     26  C   UNL     1      21.223  24.914  14.463  0.00  0.00    -0.064 C 
ATOM     27  C   UNL     1      20.446  23.574  14.589  0.00  0.00    +0.066 C 
ENDBRANCH  19  20
ENDBRANCH  18  19
ENDBRANCH  14  15
ENDBRANCH  12  13
TORSDOF 6
ENDMDL
MODEL 2
REMARK VINA RESULT:      -8.9      1.032      1.583
REMARK  Name = C:\Users\Docking\Desktop\test protocol\1iep_ligandH.pdb
REMARK  8 active torsions:
REMARK  status: ('A' for Active; 'I' for Inactive)
REMARK    1  A    between atoms: _5  and  _11
REMARK    2  A    between atoms: _19  and  _21
REMARK    3  A    between atoms: _22  and  _66
REMARK    4  A    between atoms: _27  and  _30
REMARK    5  A    between atoms: _32  and  _33
REMARK    6  A    between atoms: _38  and  _43
REMARK    7  A    between atoms: _43  and  _46
REMARK    8  A    between atoms: _53  and  _55
REMARK                            x       y       z     vdW  Elec       q    Type
REMARK                         _______ _______ _______ _____ _____    ______ ____
ROOT
ATOM     10  C   UNL     1       9.166  25.032  18.721  0.00  0.00    +0.038 A 
ATOM     11  C   UNL     1      10.544  24.876  18.427  0.00  0.00    +0.047 A 
ATOM     12  C   UNL     1      11.150  23.557  18.342  0.00  0.00    +0.035 A 
ATOM     32  C   UNL     1      10.322  22.417  18.558  0.00  0.00    +0.024 A 
ATOM     33  C   UNL     1       8.919  22.558  18.859  0.00  0.00    +0.007 A 
ATOM     34  C   UNL     1       8.316  23.857  18.947  0.00  0.00    -0.029 A 
ATOM     35  C   UNL     1       6.808  23.948  19.279  0.00  0.00    +0.045 C 
ENDROOT
BRANCH  10   9
ATOM      4  C   UNL     1       8.144  29.064  21.117  0.00  0.00    +0.077 A 
ATOM      5  C   UNL     1       8.688  28.546  22.339  0.00  0.00    +0.048 A 
ATOM      6  C   UNL     1       9.214  27.234  22.311  0.00  0.00    +0.116 A 
ATOM      7  N   UNL     1       9.193  26.506  21.142  0.00  0.00    -0.223 NA
ATOM      8  C   UNL     1       8.660  27.035  19.981  0.00  0.00    +0.220 A 
ATOM      9  N   UNL     1       8.636  26.323  18.791  0.00  0.00    -0.283 N 
ATOM     36  H   UNL     1       8.227  26.746  17.959  0.00  0.00    +0.155 HD
ATOM     37  N   UNL     1       8.150  28.284  19.982  0.00  0.00    -0.214 NA
BRANCH   4   3
ATOM      1  C   UNL     1       6.495  32.294  19.653  0.00  0.00    +0.020 A 
ATOM      2  C   UNL     1       7.055  30.965  19.725  0.00  0.00    +0.013 A 
ATOM      3  C   UNL     1       7.555  30.434  20.987  0.00  0.00    +0.019 A 
ATOM     38  C   UNL     1       7.471  31.281  22.167  0.00  0.00    +0.120 A 
ATOM     39  N   UNL     1       6.928  32.558  22.068  0.00  0.00    -0.263 NA
ATOM     40  C   UNL     1       6.445  33.080  20.858  0.00  0.00    +0.111 A 
ENDBRANCH   4   3
ENDBRANCH  10   9
BRANCH  12  13
ATOM     13  N   UNL     1      12.546  23.336  18.055  0.00  0.00    -0.281 N 
ATOM     14  C   UNL     1      13.110  22.858  16.883  0.00  0.00    +0.248 C 
ATOM     30  O   UNL     1      12.478  22.343  15.972  0.00  0.00    -0.270 OA
ATOM     31  H   UNL     1      13.198  23.560  18.807  0.00  0.00    +0.155 HD
BRANCH  14  15
ATOM     15  C   UNL     1      14.590  22.953  16.702  0.00  0.00    +0.037 A 
ATOM     16  C   UNL     1      15.247  22.410  15.510  0.00  0.00    +0.013 A 
ATOM     17  C   UNL     1      16.679  22.500  15.369  0.00  0.00    +0.005 A 
ATOM     18  C   UNL     1      17.464  23.137  16.424  0.00  0.00    -0.033 A 
ATOM     28  C   UNL     1      16.786  23.672  17.593  0.00  0.00    +0.005 A 
ATOM     29  C   UNL     1      15.383  23.585  17.735  0.00  0.00    +0.013 A 
BRANCH  18  19
ATOM     19  C   UNL     1      18.998  23.258  16.367  0.00  0.00    +0.119 C 
BRANCH  19  20
ATOM     20  N   UNL     1      19.566  24.591  16.007  0.00  0.00    -0.302 NA
ATOM     21  C   UNL     1      20.565  24.497  14.850  0.00  0.00    +0.066 C 
ATOM     22  C   UNL     1      21.132  25.904  14.471  0.00  0.00    -0.064 C 
ATOM     23  N   UNL     1      21.786  26.535  15.702  0.00  0.00    +0.379 N 
ATOM     24  C   UNL     1      22.371  27.833  15.335  0.00  0.00    -0.096 C 
ATOM     25  H   UNL     1      22.619  25.866  16.022  0.00  0.00    -0.082 HD
ATOM     26  C   UNL     1      20.800  26.630  16.858  0.00  0.00    -0.064 C 
ATOM     27  C   UNL     1      20.220  25.231  17.206  0.00  0.00    +0.066 C 
ENDBRANCH  19  20
ENDBRANCH  18  19
ENDBRANCH  14  15
ENDBRANCH  12  13
TORSDOF 6
ENDMDL
MODEL 3
REMARK VINA RESULT:      -8.8      3.430     12.806
REMARK  Name = C:\Users\Docking\Desktop\test protocol\1iep_ligandH.pdb
REMARK  8 active torsions:
REMARK  status: ('A' for Active; 'I' for Inactive)
REMARK    1  A    between atoms: _5  and  _11
REMARK    2  A    between atoms: _19  and  _21
REMARK    3  A    between atoms: _22  and  _66
REMARK    4  A    between atoms: _27  and  _30
REMARK    5  A    between atoms: _32  and  _33
REMARK    6  A    between atoms: _38  and  _43
REMARK    7  A    between atoms: _43  and  _46
REMARK    8  A    between atoms: _53  and  _55
REMARK                            x       y       z     vdW  Elec       q    Type
REMARK                         _______ _______ _______ _____ _____    ______ ____
ROOT
ATOM     10  C   UNL     1       8.780  24.649  19.629  0.00  0.00    +0.038 A 
ATOM     11  C   UNL     1       8.460  26.030  19.636  0.00  0.00    +0.047 A 
ATOM     12  C   UNL     1       7.682  26.617  20.716  0.00  0.00    +0.035 A 
ATOM     32  C   UNL     1       7.247  25.768  21.774  0.00  0.00    +0.024 A 
ATOM     33  C   UNL     1       7.562  24.361  21.783  0.00  0.00    +0.007 A 
ATOM     34  C   UNL     1       8.328  23.776  20.720  0.00  0.00    -0.029 A 
ATOM     35  C   UNL     1       8.630  22.260  20.777  0.00  0.00    +0.045 C 
ENDROOT
BRANCH  10   9
ATOM      4  C   UNL     1      12.938  23.292  17.652  0.00  0.00    +0.077 A 
ATOM      5  C   UNL     1      13.682  23.656  18.823  0.00  0.00    +0.048 A 
ATOM      6  C   UNL     1      12.958  24.196  19.910  0.00  0.00    +0.116 A 
ATOM      7  N   UNL     1      11.592  24.355  19.821  0.00  0.00    -0.223 NA
ATOM      8  C   UNL     1      10.905  23.994  18.676  0.00  0.00    +0.220 A 
ATOM      9  N   UNL     1       9.530  24.138  18.568  0.00  0.00    -0.283 N 
ATOM     36  H   UNL     1       9.062  23.867  17.703  0.00  0.00    +0.155 HD
ATOM     37  N   UNL     1      11.574  23.478  17.624  0.00  0.00    -0.214 NA
BRANCH   4   3
ATOM      1  C   UNL     1      13.447  21.830  14.059  0.00  0.00    +0.020 A 
ATOM      2  C   UNL     1      12.797  22.395  15.220  0.00  0.00    +0.013 A 
ATOM      3  C   UNL     1      13.560  22.706  16.423  0.00  0.00    +0.019 A 
ATOM     38  C   UNL     1      14.989  22.432  16.418  0.00  0.00    +0.120 A 
ATOM     39  N   UNL     1      15.587  21.886  15.286  0.00  0.00    -0.263 NA
ATOM     40  C   UNL     1      14.863  21.581  14.124  0.00  0.00    +0.111 A 
ENDBRANCH   4   3
ENDBRANCH  10   9
BRANCH  12  13
ATOM     13  N   UNL     1       7.320  28.012  20.772  0.00  0.00    -0.281 N 
ATOM     14  C   UNL     1       8.089  29.074  21.219  0.00  0.00    +0.248 C 
ATOM     30  O   UNL     1       9.135  28.957  21.841  0.00  0.00    -0.270 OA
ATOM     31  H   UNL     1       6.383  28.245  20.443  0.00  0.00    +0.155 HD
BRANCH  14  15
ATOM     15  C   UNL     1       7.622  30.468  20.948  0.00  0.00    +0.037 A 
ATOM     16  C   UNL     1       7.656  31.496  21.991  0.00  0.00    +0.013 A 
ATOM     17  C   UNL     1       7.183  32.829  21.709  0.00  0.00    +0.005 A 
ATOM     18  C   UNL     1       6.674  33.140  20.375  0.00  0.00    -0.033 A 
ATOM     28  C   UNL     1       6.657  32.102  19.358  0.00  0.00    +0.005 A 
ATOM     29  C   UNL     1       7.118  30.795  19.632  0.00  0.00    +0.013 A 
BRANCH  18  19
ATOM     19  C   UNL     1       6.130  34.529  19.991  0.00  0.00    +0.119 C 
BRANCH  19  20
ATOM     20  N   UNL     1       5.446  35.315  21.061  0.00  0.00    -0.302 NA
ATOM     21  C   UNL     1       4.115  34.682  21.477  0.00  0.00    +0.066 C 
ATOM     22  C   UNL     1       3.424  35.505  22.612  0.00  0.00    -0.064 C 
ATOM     23  N   UNL     1       3.214  36.944  22.140  0.00  0.00    +0.379 N 
ATOM     24  C   UNL     1       2.512  37.706  23.183  0.00  0.00    -0.096 C 
ATOM     25  H   UNL     1       2.554  36.913  21.242  0.00  0.00    -0.082 HD
ATOM     26  C   UNL     1       4.532  37.581  21.721  0.00  0.00    -0.064 C 
ATOM     27  C   UNL     1       5.225  36.739  20.613  0.00  0.00    +0.066 C 
ENDBRANCH  19  20
ENDBRANCH  18  19
ENDBRANCH  14  15
ENDBRANCH  12  13
TORSDOF 6
ENDMDL
MODEL 4
REMARK VINA RESULT:      -8.7      6.516     13.265
REMARK  Name = C:\Users\Docking\Desktop\test protocol\1iep_ligandH.pdb
REMARK  8 active torsions:
REMARK  status: ('A' for Active; 'I' for Inactive)
REMARK    1  A    between atoms: _5  and  _11
REMARK    2  A    between atoms: _19  and  _21
REMARK    3  A    between atoms: _22  and  _66
REMARK    4  A    between atoms: _27  and  _30
REMARK    5  A    between atoms: _32  and  _33
REMARK    6  A    between atoms: _38  and  _43
REMARK    7  A    between atoms: _43  and  _46
REMARK    8  A    between atoms: _53  and  _55
REMARK                            x       y       z     vdW  Elec       q    Type
REMARK                         _______ _______ _______ _____ _____    ______ ____
ROOT
ATOM     10  C   UNL     1       8.726  25.586  19.988  0.00  0.00    +0.038 A 
ATOM     11  C   UNL     1       8.046  26.827  19.894  0.00  0.00    +0.047 A 
ATOM     12  C   UNL     1       8.641  28.052  20.405  0.00  0.00    +0.035 A 
ATOM     32  C   UNL     1       9.933  27.977  21.004  0.00  0.00    +0.024 A 
ATOM     33  C   UNL     1      10.638  26.724  21.109  0.00  0.00    +0.007 A 
ATOM     34  C   UNL     1      10.054  25.512  20.608  0.00  0.00    -0.029 A 
ATOM     35  C   UNL     1      10.853  24.195  20.753  0.00  0.00    +0.045 C 
ENDROOT
BRANCH  10   9
ATOM      4  C   UNL     1       5.480  22.060  20.248  0.00  0.00    +0.077 A 
ATOM      5  C   UNL     1       4.993  22.523  21.516  0.00  0.00    +0.048 A 
ATOM      6  C   UNL     1       5.609  23.667  22.070  0.00  0.00    +0.116 A 
ATOM      7  N   UNL     1       6.635  24.294  21.398  0.00  0.00    -0.223 NA
ATOM      8  C   UNL     1       7.082  23.822  20.178  0.00  0.00    +0.220 A 
ATOM      9  N   UNL     1       8.108  24.442  19.480  0.00  0.00    -0.283 N 
ATOM     36  H   UNL     1       8.414  24.058  18.586  0.00  0.00    +0.155 HD
ATOM     37  N   UNL     1       6.511  22.730  19.628  0.00  0.00    -0.214 NA
BRANCH   4   3
ATOM      1  C   UNL     1       5.190  18.689  18.286  0.00  0.00    +0.020 A 
ATOM      2  C   UNL     1       5.773  19.822  18.967  0.00  0.00    +0.013 A 
ATOM      3  C   UNL     1       4.928  20.867  19.533  0.00  0.00    +0.019 A 
ATOM     38  C   UNL     1       3.486  20.733  19.391  0.00  0.00    +0.120 A 
ATOM     39  N   UNL     1       2.953  19.632  18.729  0.00  0.00    -0.263 NA
ATOM     40  C   UNL     1       3.756  18.621  18.179  0.00  0.00    +0.111 A 
ENDBRANCH   4   3
ENDBRANCH  10   9
BRANCH  12  13
ATOM     13  N   UNL     1       7.995  29.340  20.345  0.00  0.00    -0.281 N 
ATOM     14  C   UNL     1       7.758  30.223  21.385  0.00  0.00    +0.248 C 
ATOM     30  O   UNL     1       7.877  29.944  22.569  0.00  0.00    -0.270 OA
ATOM     31  H   UNL     1       7.673  29.636  19.424  0.00  0.00    +0.155 HD
BRANCH  14  15
ATOM     15  C   UNL     1       7.311  31.613  21.065  0.00  0.00    +0.037 A 
ATOM     16  C   UNL     1       7.710  32.751  21.898  0.00  0.00    +0.013 A 
ATOM     17  C   UNL     1       7.251  34.079  21.576  0.00  0.00    +0.005 A 
ATOM     18  C   UNL     1       6.388  34.276  20.414  0.00  0.00    -0.033 A 
ATOM     28  C   UNL     1       6.012  33.131  19.602  0.00  0.00    +0.005 A 
ATOM     29  C   UNL     1       6.459  31.827  19.915  0.00  0.00    +0.013 A 
BRANCH  18  19
ATOM     19  C   UNL     1       5.834  35.655  20.008  0.00  0.00    +0.119 C 
BRANCH  19  20
ATOM     20  N   UNL     1       5.173  36.466  21.074  0.00  0.00    -0.302 NA
ATOM     21  C   UNL     1       3.769  35.949  21.402  0.00  0.00    +0.066 C 
ATOM     22  C   UNL     1       3.101  36.796  22.534  0.00  0.00    -0.064 C 
ATOM     23  N   UNL     1       3.052  38.264  22.107  0.00  0.00    +0.379 N 
ATOM     24  C   UNL     1       2.372  39.054  23.145  0.00  0.00    -0.096 C 
ATOM     25  H   UNL     1       2.438  38.326  21.179  0.00  0.00    -0.082 HD
ATOM     26  C   UNL     1       4.443  38.785  21.776  0.00  0.00    -0.064 C 
ATOM     27  C   UNL     1       5.110  37.919  20.671  0.00  0.00    +0.066 C 
ENDBRANCH  19  20
ENDBRANCH  18  19
ENDBRANCH  14  15
ENDBRANCH  12  13
TORSDOF 6
ENDMDL
MODEL 5
REMARK VINA RESULT:      -8.7      6.523     12.676
REMARK  Name = C:\Users\Docking\Desktop\test protocol\1iep_ligandH.pdb
REMARK  8 active torsions:
REMARK  status: ('A' for Active; 'I' for Inactive)
REMARK    1  A    between atoms: _5  and  _11
REMARK    2  A    between atoms: _19  and  _21
REMARK    3  A    between atoms: _22  and  _66
REMARK    4  A    between atoms: _27  and  _30
REMARK    5  A    between atoms: _32  and  _33
REMARK    6  A    between atoms: _38  and  _43
REMARK    7  A    between atoms: _43  and  _46
REMARK    8  A    between atoms: _53  and  _55
REMARK                            x       y       z     vdW  Elec       q    Type
REMARK                         _______ _______ _______ _____ _____    ______ ____
ROOT
ATOM     10  C   UNL     1       4.214  36.370  18.315  0.00  0.00    +0.038 A 
ATOM     11  C   UNL     1       4.832  35.165  18.736  0.00  0.00    +0.047 A 
ATOM     12  C   UNL     1       5.820  35.159  19.803  0.00  0.00    +0.035 A 
ATOM     32  C   UNL     1       6.155  36.399  20.421  0.00  0.00    +0.024 A 
ATOM     33  C   UNL     1       5.537  37.634  20.004  0.00  0.00    +0.007 A 
ATOM     34  C   UNL     1       4.563  37.646  18.951  0.00  0.00    -0.029 A 
ATOM     35  C   UNL     1       3.938  39.000  18.541  0.00  0.00    +0.045 C 
ENDROOT
BRANCH  10   9
ATOM      4  C   UNL     1       3.025  36.064  13.674  0.00  0.00    +0.077 A 
ATOM      5  C   UNL     1       4.399  36.034  13.264  0.00  0.00    +0.048 A 
ATOM      6  C   UNL     1       5.381  36.106  14.277  0.00  0.00    +0.116 A 
ATOM      7  N   UNL     1       5.005  36.201  15.599  0.00  0.00    -0.223 NA
ATOM      8  C   UNL     1       3.671  36.230  15.961  0.00  0.00    +0.220 A 
ATOM      9  N   UNL     1       3.271  36.317  17.286  0.00  0.00    -0.283 N 
ATOM     36  H   UNL     1       2.277  36.343  17.511  0.00  0.00    +0.155 HD
ATOM     37  N   UNL     1       2.714  36.163  15.012  0.00  0.00    -0.214 NA
BRANCH   4   3
ATOM      1  C   UNL     1       0.869  35.509  10.458  0.00  0.00    +0.020 A 
ATOM      2  C   UNL     1       2.014  35.560  11.337  0.00  0.00    +0.013 A 
ATOM      3  C   UNL     1       1.872  35.993  12.722  0.00  0.00    +0.019 A 
ATOM     38  C   UNL     1       0.547  36.368  13.190  0.00  0.00    +0.120 A 
ATOM     39  N   UNL     1      -0.538  36.310  12.320  0.00  0.00    -0.263 NA
ATOM     40  C   UNL     1      -0.413  35.897  10.985  0.00  0.00    +0.111 A 
ENDBRANCH   4   3
ENDBRANCH  10   9
BRANCH  12  13
ATOM     13  N   UNL     1       6.487  33.968  20.267  0.00  0.00    -0.281 N 
ATOM     14  C   UNL     1       5.964  32.948  21.046  0.00  0.00    +0.248 C 
ATOM     30  O   UNL     1       4.900  33.011  21.643  0.00  0.00    -0.270 OA
ATOM     31  H   UNL     1       7.463  33.863  19.988  0.00  0.00    +0.155 HD
BRANCH  14  15
ATOM     15  C   UNL     1       6.744  31.682  21.195  0.00  0.00    +0.037 A 
ATOM     16  C   UNL     1       7.295  31.276  22.491  0.00  0.00    +0.013 A 
ATOM     17  C   UNL     1       8.057  30.058  22.604  0.00  0.00    +0.005 A 
ATOM     18  C   UNL     1       8.272  29.235  21.416  0.00  0.00    -0.033 A 
ATOM     28  C   UNL     1       7.709  29.658  20.144  0.00  0.00    +0.005 A 
ATOM     29  C   UNL     1       6.962  30.852  20.029  0.00  0.00    +0.013 A 
BRANCH  18  19
ATOM     19  C   UNL     1       9.090  27.931  21.439  0.00  0.00    +0.119 C 
BRANCH  19  20
ATOM     20  N   UNL     1       8.774  26.906  20.399  0.00  0.00    -0.302 NA
ATOM     21  C   UNL     1       8.103  25.668  20.999  0.00  0.00    +0.066 C 
ATOM     22  C   UNL     1       7.758  24.616  19.894  0.00  0.00    -0.064 C 
ATOM     23  N   UNL     1       9.035  24.231  19.145  0.00  0.00    +0.379 N 
ATOM     24  C   UNL     1       8.724  23.200  18.144  0.00  0.00    -0.096 C 
ATOM     25  H   UNL     1       9.739  23.784  19.884  0.00  0.00    -0.082 HD
ATOM     26  C   UNL     1       9.710  25.457  18.547  0.00  0.00    -0.064 C 
ATOM     27  C   UNL     1      10.021  26.509  19.649  0.00  0.00    +0.066 C 
ENDBRANCH  19  20
ENDBRANCH  18  19
ENDBRANCH  14  15
ENDBRANCH  12  13
TORSDOF 6
ENDMDL
