MODEL 1
REMARK VINA RESULT:      -8.9      0.000      0.000
REMARK  Name = C:\Users\Docking\Desktop\test protocol\1iep_ligandH.pdb
REMARK  8 active torsions:
REMARK  status: ('A' for Active; 'I' for Inactive)
REMARK    1  A    between atoms: _5  and  _11
REMARK    2  A    between atoms: _19  and  _21
REMARK    3  A    between atoms: _22  and  _66
REMARK    4  A    between atoms: _27  and  _30
REMARK    5  A    between atoms: _32  and  _33
REMARK    6  A    between atoms: _38  and  _43
REMARK    7  A    between atoms: _43  and  _46
REMARK    8  A    between atoms: _53  and  _55
REMARK                            x       y       z     vdW  Elec       q    Type
REMARK                         _______ _______ _______ _____ _____    ______ ____
ROOT
ATOM     10  C   UNL     1      13.796  20.411  22.528  0.00  0.00    +0.038 A 
ATOM     11  C   UNL     1      13.494  19.914  23.822  0.00  0.00    +0.047 A 
ATOM     12  C   UNL     1      12.122  19.649  24.225  0.00  0.00    +0.035 A 
ATOM     32  C   UNL     1      11.081  19.898  23.284  0.00  0.00    +0.024 A 
ATOM     33  C   UNL     1      11.369  20.404  21.965  0.00  0.00    +0.007 A 
ATOM     34  C   UNL     1      12.721  20.670  21.563  0.00  0.00    -0.029 A 
ATOM     35  C   UNL     1      12.971  21.218  20.138  0.00  0.00    +0.045 C 
ENDROOT
BRANCH  10   9
ATOM      4  C   UNL     1      18.048  18.986  20.818  0.00  0.00    +0.077 A 
ATOM      5  C   UNL     1      17.577  17.649  20.596  0.00  0.00    +0.048 A 
ATOM      6  C   UNL     1      16.236  17.367  20.942  0.00  0.00    +0.116 A 
ATOM      7  N   UNL     1      15.435  18.357  21.469  0.00  0.00    -0.223 NA
ATOM      8  C   UNL     1      15.921  19.635  21.672  0.00  0.00    +0.220 A 
ATOM      9  N   UNL     1      15.131  20.648  22.194  0.00  0.00    -0.283 N 
ATOM     36  H   UNL     1      15.529  21.576  22.335  0.00  0.00    +0.155 HD
ATOM     37  N   UNL     1      17.198  19.929  21.351  0.00  0.00    -0.214 NA
BRANCH   4   3
ATOM      1  C   UNL     1      21.440  20.932  20.857  0.00  0.00    +0.020 A 
ATOM      2  C   UNL     1      20.095  20.534  21.202  0.00  0.00    +0.013 A 
ATOM      3  C   UNL     1      19.439  19.439  20.500  0.00  0.00    +0.019 A 
ATOM     38  C   UNL     1      20.177  18.761  19.444  0.00  0.00    +0.120 A 
ATOM     39  N   UNL     1      21.471  19.167  19.132  0.00  0.00    -0.263 NA
ATOM     40  C   UNL     1      22.112  20.221  19.801  0.00  0.00    +0.111 A 
ENDBRANCH   4   3
ENDBRANCH  10   9
BRANCH  12  13
ATOM     13  N   UNL     1      11.754  19.152  25.528  0.00  0.00    -0.281 N 
ATOM     14  C   UNL     1      11.792  17.844  25.982  0.00  0.00    +0.248 C 
ATOM     30  O   UNL     1      11.946  16.867  25.264  0.00  0.00    -0.270 OA
ATOM     31  H   UNL     1      11.426  19.849  26.196  0.00  0.00    +0.155 HD
BRANCH  14  15
ATOM     15  C   UNL     1      11.618  17.581  27.443  0.00  0.00    +0.037 A 
ATOM     16  C   UNL     1      11.730  18.661  28.428  0.00  0.00    +0.013 A 
ATOM     17  C   UNL     1      11.576  18.378  29.833  0.00  0.00    +0.005 A 
ATOM     18  C   UNL     1      11.306  17.007  30.261  0.00  0.00    -0.033 A 
ATOM     28  C   UNL     1      11.194  15.957  29.263  0.00  0.00    +0.005 A 
ATOM     29  C   UNL     1      11.346  16.230  27.885  0.00  0.00    +0.013 A 
BRANCH  18  19
ATOM     19  C   UNL     1      11.147  16.610  31.741  0.00  0.00    +0.119 C 
BRANCH  19  20
ATOM     20  N   UNL     1      12.321  16.828  32.637  0.00  0.00    -0.302 NA
ATOM     21  C   UNL     1      12.314  18.225  33.264  0.00  0.00    +0.066 C 
ATOM     22  C   UNL     1      13.537  18.429  34.216  0.00  0.00    -0.064 C 
ATOM     23  N   UNL     1      14.832  18.192  33.436  0.00  0.00    +0.379 N 
ATOM     24  C   UNL     1      15.985  18.439  34.314  0.00  0.00    -0.096 C 
ATOM     25  H   UNL     1      14.870  18.938  32.609  0.00  0.00    -0.082 HD
ATOM     26  C   UNL     1      14.846  16.806  32.807  0.00  0.00    -0.064 C 
ATOM     27  C   UNL     1      13.611  16.603  31.886  0.00  0.00    +0.066 C 
ENDBRANCH  19  20
ENDBRANCH  18  19
ENDBRANCH  14  15
ENDBRANCH  12  13
TORSDOF 6
ENDMDL
MODEL 2
REMARK VINA RESULT:      -8.3      6.546      8.948
REMARK  Name = C:\Users\Docking\Desktop\test protocol\1iep_ligandH.pdb
REMARK  8 active torsions:
REMARK  status: ('A' for Active; 'I' for Inactive)
REMARK    1  A    between atoms: _5  and  _11
REMARK    2  A    between atoms: _19  and  _21
REMARK    3  A    between atoms: _22  and  _66
REMARK    4  A    between atoms: _27  and  _30
REMARK    5  A    between atoms: _32  and  _33
REMARK    6  A    between atoms: _38  and  _43
REMARK    7  A    between atoms: _43  and  _46
REMARK    8  A    between atoms: _53  and  _55
REMARK                            x       y       z     vdW  Elec       q    Type
REMARK                         _______ _______ _______ _____ _____    ______ ____
ROOT
ATOM     10  C   UNL     1      11.695  16.298  26.404  0.00  0.00    +0.038 A 
ATOM     11  C   UNL     1      12.568  15.182  26.334  0.00  0.00    +0.047 A 
ATOM     12  C   UNL     1      12.798  14.333  27.492  0.00  0.00    +0.035 A 
ATOM     32  C   UNL     1      12.120  14.648  28.706  0.00  0.00    +0.024 A 
ATOM     33  C   UNL     1      11.231  15.780  28.795  0.00  0.00    +0.007 A 
ATOM     34  C   UNL     1      11.002  16.622  27.656  0.00  0.00    -0.029 A 
ATOM     35  C   UNL     1      10.043  17.825  27.811  0.00  0.00    +0.045 C 
ENDROOT
BRANCH  10   9
ATOM      4  C   UNL     1      12.609  20.186  23.741  0.00  0.00    +0.077 A 
ATOM      5  C   UNL     1      13.509  20.719  24.723  0.00  0.00    +0.048 A 
ATOM      6  C   UNL     1      13.704  19.965  25.902  0.00  0.00    +0.116 A 
ATOM      7  N   UNL     1      13.043  18.769  26.076  0.00  0.00    -0.223 NA
ATOM      8  C   UNL     1      12.180  18.284  25.110  0.00  0.00    +0.220 A 
ATOM      9  N   UNL     1      11.511  17.079  25.261  0.00  0.00    -0.283 N 
ATOM     36  H   UNL     1      10.877  16.760  24.528  0.00  0.00    +0.155 HD
ATOM     37  N   UNL     1      11.976  18.986  23.976  0.00  0.00    -0.214 NA
BRANCH   4   3
ATOM      1  C   UNL     1      12.629  22.704  20.748  0.00  0.00    +0.020 A 
ATOM      2  C   UNL     1      12.962  22.090  22.013  0.00  0.00    +0.013 A 
ATOM      3  C   UNL     1      12.302  20.864  22.442  0.00  0.00    +0.019 A 
ATOM     38  C   UNL     1      11.301  20.279  21.562  0.00  0.00    +0.120 A 
ATOM     39  N   UNL     1      11.000  20.894  20.350  0.00  0.00    -0.263 NA
ATOM     40  C   UNL     1      11.628  22.075  19.927  0.00  0.00    +0.111 A 
ENDBRANCH   4   3
ENDBRANCH  10   9
BRANCH  12  13
ATOM     13  N   UNL     1      13.679  13.192  27.483  0.00  0.00    -0.281 N 
ATOM     14  C   UNL     1      14.987  13.122  27.933  0.00  0.00    +0.248 C 
ATOM     30  O   UNL     1      15.673  14.093  28.218  0.00  0.00    -0.270 OA
ATOM     31  H   UNL     1      13.291  12.330  27.098  0.00  0.00    +0.155 HD
BRANCH  14  15
ATOM     15  C   UNL     1      15.632  11.781  28.074  0.00  0.00    +0.037 A 
ATOM     16  C   UNL     1      16.849  11.602  28.869  0.00  0.00    +0.013 A 
ATOM     17  C   UNL     1      17.460  10.301  28.975  0.00  0.00    +0.005 A 
ATOM     18  C   UNL     1      16.853   9.167  28.283  0.00  0.00    -0.033 A 
ATOM     28  C   UNL     1      15.642   9.371  27.505  0.00  0.00    +0.005 A 
ATOM     29  C   UNL     1      15.041  10.645  27.399  0.00  0.00    +0.013 A 
BRANCH  18  19
ATOM     19  C   UNL     1      17.448   7.747  28.322  0.00  0.00    +0.119 C 
BRANCH  19  20
ATOM     20  N   UNL     1      17.388   7.016  29.624  0.00  0.00    -0.302 NA
ATOM     21  C   UNL     1      18.094   5.659  29.553  0.00  0.00    +0.066 C 
ATOM     22  C   UNL     1      18.041   4.918  30.929  0.00  0.00    -0.064 C 
ATOM     23  N   UNL     1      16.582   4.749  31.358  0.00  0.00    +0.379 N 
ATOM     24  C   UNL     1      16.527   4.001  32.623  0.00  0.00    -0.096 C 
ATOM     25  H   UNL     1      16.070   4.136  30.580  0.00  0.00    -0.082 HD
ATOM     26  C   UNL     1      15.873   6.094  31.428  0.00  0.00    -0.064 C 
ATOM     27  C   UNL     1      15.957   6.834  30.064  0.00  0.00    +0.066 C 
ENDBRANCH  19  20
ENDBRANCH  18  19
ENDBRANCH  14  15
ENDBRANCH  12  13
TORSDOF 6
ENDMDL
MODEL 3
REMARK VINA RESULT:      -8.2      4.666     11.369
REMARK  Name = C:\Users\Docking\Desktop\test protocol\1iep_ligandH.pdb
REMARK  8 active torsions:
REMARK  status: ('A' for Active; 'I' for Inactive)
REMARK    1  A    between atoms: _5  and  _11
REMARK    2  A    between atoms: _19  and  _21
REMARK    3  A    between atoms: _22  and  _66
REMARK    4  A    between atoms: _27  and  _30
REMARK    5  A    between atoms: _32  and  _33
REMARK    6  A    between atoms: _38  and  _43
REMARK    7  A    between atoms: _43  and  _46
REMARK    8  A    between atoms: _53  and  _55
REMARK                            x       y       z     vdW  Elec       q    Type
REMARK                         _______ _______ _______ _____ _____    ______ ____
ROOT
ATOM     10  C   UNL     1      13.576  18.808  24.688  0.00  0.00    +0.038 A 
ATOM     11  C   UNL     1      12.876  19.890  24.097  0.00  0.00    +0.047 A 
ATOM     12  C   UNL     1      12.819  20.050  22.653  0.00  0.00    +0.035 A 
ATOM     32  C   UNL     1      13.484  19.087  21.839  0.00  0.00    +0.024 A 
ATOM     33  C   UNL     1      14.201  17.981  22.423  0.00  0.00    +0.007 A 
ATOM     34  C   UNL     1      14.263  17.819  23.848  0.00  0.00    -0.029 A 
ATOM     35  C   UNL     1      15.052  16.618  24.419  0.00  0.00    +0.045 C 
ENDROOT
BRANCH  10   9
ATOM      4  C   UNL     1      11.842  17.123  28.835  0.00  0.00    +0.077 A 
ATOM      5  C   UNL     1      10.786  16.413  28.173  0.00  0.00    +0.048 A 
ATOM      6  C   UNL     1      10.719  16.514  26.765  0.00  0.00    +0.116 A 
ATOM      7  N   UNL     1      11.646  17.270  26.080  0.00  0.00    -0.223 NA
ATOM      8  C   UNL     1      12.652  17.943  26.750  0.00  0.00    +0.220 A 
ATOM      9  N   UNL     1      13.599  18.703  26.081  0.00  0.00    -0.283 N 
ATOM     36  H   UNL     1      14.321  19.190  26.612  0.00  0.00    +0.155 HD
ATOM     37  N   UNL     1      12.736  17.864  28.094  0.00  0.00    -0.214 NA
BRANCH   4   3
ATOM      1  C   UNL     1      11.228  17.372  32.690  0.00  0.00    +0.020 A 
ATOM      2  C   UNL     1      10.978  17.396  31.267  0.00  0.00    +0.013 A 
ATOM      3  C   UNL     1      12.047  17.112  30.318  0.00  0.00    +0.019 A 
ATOM     38  C   UNL     1      13.368  16.805  30.845  0.00  0.00    +0.120 A 
ATOM     39  N   UNL     1      13.579  16.791  32.220  0.00  0.00    -0.263 NA
ATOM     40  C   UNL     1      12.559  17.064  33.143  0.00  0.00    +0.111 A 
ENDBRANCH   4   3
ENDBRANCH  10   9
BRANCH  12  13
ATOM     13  N   UNL     1      12.130  21.134  21.996  0.00  0.00    -0.281 N 
ATOM     14  C   UNL     1      10.994  21.067  21.207  0.00  0.00    +0.248 C 
ATOM     30  O   UNL     1      10.517  20.030  20.768  0.00  0.00    -0.270 OA
ATOM     31  H   UNL     1      12.529  22.063  22.129  0.00  0.00    +0.155 HD
BRANCH  14  15
ATOM     15  C   UNL     1      10.294  22.335  20.839  0.00  0.00    +0.037 A 
ATOM     16  C   UNL     1      10.949  23.637  20.993  0.00  0.00    +0.013 A 
ATOM     17  C   UNL     1      10.245  24.846  20.647  0.00  0.00    +0.005 A 
ATOM     18  C   UNL     1       8.877  24.759  20.142  0.00  0.00    -0.033 A 
ATOM     28  C   UNL     1       8.254  23.454  19.993  0.00  0.00    +0.005 A 
ATOM     29  C   UNL     1       8.940  22.267  20.332  0.00  0.00    +0.013 A 
BRANCH  18  19
ATOM     19  C   UNL     1       8.043  25.998  19.767  0.00  0.00    +0.119 C 
BRANCH  19  20
ATOM     20  N   UNL     1       6.979  26.421  20.726  0.00  0.00    -0.302 NA
ATOM     21  C   UNL     1       7.308  26.016  22.165  0.00  0.00    +0.066 C 
ATOM     22  C   UNL     1       6.195  26.486  23.158  0.00  0.00    -0.064 C 
ATOM     23  N   UNL     1       4.850  25.900  22.725  0.00  0.00    +0.379 N 
ATOM     24  C   UNL     1       3.811  26.293  23.688  0.00  0.00    -0.096 C 
ATOM     25  H   UNL     1       4.939  24.790  22.756  0.00  0.00    -0.082 HD
ATOM     26  C   UNL     1       4.516  26.296  21.293  0.00  0.00    -0.064 C 
ATOM     27  C   UNL     1       5.642  25.850  20.320  0.00  0.00    +0.066 C 
ENDBRANCH  19  20
ENDBRANCH  18  19
ENDBRANCH  14  15
ENDBRANCH  12  13
TORSDOF 6
ENDMDL
MODEL 4
REMARK VINA RESULT:      -8.2      6.082      7.795
REMARK  Name = C:\Users\Docking\Desktop\test protocol\1iep_ligandH.pdb
REMARK  8 active torsions:
REMARK  status: ('A' for Active; 'I' for Inactive)
REMARK    1  A    between atoms: _5  and  _11
REMARK    2  A    between atoms: _19  and  _21
REMARK    3  A    between atoms: _22  and  _66
REMARK    4  A    between atoms: _27  and  _30
REMARK    5  A    between atoms: _32  and  _33
REMARK    6  A    between atoms: _38  and  _43
REMARK    7  A    between atoms: _43  and  _46
REMARK    8  A    between atoms: _53  and  _55
REMARK                            x       y       z     vdW  Elec       q    Type
REMARK                         _______ _______ _______ _____ _____    ______ ____
ROOT
ATOM     10  C   UNL     1      13.593  19.007  26.426  0.00  0.00    +0.038 A 
ATOM     11  C   UNL     1      14.146  17.703  26.345  0.00  0.00    +0.047 A 
ATOM     12  C   UNL     1      13.623  16.612  27.153  0.00  0.00    +0.035 A 
ATOM     32  C   UNL     1      12.534  16.884  28.031  0.00  0.00    +0.024 A 
ATOM     33  C   UNL     1      11.960  18.204  28.127  0.00  0.00    +0.007 A 
ATOM     34  C   UNL     1      12.474  19.284  27.334  0.00  0.00    -0.029 A 
ATOM     35  C   UNL     1      11.824  20.679  27.482  0.00  0.00    +0.045 C 
ENDROOT
BRANCH  10   9
ATOM      4  C   UNL     1      13.649  21.674  22.436  0.00  0.00    +0.077 A 
ATOM      5  C   UNL     1      12.522  20.979  21.885  0.00  0.00    +0.048 A 
ATOM      6  C   UNL     1      11.961  19.937  22.657  0.00  0.00    +0.116 A 
ATOM      7  N   UNL     1      12.496  19.622  23.887  0.00  0.00    -0.223 NA
ATOM      8  C   UNL     1      13.585  20.311  24.389  0.00  0.00    +0.220 A 
ATOM      9  N   UNL     1      14.134  20.016  25.627  0.00  0.00    -0.283 N 
ATOM     36  H   UNL     1      14.942  20.543  25.958  0.00  0.00    +0.155 HD
ATOM     37  N   UNL     1      14.139  21.310  23.670  0.00  0.00    -0.214 NA
BRANCH   4   3
ATOM      1  C   UNL     1      16.172  23.731  20.266  0.00  0.00    +0.020 A 
ATOM      2  C   UNL     1      15.533  22.608  20.914  0.00  0.00    +0.013 A 
ATOM      3  C   UNL     1      14.350  22.801  21.743  0.00  0.00    +0.019 A 
ATOM     38  C   UNL     1      13.833  24.153  21.895  0.00  0.00    +0.120 A 
ATOM     39  N   UNL     1      14.469  25.214  21.259  0.00  0.00    -0.263 NA
ATOM     40  C   UNL     1      15.610  25.041  20.461  0.00  0.00    +0.111 A 
ENDBRANCH   4   3
ENDBRANCH  10   9
BRANCH  12  13
ATOM     13  N   UNL     1      14.150  15.270  27.120  0.00  0.00    -0.281 N 
ATOM     14  C   UNL     1      14.965  14.652  28.053  0.00  0.00    +0.248 C 
ATOM     30  O   UNL     1      15.543  15.233  28.960  0.00  0.00    -0.270 OA
ATOM     31  H   UNL     1      13.890  14.708  26.309  0.00  0.00    +0.155 HD
BRANCH  14  15
ATOM     15  C   UNL     1      15.181  13.176  27.958  0.00  0.00    +0.037 A 
ATOM     16  C   UNL     1      16.224  12.508  28.742  0.00  0.00    +0.013 A 
ATOM     17  C   UNL     1      16.422  11.086  28.619  0.00  0.00    +0.005 A 
ATOM     18  C   UNL     1      15.574  10.321  27.708  0.00  0.00    -0.033 A 
ATOM     28  C   UNL     1      14.544  11.008  26.946  0.00  0.00    +0.005 A 
ATOM     29  C   UNL     1      14.347  12.402  27.064  0.00  0.00    +0.013 A 
BRANCH  18  19
ATOM     19  C   UNL     1      15.729   8.803  27.497  0.00  0.00    +0.119 C 
BRANCH  19  20
ATOM     20  N   UNL     1      16.268   8.006  28.639  0.00  0.00    -0.302 NA
ATOM     21  C   UNL     1      17.370   7.039  28.195  0.00  0.00    +0.066 C 
ATOM     22  C   UNL     1      17.938   6.229  29.406  0.00  0.00    -0.064 C 
ATOM     23  N   UNL     1      16.797   5.473  30.090  0.00  0.00    +0.379 N 
ATOM     24  C   UNL     1      17.337   4.665  31.193  0.00  0.00    -0.096 C 
ATOM     25  H   UNL     1      16.359   4.774  29.341  0.00  0.00    -0.082 HD
ATOM     26  C   UNL     1      15.696   6.427  30.532  0.00  0.00    -0.064 C 
ATOM     27  C   UNL     1      15.159   7.248  29.326  0.00  0.00    +0.066 C 
ENDBRANCH  19  20
ENDBRANCH  18  19
ENDBRANCH  14  15
ENDBRANCH  12  13
TORSDOF 6
ENDMDL
MODEL 5
REMARK VINA RESULT:      -8.1      5.309     12.453
REMARK  Name = C:\Users\Docking\Desktop\test protocol\1iep_ligandH.pdb
REMARK  8 active torsions:
REMARK  status: ('A' for Active; 'I' for Inactive)
REMARK    1  A    between atoms: _5  and  _11
REMARK    2  A    between atoms: _19  and  _21
REMARK    3  A    between atoms: _22  and  _66
REMARK    4  A    between atoms: _27  and  _30
REMARK    5  A    between atoms: _32  and  _33
REMARK    6  A    between atoms: _38  and  _43
REMARK    7  A    between atoms: _43  and  _46
REMARK    8  A    between atoms: _53  and  _55
REMARK                            x       y       z     vdW  Elec       q    Type
REMARK                         _______ _______ _______ _____ _____    ______ ____
ROOT
ATOM     10  C   UNL     1      12.828  18.988  24.697  0.00  0.00    +0.038 A 
ATOM     11  C   UNL     1      11.776  19.739  24.111  0.00  0.00    +0.047 A 
ATOM     12  C   UNL     1      11.643  19.847  22.667  0.00  0.00    +0.035 A 
ATOM     32  C   UNL     1      12.597  19.175  21.848  0.00  0.00    +0.024 A 
ATOM     33  C   UNL     1      13.672  18.409  22.426  0.00  0.00    +0.007 A 
ATOM     34  C   UNL     1      13.810  18.301  23.851  0.00  0.00    -0.029 A 
ATOM     35  C   UNL     1      14.987  17.471  24.416  0.00  0.00    +0.045 C 
ENDROOT
BRANCH  10   9
ATOM      4  C   UNL     1      11.816  16.893  28.895  0.00  0.00    +0.077 A 
ATOM      5  C   UNL     1      11.038  15.867  28.262  0.00  0.00    +0.048 A 
ATOM      6  C   UNL     1      10.918  15.918  26.856  0.00  0.00    +0.116 A 
ATOM      7  N   UNL     1      11.533  16.925  26.144  0.00  0.00    -0.223 NA
ATOM      8  C   UNL     1      12.274  17.901  26.785  0.00  0.00    +0.220 A 
ATOM      9  N   UNL     1      12.908  18.918  26.089  0.00  0.00    -0.283 N 
ATOM     36  H   UNL     1      13.439  19.623  26.600  0.00  0.00    +0.155 HD
ATOM     37  N   UNL     1      12.403  17.875  28.128  0.00  0.00    -0.214 NA
BRANCH   4   3
ATOM      1  C   UNL     1      11.246  17.365  32.736  0.00  0.00    +0.020 A 
ATOM      2  C   UNL     1      10.978  17.301  31.318  0.00  0.00    +0.013 A 
ATOM      3  C   UNL     1      12.038  16.973  30.373  0.00  0.00    +0.019 A 
ATOM     38  C   UNL     1      13.369  16.713  30.901  0.00  0.00    +0.120 A 
ATOM     39  N   UNL     1      13.598  16.783  32.271  0.00  0.00    -0.263 NA
ATOM     40  C   UNL     1      12.586  17.099  33.189  0.00  0.00    +0.111 A 
ENDBRANCH   4   3
ENDBRANCH  10   9
BRANCH  12  13
ATOM     13  N   UNL     1      10.601  20.601  22.015  0.00  0.00    -0.281 N 
ATOM     14  C   UNL     1      10.735  21.728  21.221  0.00  0.00    +0.248 C 
ATOM     30  O   UNL     1      11.759  22.387  21.124  0.00  0.00    -0.270 OA
ATOM     31  H   UNL     1       9.649  20.263  22.157  0.00  0.00    +0.155 HD
BRANCH  14  15
ATOM     15  C   UNL     1       9.557  22.199  20.431  0.00  0.00    +0.037 A 
ATOM     16  C   UNL     1       8.905  23.477  20.728  0.00  0.00    +0.013 A 
ATOM     17  C   UNL     1       7.759  23.900  19.962  0.00  0.00    +0.005 A 
ATOM     18  C   UNL     1       7.259  23.043  18.889  0.00  0.00    -0.033 A 
ATOM     28  C   UNL     1       7.928  21.783  18.613  0.00  0.00    +0.005 A 
ATOM     29  C   UNL     1       9.050  21.365  19.362  0.00  0.00    +0.013 A 
BRANCH  18  19
ATOM     19  C   UNL     1       6.030  23.405  18.035  0.00  0.00    +0.119 C 
BRANCH  19  20
ATOM     20  N   UNL     1       5.036  22.321  17.774  0.00  0.00    -0.302 NA
ATOM     21  C   UNL     1       4.909  22.005  16.281  0.00  0.00    +0.066 C 
ATOM     22  C   UNL     1       3.881  20.854  16.029  0.00  0.00    -0.064 C 
ATOM     23  N   UNL     1       2.525  21.247  16.616  0.00  0.00    +0.379 N 
ATOM     24  C   UNL     1       1.542  20.192  16.330  0.00  0.00    -0.096 C 
ATOM     25  H   UNL     1       2.187  22.174  16.097  0.00  0.00    -0.082 HD
ATOM     26  C   UNL     1       2.642  21.565  18.100  0.00  0.00    -0.064 C 
ATOM     27  C   UNL     1       3.687  22.690  18.342  0.00  0.00    +0.066 C 
ENDBRANCH  19  20
ENDBRANCH  18  19
ENDBRANCH  14  15
ENDBRANCH  12  13
TORSDOF 6
ENDMDL
