MODEL 1
REMARK VINA RESULT:      -9.5      0.000      0.000
REMARK  Name = C:\Users\Docking\Desktop\test protocol\1iep_ligandH.pdb
REMARK  8 active torsions:
REMARK  status: ('A' for Active; 'I' for Inactive)
REMARK    1  A    between atoms: _5  and  _11
REMARK    2  A    between atoms: _19  and  _21
REMARK    3  A    between atoms: _22  and  _66
REMARK    4  A    between atoms: _27  and  _30
REMARK    5  A    between atoms: _32  and  _33
REMARK    6  A    between atoms: _38  and  _43
REMARK    7  A    between atoms: _43  and  _46
REMARK    8  A    between atoms: _53  and  _55
REMARK                            x       y       z     vdW  Elec       q    Type
REMARK                         _______ _______ _______ _____ _____    ______ ____
ROOT
ATOM     10  C   UNL     1      19.317  23.372  14.399  0.00  0.00    +0.038 A 
ATOM     11  C   UNL     1      18.096  23.433  15.118  0.00  0.00    +0.047 A 
ATOM     12  C   UNL     1      16.890  22.799  14.608  0.00  0.00    +0.035 A 
ATOM     32  C   UNL     1      16.964  22.108  13.363  0.00  0.00    +0.024 A 
ATOM     33  C   UNL     1      18.197  22.037  12.619  0.00  0.00    +0.007 A 
ATOM     34  C   UNL     1      19.389  22.663  13.116  0.00  0.00    -0.029 A 
ATOM     35  C   UNL     1      20.681  22.560  12.272  0.00  0.00    +0.045 C 
ENDROOT
BRANCH  10   9
ATOM      4  C   UNL     1      22.065  27.239  15.127  0.00  0.00    +0.077 A 
ATOM      5  C   UNL     1      21.196  28.076  14.352  0.00  0.00    +0.048 A 
ATOM      6  C   UNL     1      20.056  27.471  13.776  0.00  0.00    +0.116 A 
ATOM      7  N   UNL     1      19.813  26.128  13.969  0.00  0.00    -0.223 NA
ATOM      8  C   UNL     1      20.673  25.349  14.722  0.00  0.00    +0.220 A 
ATOM      9  N   UNL     1      20.444  23.999  14.935  0.00  0.00    -0.283 N 
ATOM     36  H   UNL     1      21.106  23.457  15.490  0.00  0.00    +0.155 HD
ATOM     37  N   UNL     1      21.769  25.903  15.281  0.00  0.00    -0.214 NA
BRANCH   4   3
ATOM      1  C   UNL     1      25.309  29.259  15.962  0.00  0.00    +0.020 A 
ATOM      2  C   UNL     1      24.118  28.820  15.271  0.00  0.00    +0.013 A 
ATOM      3  C   UNL     1      23.308  27.732  15.802  0.00  0.00    +0.019 A 
ATOM     38  C   UNL     1      23.732  27.104  17.044  0.00  0.00    +0.120 A 
ATOM     39  N   UNL     1      24.884  27.546  17.686  0.00  0.00    -0.263 NA
ATOM     40  C   UNL     1      25.673  28.592  17.184  0.00  0.00    +0.111 A 
ENDBRANCH   4   3
ENDBRANCH  10   9
BRANCH  12  13
ATOM     13  N   UNL     1      15.620  22.834  15.290  0.00  0.00    -0.281 N 
ATOM     14  C   UNL     1      15.320  22.364  16.558  0.00  0.00    +0.248 C 
ATOM     30  O   UNL     1      16.054  21.645  17.219  0.00  0.00    -0.270 OA
ATOM     31  H   UNL     1      14.847  23.258  14.775  0.00  0.00    +0.155 HD
BRANCH  14  15
ATOM     15  C   UNL     1      14.010  22.734  17.175  0.00  0.00    +0.037 A 
ATOM     16  C   UNL     1      13.939  23.301  18.524  0.00  0.00    +0.013 A 
ATOM     17  C   UNL     1      12.661  23.634  19.102  0.00  0.00    +0.005 A 
ATOM     18  C   UNL     1      11.443  23.401  18.329  0.00  0.00    -0.033 A 
ATOM     28  C   UNL     1      11.543  22.843  16.991  0.00  0.00    +0.005 A 
ATOM     29  C   UNL     1      12.794  22.515  16.421  0.00  0.00    +0.013 A 
BRANCH  18  19
ATOM     19  C   UNL     1      10.035  23.707  18.874  0.00  0.00    +0.119 C 
BRANCH  19  20
ATOM     20  N   UNL     1       9.870  24.953  19.681  0.00  0.00    -0.302 NA
ATOM     21  C   UNL     1       8.406  25.206  20.053  0.00  0.00    +0.066 C 
ATOM     22  C   UNL     1       8.255  26.501  20.916  0.00  0.00    -0.064 C 
ATOM     23  N   UNL     1       8.833  27.692  20.150  0.00  0.00    +0.379 N 
ATOM     24  C   UNL     1       8.639  28.921  20.934  0.00  0.00    -0.096 C 
ATOM     25  H   UNL     1       8.252  27.799  19.204  0.00  0.00    -0.082 HD
ATOM     26  C   UNL     1      10.287  27.447  19.773  0.00  0.00    -0.064 C 
ATOM     27  C   UNL     1      10.430  26.142  18.941  0.00  0.00    +0.066 C 
ENDBRANCH  19  20
ENDBRANCH  18  19
ENDBRANCH  14  15
ENDBRANCH  12  13
TORSDOF 6
ENDMDL
MODEL 2
REMARK VINA RESULT:      -9.3      3.310      5.507
REMARK  Name = C:\Users\Docking\Desktop\test protocol\1iep_ligandH.pdb
REMARK  8 active torsions:
REMARK  status: ('A' for Active; 'I' for Inactive)
REMARK    1  A    between atoms: _5  and  _11
REMARK    2  A    between atoms: _19  and  _21
REMARK    3  A    between atoms: _22  and  _66
REMARK    4  A    between atoms: _27  and  _30
REMARK    5  A    between atoms: _32  and  _33
REMARK    6  A    between atoms: _38  and  _43
REMARK    7  A    between atoms: _43  and  _46
REMARK    8  A    between atoms: _53  and  _55
REMARK                            x       y       z     vdW  Elec       q    Type
REMARK                         _______ _______ _______ _____ _____    ______ ____
ROOT
ATOM     10  C   UNL     1      16.410  23.554  19.026  0.00  0.00    +0.038 A 
ATOM     11  C   UNL     1      15.028  23.875  19.009  0.00  0.00    +0.047 A 
ATOM     12  C   UNL     1      14.041  22.982  19.597  0.00  0.00    +0.035 A 
ATOM     32  C   UNL     1      14.498  21.772  20.196  0.00  0.00    +0.024 A 
ATOM     33  C   UNL     1      15.898  21.430  20.222  0.00  0.00    +0.007 A 
ATOM     34  C   UNL     1      16.876  22.306  19.641  0.00  0.00    -0.029 A 
ATOM     35  C   UNL     1      18.363  21.885  19.691  0.00  0.00    +0.045 C 
ENDROOT
BRANCH  10   9
ATOM      4  C   UNL     1      18.935  25.193  15.287  0.00  0.00    +0.077 A 
ATOM      5  C   UNL     1      18.432  24.166  14.421  0.00  0.00    +0.048 A 
ATOM      6  C   UNL     1      17.531  23.231  14.979  0.00  0.00    +0.116 A 
ATOM      7  N   UNL     1      17.167  23.326  16.305  0.00  0.00    -0.223 NA
ATOM      8  C   UNL     1      17.672  24.328  17.113  0.00  0.00    +0.220 A 
ATOM      9  N   UNL     1      17.313  24.448  18.447  0.00  0.00    -0.283 N 
ATOM     36  H   UNL     1      17.714  25.197  19.011  0.00  0.00    +0.155 HD
ATOM     37  N   UNL     1      18.535  25.232  16.604  0.00  0.00    -0.214 NA
BRANCH   4   3
ATOM      1  C   UNL     1      20.577  28.163  13.343  0.00  0.00    +0.020 A 
ATOM      2  C   UNL     1      19.619  27.153  13.729  0.00  0.00    +0.013 A 
ATOM      3  C   UNL     1      19.892  26.256  14.845  0.00  0.00    +0.019 A 
ATOM     38  C   UNL     1      21.153  26.408  15.554  0.00  0.00    +0.120 A 
ATOM     39  N   UNL     1      22.057  27.389  15.158  0.00  0.00    -0.263 NA
ATOM     40  C   UNL     1      21.806  28.257  14.085  0.00  0.00    +0.111 A 
ENDBRANCH   4   3
ENDBRANCH  10   9
BRANCH  12  13
ATOM     13  N   UNL     1      12.625  23.250  19.602  0.00  0.00    -0.281 N 
ATOM     14  C   UNL     1      11.794  23.460  18.514  0.00  0.00    +0.248 C 
ATOM     30  O   UNL     1      12.185  23.662  17.374  0.00  0.00    -0.270 OA
ATOM     31  H   UNL     1      12.181  23.290  20.520  0.00  0.00    +0.155 HD
BRANCH  14  15
ATOM     15  C   UNL     1      10.314  23.461  18.725  0.00  0.00    +0.037 A 
ATOM     16  C   UNL     1       9.548  24.710  18.737  0.00  0.00    +0.013 A 
ATOM     17  C   UNL     1       8.125  24.684  18.959  0.00  0.00    +0.005 A 
ATOM     18  C   UNL     1       7.456  23.402  19.171  0.00  0.00    -0.033 A 
ATOM     28  C   UNL     1       8.239  22.177  19.149  0.00  0.00    +0.005 A 
ATOM     29  C   UNL     1       9.635  22.200  18.932  0.00  0.00    +0.013 A 
BRANCH  18  19
ATOM     19  C   UNL     1       5.944  23.281  19.437  0.00  0.00    +0.119 C 
BRANCH  19  20
ATOM     20  N   UNL     1       5.521  22.478  20.623  0.00  0.00    -0.302 NA
ATOM     21  C   UNL     1       4.035  22.110  20.567  0.00  0.00    +0.066 C 
ATOM     22  C   UNL     1       3.614  21.251  21.803  0.00  0.00    -0.064 C 
ATOM     23  N   UNL     1       3.934  22.019  23.087  0.00  0.00    +0.379 N 
ATOM     24  C   UNL     1       3.487  21.239  24.250  0.00  0.00    -0.096 C 
ATOM     25  H   UNL     1       3.347  22.967  23.069  0.00  0.00    -0.082 HD
ATOM     26  C   UNL     1       5.409  22.391  23.149  0.00  0.00    -0.064 C 
ATOM     27  C   UNL     1       5.824  23.219  21.901  0.00  0.00    +0.066 C 
ENDBRANCH  19  20
ENDBRANCH  18  19
ENDBRANCH  14  15
ENDBRANCH  12  13
TORSDOF 6
ENDMDL
MODEL 3
REMARK VINA RESULT:      -9.1      1.364      2.101
REMARK  Name = C:\Users\Docking\Desktop\test protocol\1iep_ligandH.pdb
REMARK  8 active torsions:
REMARK  status: ('A' for Active; 'I' for Inactive)
REMARK    1  A    between atoms: _5  and  _11
REMARK    2  A    between atoms: _19  and  _21
REMARK    3  A    between atoms: _22  and  _66
REMARK    4  A    between atoms: _27  and  _30
REMARK    5  A    between atoms: _32  and  _33
REMARK    6  A    between atoms: _38  and  _43
REMARK    7  A    between atoms: _43  and  _46
REMARK    8  A    between atoms: _53  and  _55
REMARK                            x       y       z     vdW  Elec       q    Type
REMARK                         _______ _______ _______ _____ _____    ______ ____
ROOT
ATOM     10  C   UNL     1      19.315  23.599  14.640  0.00  0.00    +0.038 A 
ATOM     11  C   UNL     1      18.139  23.759  15.417  0.00  0.00    +0.047 A 
ATOM     12  C   UNL     1      16.870  23.192  14.987  0.00  0.00    +0.035 A 
ATOM     32  C   UNL     1      16.836  22.466  13.760  0.00  0.00    +0.024 A 
ATOM     33  C   UNL     1      18.021  22.295  12.958  0.00  0.00    +0.007 A 
ATOM     34  C   UNL     1      19.275  22.854  13.376  0.00  0.00    -0.029 A 
ATOM     35  C   UNL     1      20.512  22.645  12.472  0.00  0.00    +0.045 C 
ENDROOT
BRANCH  10   9
ATOM      4  C   UNL     1      22.254  27.338  15.285  0.00  0.00    +0.077 A 
ATOM      5  C   UNL     1      21.352  28.237  14.624  0.00  0.00    +0.048 A 
ATOM      6  C   UNL     1      20.146  27.696  14.126  0.00  0.00    +0.116 A 
ATOM      7  N   UNL     1      19.872  26.354  14.283  0.00  0.00    -0.223 NA
ATOM      8  C   UNL     1      20.764  25.515  14.924  0.00  0.00    +0.220 A 
ATOM      9  N   UNL     1      20.506  24.164  15.101  0.00  0.00    -0.283 N 
ATOM     36  H   UNL     1      21.193  23.577  15.572  0.00  0.00    +0.155 HD
ATOM     37  N   UNL     1      21.924  26.007  15.407  0.00  0.00    -0.214 NA
BRANCH   4   3
ATOM      1  C   UNL     1      25.719  29.075  15.810  0.00  0.00    +0.020 A 
ATOM      2  C   UNL     1      24.462  28.700  15.205  0.00  0.00    +0.013 A 
ATOM      3  C   UNL     1      23.567  27.760  15.867  0.00  0.00    +0.019 A 
ATOM     38  C   UNL     1      23.976  27.214  17.152  0.00  0.00    +0.120 A 
ATOM     39  N   UNL     1      25.193  27.592  17.711  0.00  0.00    -0.263 NA
ATOM     40  C   UNL     1      26.064  28.495  17.082  0.00  0.00    +0.111 A 
ENDBRANCH   4   3
ENDBRANCH  10   9
BRANCH  12  13
ATOM     13  N   UNL     1      15.642  23.328  15.729  0.00  0.00    -0.281 N 
ATOM     14  C   UNL     1      15.199  22.557  16.791  0.00  0.00    +0.248 C 
ATOM     30  O   UNL     1      15.696  21.492  17.127  0.00  0.00    -0.270 OA
ATOM     31  H   UNL     1      15.024  24.086  15.437  0.00  0.00    +0.155 HD
BRANCH  14  15
ATOM     15  C   UNL     1      14.024  23.028  17.585  0.00  0.00    +0.037 A 
ATOM     16  C   UNL     1      12.659  22.912  17.066  0.00  0.00    +0.013 A 
ATOM     17  C   UNL     1      11.545  23.390  17.845  0.00  0.00    +0.005 A 
ATOM     18  C   UNL     1      11.792  23.989  19.155  0.00  0.00    -0.033 A 
ATOM     28  C   UNL     1      13.155  24.087  19.648  0.00  0.00    +0.005 A 
ATOM     29  C   UNL     1      14.250  23.620  18.887  0.00  0.00    +0.013 A 
BRANCH  18  19
ATOM     19  C   UNL     1      10.665  24.545  20.046  0.00  0.00    +0.119 C 
BRANCH  19  20
ATOM     20  N   UNL     1       9.334  23.873  19.964  0.00  0.00    -0.302 NA
ATOM     21  C   UNL     1       8.373  24.613  19.029  0.00  0.00    +0.066 C 
ATOM     22  C   UNL     1       6.993  23.884  18.939  0.00  0.00    -0.064 C 
ATOM     23  N   UNL     1       6.394  23.756  20.340  0.00  0.00    +0.379 N 
ATOM     24  C   UNL     1       5.070  23.123  20.252  0.00  0.00    -0.096 C 
ATOM     25  H   UNL     1       6.250  24.786  20.742  0.00  0.00    -0.082 HD
ATOM     26  C   UNL     1       7.344  23.024  21.277  0.00  0.00    -0.064 C 
ATOM     27  C   UNL     1       8.722  23.740  21.337  0.00  0.00    +0.066 C 
ENDBRANCH  19  20
ENDBRANCH  18  19
ENDBRANCH  14  15
ENDBRANCH  12  13
TORSDOF 6
ENDMDL
MODEL 4
REMARK VINA RESULT:      -9.0      5.769     11.635
REMARK  Name = C:\Users\Docking\Desktop\test protocol\1iep_ligandH.pdb
REMARK  8 active torsions:
REMARK  status: ('A' for Active; 'I' for Inactive)
REMARK    1  A    between atoms: _5  and  _11
REMARK    2  A    between atoms: _19  and  _21
REMARK    3  A    between atoms: _22  and  _66
REMARK    4  A    between atoms: _27  and  _30
REMARK    5  A    between atoms: _32  and  _33
REMARK    6  A    between atoms: _38  and  _43
REMARK    7  A    between atoms: _43  and  _46
REMARK    8  A    between atoms: _53  and  _55
REMARK                            x       y       z     vdW  Elec       q    Type
REMARK                         _______ _______ _______ _____ _____    ______ ____
ROOT
ATOM     10  C   UNL     1      18.380  18.673  13.113  0.00  0.00    +0.038 A 
ATOM     11  C   UNL     1      18.818  19.977  13.460  0.00  0.00    +0.047 A 
ATOM     12  C   UNL     1      19.402  20.864  12.467  0.00  0.00    +0.035 A 
ATOM     32  C   UNL     1      19.523  20.391  11.127  0.00  0.00    +0.024 A 
ATOM     33  C   UNL     1      19.084  19.069  10.757  0.00  0.00    +0.007 A 
ATOM     34  C   UNL     1      18.509  18.189  11.734  0.00  0.00    -0.029 A 
ATOM     35  C   UNL     1      18.062  16.779  11.282  0.00  0.00    +0.045 C 
ENDROOT
BRANCH  10   9
ATOM      4  C   UNL     1      14.726  17.302  15.907  0.00  0.00    +0.077 A 
ATOM      5  C   UNL     1      13.854  18.300  15.358  0.00  0.00    +0.048 A 
ATOM      6  C   UNL     1      14.387  19.151  14.364  0.00  0.00    +0.116 A 
ATOM      7  N   UNL     1      15.695  19.005  13.956  0.00  0.00    -0.223 NA
ATOM      8  C   UNL     1      16.510  18.033  14.508  0.00  0.00    +0.220 A 
ATOM      9  N   UNL     1      17.826  17.864  14.108  0.00  0.00    -0.283 N 
ATOM     36  H   UNL     1      18.397  17.140  14.544  0.00  0.00    +0.155 HD
ATOM     37  N   UNL     1      16.025  17.209  15.459  0.00  0.00    -0.214 NA
BRANCH   4   3
ATOM      1  C   UNL     1      14.058  15.603  19.366  0.00  0.00    +0.020 A 
ATOM      2  C   UNL     1      14.479  16.579  18.387  0.00  0.00    +0.013 A 
ATOM      3  C   UNL     1      14.308  16.325  16.962  0.00  0.00    +0.019 A 
ATOM     38  C   UNL     1      13.704  15.065  16.557  0.00  0.00    +0.120 A 
ATOM     39  N   UNL     1      13.310  14.143  17.523  0.00  0.00    -0.263 NA
ATOM     40  C   UNL     1      13.470  14.376  18.897  0.00  0.00    +0.111 A 
ENDBRANCH   4   3
ENDBRANCH  10   9
BRANCH  12  13
ATOM     13  N   UNL     1      19.872  22.195  12.762  0.00  0.00    -0.281 N 
ATOM     14  C   UNL     1      19.122  23.304  13.116  0.00  0.00    +0.248 C 
ATOM     30  O   UNL     1      17.905  23.373  13.025  0.00  0.00    -0.270 OA
ATOM     31  H   UNL     1      20.881  22.336  12.703  0.00  0.00    +0.155 HD
BRANCH  14  15
ATOM     15  C   UNL     1      19.825  24.516  13.634  0.00  0.00    +0.037 A 
ATOM     16  C   UNL     1      19.221  25.847  13.532  0.00  0.00    +0.013 A 
ATOM     17  C   UNL     1      19.929  27.003  14.024  0.00  0.00    +0.005 A 
ATOM     18  C   UNL     1      21.250  26.831  14.624  0.00  0.00    -0.033 A 
ATOM     28  C   UNL     1      21.824  25.499  14.717  0.00  0.00    +0.005 A 
ATOM     29  C   UNL     1      21.133  24.365  14.235  0.00  0.00    +0.013 A 
BRANCH  18  19
ATOM     19  C   UNL     1      22.086  28.011  15.156  0.00  0.00    +0.119 C 
BRANCH  19  20
ATOM     20  N   UNL     1      23.223  27.686  16.068  0.00  0.00    -0.302 NA
ATOM     21  C   UNL     1      22.761  27.493  17.515  0.00  0.00    +0.066 C 
ATOM     22  C   UNL     1      23.959  27.132  18.452  0.00  0.00    -0.064 C 
ATOM     23  N   UNL     1      25.021  28.230  18.364  0.00  0.00    +0.379 N 
ATOM     24  C   UNL     1      26.123  27.923  19.287  0.00  0.00    -0.096 C 
ATOM     25  H   UNL     1      24.551  29.182  18.703  0.00  0.00    -0.082 HD
ATOM     26  C   UNL     1      25.484  28.430  16.928  0.00  0.00    -0.064 C 
ATOM     27  C   UNL     1      24.281  28.760  16.000  0.00  0.00    +0.066 C 
ENDBRANCH  19  20
ENDBRANCH  18  19
ENDBRANCH  14  15
ENDBRANCH  12  13
TORSDOF 6
ENDMDL
MODEL 5
REMARK VINA RESULT:      -9.0      6.391     11.196
REMARK  Name = C:\Users\Docking\Desktop\test protocol\1iep_ligandH.pdb
REMARK  8 active torsions:
REMARK  status: ('A' for Active; 'I' for Inactive)
REMARK    1  A    between atoms: _5  and  _11
REMARK    2  A    between atoms: _19  and  _21
REMARK    3  A    between atoms: _22  and  _66
REMARK    4  A    between atoms: _27  and  _30
REMARK    5  A    between atoms: _32  and  _33
REMARK    6  A    between atoms: _38  and  _43
REMARK    7  A    between atoms: _43  and  _46
REMARK    8  A    between atoms: _53  and  _55
REMARK                            x       y       z     vdW  Elec       q    Type
REMARK                         _______ _______ _______ _____ _____    ______ ____
ROOT
ATOM     10  C   UNL     1      17.190  21.060  16.703  0.00  0.00    +0.038 A 
ATOM     11  C   UNL     1      17.538  19.915  15.942  0.00  0.00    +0.047 A 
ATOM     12  C   UNL     1      16.763  18.687  16.031  0.00  0.00    +0.035 A 
ATOM     32  C   UNL     1      15.637  18.662  16.905  0.00  0.00    +0.024 A 
ATOM     33  C   UNL     1      15.269  19.816  17.686  0.00  0.00    +0.007 A 
ATOM     34  C   UNL     1      16.032  21.029  17.604  0.00  0.00    -0.029 A 
ATOM     35  C   UNL     1      15.595  22.234  18.470  0.00  0.00    +0.045 C 
ENDROOT
BRANCH  10   9
ATOM      4  C   UNL     1      19.184  24.558  14.091  0.00  0.00    +0.077 A 
ATOM      5  C   UNL     1      18.651  24.030  12.868  0.00  0.00    +0.048 A 
ATOM      6  C   UNL     1      17.874  22.853  12.954  0.00  0.00    +0.116 A 
ATOM      7  N   UNL     1      17.654  22.257  14.177  0.00  0.00    -0.223 NA
ATOM      8  C   UNL     1      18.185  22.791  15.336  0.00  0.00    +0.220 A 
ATOM      9  N   UNL     1      17.969  22.212  16.578  0.00  0.00    -0.283 N 
ATOM     36  H   UNL     1      18.384  22.633  17.409  0.00  0.00    +0.155 HD
ATOM     37  N   UNL     1      18.931  23.914  15.281  0.00  0.00    -0.214 NA
BRANCH   4   3
ATOM      1  C   UNL     1      20.526  28.194  13.560  0.00  0.00    +0.020 A 
ATOM      2  C   UNL     1      19.683  27.025  13.455  0.00  0.00    +0.013 A 
ATOM      3  C   UNL     1      20.022  25.797  14.164  0.00  0.00    +0.019 A 
ATOM     38  C   UNL     1      21.228  25.786  14.977  0.00  0.00    +0.120 A 
ATOM     39  N   UNL     1      22.021  26.926  15.058  0.00  0.00    -0.263 NA
ATOM     40  C   UNL     1      21.706  28.113  14.379  0.00  0.00    +0.111 A 
ENDBRANCH   4   3
ENDBRANCH  10   9
BRANCH  12  13
ATOM     13  N   UNL     1      17.074  17.491  15.289  0.00  0.00    -0.281 N 
ATOM     14  C   UNL     1      17.131  17.333  13.914  0.00  0.00    +0.248 C 
ATOM     30  O   UNL     1      16.713  18.148  13.106  0.00  0.00    -0.270 OA
ATOM     31  H   UNL     1      17.276  16.660  15.845  0.00  0.00    +0.155 HD
BRANCH  14  15
ATOM     15  C   UNL     1      17.727  16.080  13.356  0.00  0.00    +0.037 A 
ATOM     16  C   UNL     1      16.997  14.810  13.392  0.00  0.00    +0.013 A 
ATOM     17  C   UNL     1      17.601  13.614  12.861  0.00  0.00    +0.005 A 
ATOM     18  C   UNL     1      18.944  13.683  12.289  0.00  0.00    -0.033 A 
ATOM     28  C   UNL     1      19.643  14.957  12.261  0.00  0.00    +0.005 A 
ATOM     29  C   UNL     1      19.054  16.132  12.781  0.00  0.00    +0.013 A 
BRANCH  18  19
ATOM     19  C   UNL     1      19.674  12.452  11.719  0.00  0.00    +0.119 C 
BRANCH  19  20
ATOM     20  N   UNL     1      20.708  11.810  12.584  0.00  0.00    -0.302 NA
ATOM     21  C   UNL     1      20.506  12.144  14.065  0.00  0.00    +0.066 C 
ATOM     22  C   UNL     1      21.583  11.446  14.958  0.00  0.00    -0.064 C 
ATOM     23  N   UNL     1      22.978  11.867  14.493  0.00  0.00    +0.379 N 
ATOM     24  C   UNL     1      23.992  11.258  15.367  0.00  0.00    -0.096 C 
ATOM     25  H   UNL     1      23.053  12.974  14.608  0.00  0.00    -0.082 HD
ATOM     26  C   UNL     1      23.187  11.542  13.021  0.00  0.00    -0.064 C 
ATOM     27  C   UNL     1      22.094  12.216  12.146  0.00  0.00    +0.066 C 
ENDBRANCH  19  20
ENDBRANCH  18  19
ENDBRANCH  14  15
ENDBRANCH  12  13
TORSDOF 6
ENDMDL
