MODEL 1
REMARK VINA RESULT:      -9.7      0.000      0.000
REMARK  Name = C:\Users\Docking\Desktop\test protocol\1iep_ligandH.pdb
REMARK  8 active torsions:
REMARK  status: ('A' for Active; 'I' for Inactive)
REMARK    1  A    between atoms: _5  and  _11
REMARK    2  A    between atoms: _19  and  _21
REMARK    3  A    between atoms: _22  and  _66
REMARK    4  A    between atoms: _27  and  _30
REMARK    5  A    between atoms: _32  and  _33
REMARK    6  A    between atoms: _38  and  _43
REMARK    7  A    between atoms: _43  and  _46
REMARK    8  A    between atoms: _53  and  _55
REMARK                            x       y       z     vdW  Elec       q    Type
REMARK                         _______ _______ _______ _____ _____    ______ ____
ROOT
ATOM     10  C   UNL     1      17.038  23.030  14.958  0.00  0.00    +0.038 A 
ATOM     11  C   UNL     1      15.816  23.345  15.605  0.00  0.00    +0.047 A 
ATOM     12  C   UNL     1      14.559  22.764  15.161  0.00  0.00    +0.035 A 
ATOM     32  C   UNL     1      14.583  21.864  14.056  0.00  0.00    +0.024 A 
ATOM     33  C   UNL     1      15.817  21.534  13.386  0.00  0.00    +0.007 A 
ATOM     34  C   UNL     1      17.060  22.106  13.818  0.00  0.00    -0.029 A 
ATOM     35  C   UNL     1      18.351  21.722  13.058  0.00  0.00    +0.045 C 
ENDROOT
BRANCH  10   9
ATOM      4  C   UNL     1      20.292  26.559  14.977  0.00  0.00    +0.077 A 
ATOM      5  C   UNL     1      19.602  27.281  13.948  0.00  0.00    +0.048 A 
ATOM      6  C   UNL     1      18.417  26.707  13.436  0.00  0.00    +0.116 A 
ATOM      7  N   UNL     1      17.965  25.500  13.924  0.00  0.00    -0.223 NA
ATOM      8  C   UNL     1      18.656  24.828  14.915  0.00  0.00    +0.220 A 
ATOM      9  N   UNL     1      18.216  23.617  15.426  0.00  0.00    -0.283 N 
ATOM     36  H   UNL     1      18.758  23.149  16.152  0.00  0.00    +0.155 HD
ATOM     37  N   UNL     1      19.791  25.355  15.420  0.00  0.00    -0.214 NA
BRANCH   4   3
ATOM      1  C   UNL     1      23.724  28.328  15.607  0.00  0.00    +0.020 A 
ATOM      2  C   UNL     1      22.518  27.893  14.939  0.00  0.00    +0.013 A 
ATOM      3  C   UNL     1      21.556  27.037  15.621  0.00  0.00    +0.019 A 
ATOM     38  C   UNL     1      21.846  26.636  16.990  0.00  0.00    +0.120 A 
ATOM     39  N   UNL     1      23.016  27.068  17.607  0.00  0.00    -0.263 NA
ATOM     40  C   UNL     1      23.950  27.891  16.959  0.00  0.00    +0.111 A 
ENDBRANCH   4   3
ENDBRANCH  10   9
BRANCH  12  13
ATOM     13  N   UNL     1      13.285  23.051  15.773  0.00  0.00    -0.281 N 
ATOM     14  C   UNL     1      12.601  22.295  16.711  0.00  0.00    +0.248 C 
ATOM     30  O   UNL     1      12.881  21.144  17.008  0.00  0.00    -0.270 OA
ATOM     31  H   UNL     1      12.834  23.918  15.480  0.00  0.00    +0.155 HD
BRANCH  14  15
ATOM     15  C   UNL     1      11.426  22.901  17.408  0.00  0.00    +0.037 A 
ATOM     16  C   UNL     1      11.576  24.079  18.266  0.00  0.00    +0.013 A 
ATOM     17  C   UNL     1      10.429  24.633  18.941  0.00  0.00    +0.005 A 
ATOM     18  C   UNL     1       9.121  24.010  18.759  0.00  0.00    -0.033 A 
ATOM     28  C   UNL     1       8.999  22.845  17.899  0.00  0.00    +0.005 A 
ATOM     29  C   UNL     1      10.121  22.298  17.236  0.00  0.00    +0.013 A 
BRANCH  18  19
ATOM     19  C   UNL     1       7.846  24.521  19.457  0.00  0.00    +0.119 C 
BRANCH  19  20
ATOM     20  N   UNL     1       6.957  23.501  20.089  0.00  0.00    -0.302 NA
ATOM     21  C   UNL     1       5.475  23.815  19.869  0.00  0.00    +0.066 C 
ATOM     22  C   UNL     1       4.559  22.727  20.518  0.00  0.00    -0.064 C 
ATOM     23  N   UNL     1       4.875  22.622  22.011  0.00  0.00    +0.379 N 
ATOM     24  C   UNL     1       3.976  21.641  22.635  0.00  0.00    -0.096 C 
ATOM     25  H   UNL     1       4.663  23.616  22.471  0.00  0.00    -0.082 HD
ATOM     26  C   UNL     1       6.348  22.312  22.239  0.00  0.00    -0.064 C 
ATOM     27  C   UNL     1       7.249  23.385  21.565  0.00  0.00    +0.066 C 
ENDBRANCH  19  20
ENDBRANCH  18  19
ENDBRANCH  14  15
ENDBRANCH  12  13
TORSDOF 6
ENDMDL
MODEL 2
REMARK VINA RESULT:      -9.3      2.288     13.238
REMARK  Name = C:\Users\Docking\Desktop\test protocol\1iep_ligandH.pdb
REMARK  8 active torsions:
REMARK  status: ('A' for Active; 'I' for Inactive)
REMARK    1  A    between atoms: _5  and  _11
REMARK    2  A    between atoms: _19  and  _21
REMARK    3  A    between atoms: _22  and  _66
REMARK    4  A    between atoms: _27  and  _30
REMARK    5  A    between atoms: _32  and  _33
REMARK    6  A    between atoms: _38  and  _43
REMARK    7  A    between atoms: _43  and  _46
REMARK    8  A    between atoms: _53  and  _55
REMARK                            x       y       z     vdW  Elec       q    Type
REMARK                         _______ _______ _______ _____ _____    ______ ____
ROOT
ATOM     10  C   UNL     1      14.783  22.780  14.934  0.00  0.00    +0.038 A 
ATOM     11  C   UNL     1      15.884  23.669  15.036  0.00  0.00    +0.047 A 
ATOM     12  C   UNL     1      17.191  23.310  14.508  0.00  0.00    +0.035 A 
ATOM     32  C   UNL     1      17.341  22.039  13.881  0.00  0.00    +0.024 A 
ATOM     33  C   UNL     1      16.234  21.123  13.770  0.00  0.00    +0.007 A 
ATOM     34  C   UNL     1      14.942  21.470  14.291  0.00  0.00    -0.029 A 
ATOM     35  C   UNL     1      13.792  20.446  14.150  0.00  0.00    +0.045 C 
ENDROOT
BRANCH  10   9
ATOM      4  C   UNL     1      11.594  23.049  18.511  0.00  0.00    +0.077 A 
ATOM      5  C   UNL     1      12.444  22.316  19.404  0.00  0.00    +0.048 A 
ATOM      6  C   UNL     1      13.692  21.882  18.901  0.00  0.00    +0.116 A 
ATOM      7  N   UNL     1      14.051  22.165  17.602  0.00  0.00    -0.223 NA
ATOM      8  C   UNL     1      13.206  22.872  16.766  0.00  0.00    +0.220 A 
ATOM      9  N   UNL     1      13.550  23.175  15.458  0.00  0.00    -0.283 N 
ATOM     36  H   UNL     1      12.896  23.693  14.871  0.00  0.00    +0.155 HD
ATOM     37  N   UNL     1      12.009  23.297  17.222  0.00  0.00    -0.214 NA
BRANCH   4   3
ATOM      1  C   UNL     1       7.771  23.879  18.515  0.00  0.00    +0.020 A 
ATOM      2  C   UNL     1       9.048  23.347  18.099  0.00  0.00    +0.013 A 
ATOM      3  C   UNL     1      10.247  23.577  18.895  0.00  0.00    +0.019 A 
ATOM     38  C   UNL     1      10.118  24.356  20.118  0.00  0.00    +0.120 A 
ATOM     39  N   UNL     1       8.875  24.858  20.493  0.00  0.00    -0.263 NA
ATOM     40  C   UNL     1       7.715  24.644  19.733  0.00  0.00    +0.111 A 
ENDBRANCH   4   3
ENDBRANCH  10   9
BRANCH  12  13
ATOM     13  N   UNL     1      18.347  24.168  14.589  0.00  0.00    -0.281 N 
ATOM     14  C   UNL     1      18.461  25.486  14.177  0.00  0.00    +0.248 C 
ATOM     30  O   UNL     1      17.642  26.064  13.477  0.00  0.00    -0.270 OA
ATOM     31  H   UNL     1      19.184  23.754  15.000  0.00  0.00    +0.155 HD
BRANCH  14  15
ATOM     15  C   UNL     1      19.663  26.271  14.590  0.00  0.00    +0.037 A 
ATOM     16  C   UNL     1      20.193  27.348  13.751  0.00  0.00    +0.013 A 
ATOM     17  C   UNL     1      21.365  28.079  14.165  0.00  0.00    +0.005 A 
ATOM     18  C   UNL     1      22.014  27.734  15.427  0.00  0.00    -0.033 A 
ATOM     28  C   UNL     1      21.465  26.664  16.243  0.00  0.00    +0.005 A 
ATOM     29  C   UNL     1      20.317  25.945  15.840  0.00  0.00    +0.013 A 
BRANCH  18  19
ATOM     19  C   UNL     1      23.281  28.446  15.937  0.00  0.00    +0.119 C 
BRANCH  19  20
ATOM     20  N   UNL     1      24.599  27.877  15.523  0.00  0.00    -0.302 NA
ATOM     21  C   UNL     1      25.103  26.819  16.509  0.00  0.00    +0.066 C 
ATOM     22  C   UNL     1      26.471  26.218  16.049  0.00  0.00    -0.064 C 
ATOM     23  N   UNL     1      27.493  27.345  15.895  0.00  0.00    +0.379 N 
ATOM     24  C   UNL     1      28.796  26.778  15.519  0.00  0.00    -0.096 C 
ATOM     25  H   UNL     1      27.611  27.833  16.890  0.00  0.00    -0.082 HD
ATOM     26  C   UNL     1      26.999  28.403  14.919  0.00  0.00    -0.064 C 
ATOM     27  C   UNL     1      25.625  28.972  15.369  0.00  0.00    +0.066 C 
ENDBRANCH  19  20
ENDBRANCH  18  19
ENDBRANCH  14  15
ENDBRANCH  12  13
TORSDOF 6
ENDMDL
MODEL 3
REMARK VINA RESULT:      -9.2      1.808      2.764
REMARK  Name = C:\Users\Docking\Desktop\test protocol\1iep_ligandH.pdb
REMARK  8 active torsions:
REMARK  status: ('A' for Active; 'I' for Inactive)
REMARK    1  A    between atoms: _5  and  _11
REMARK    2  A    between atoms: _19  and  _21
REMARK    3  A    between atoms: _22  and  _66
REMARK    4  A    between atoms: _27  and  _30
REMARK    5  A    between atoms: _32  and  _33
REMARK    6  A    between atoms: _38  and  _43
REMARK    7  A    between atoms: _43  and  _46
REMARK    8  A    between atoms: _53  and  _55
REMARK                            x       y       z     vdW  Elec       q    Type
REMARK                         _______ _______ _______ _____ _____    ______ ____
ROOT
ATOM     10  C   UNL     1      17.301  22.956  14.823  0.00  0.00    +0.038 A 
ATOM     11  C   UNL     1      16.077  23.271  15.467  0.00  0.00    +0.047 A 
ATOM     12  C   UNL     1      14.821  22.687  15.023  0.00  0.00    +0.035 A 
ATOM     32  C   UNL     1      14.848  21.784  13.921  0.00  0.00    +0.024 A 
ATOM     33  C   UNL     1      16.083  21.453  13.254  0.00  0.00    +0.007 A 
ATOM     34  C   UNL     1      17.325  22.027  13.686  0.00  0.00    -0.029 A 
ATOM     35  C   UNL     1      18.618  21.642  12.929  0.00  0.00    +0.045 C 
ENDROOT
BRANCH  10   9
ATOM      4  C   UNL     1      20.440  26.583  14.996  0.00  0.00    +0.077 A 
ATOM      5  C   UNL     1      19.685  27.359  14.054  0.00  0.00    +0.048 A 
ATOM      6  C   UNL     1      18.499  26.785  13.543  0.00  0.00    +0.116 A 
ATOM      7  N   UNL     1      18.106  25.529  13.951  0.00  0.00    -0.223 NA
ATOM      8  C   UNL     1      18.858  24.807  14.860  0.00  0.00    +0.220 A 
ATOM      9  N   UNL     1      18.478  23.545  15.291  0.00  0.00    -0.283 N 
ATOM     36  H   UNL     1      19.064  23.042  15.956  0.00  0.00    +0.155 HD
ATOM     37  N   UNL     1      19.995  25.332  15.361  0.00  0.00    -0.214 NA
BRANCH   4   3
ATOM      1  C   UNL     1      23.335  27.193  17.554  0.00  0.00    +0.020 A 
ATOM      2  C   UNL     1      22.094  26.713  16.992  0.00  0.00    +0.013 A 
ATOM      3  C   UNL     1      21.713  27.054  15.627  0.00  0.00    +0.019 A 
ATOM     38  C   UNL     1      22.618  27.889  14.851  0.00  0.00    +0.120 A 
ATOM     39  N   UNL     1      23.806  28.337  15.420  0.00  0.00    -0.263 NA
ATOM     40  C   UNL     1      24.182  28.017  16.733  0.00  0.00    +0.111 A 
ENDBRANCH   4   3
ENDBRANCH  10   9
BRANCH  12  13
ATOM     13  N   UNL     1      13.547  22.976  15.632  0.00  0.00    -0.281 N 
ATOM     14  C   UNL     1      12.766  22.138  16.411  0.00  0.00    +0.248 C 
ATOM     30  O   UNL     1      12.946  20.935  16.526  0.00  0.00    -0.270 OA
ATOM     31  H   UNL     1      13.175  23.912  15.470  0.00  0.00    +0.155 HD
BRANCH  14  15
ATOM     15  C   UNL     1      11.610  22.718  17.160  0.00  0.00    +0.037 A 
ATOM     16  C   UNL     1      10.267  22.142  17.051  0.00  0.00    +0.013 A 
ATOM     17  C   UNL     1       9.166  22.731  17.770  0.00  0.00    +0.005 A 
ATOM     18  C   UNL     1       9.404  23.904  18.607  0.00  0.00    -0.033 A 
ATOM     28  C   UNL     1      10.746  24.453  18.702  0.00  0.00    +0.005 A 
ATOM     29  C   UNL     1      11.828  23.879  17.997  0.00  0.00    +0.013 A 
BRANCH  18  19
ATOM     19  C   UNL     1       8.284  24.611  19.394  0.00  0.00    +0.119 C 
BRANCH  19  20
ATOM     20  N   UNL     1       8.698  25.571  20.460  0.00  0.00    -0.302 NA
ATOM     21  C   UNL     1       7.684  25.631  21.606  0.00  0.00    +0.066 C 
ATOM     22  C   UNL     1       8.144  26.623  22.723  0.00  0.00    -0.064 C 
ATOM     23  N   UNL     1       8.355  28.010  22.114  0.00  0.00    +0.379 N 
ATOM     24  C   UNL     1       8.732  28.958  23.172  0.00  0.00    -0.096 C 
ATOM     25  H   UNL     1       7.380  28.345  21.691  0.00  0.00    -0.082 HD
ATOM     26  C   UNL     1       9.361  27.960  20.972  0.00  0.00    -0.064 C 
ATOM     27  C   UNL     1       8.908  26.949  19.881  0.00  0.00    +0.066 C 
ENDBRANCH  19  20
ENDBRANCH  18  19
ENDBRANCH  14  15
ENDBRANCH  12  13
TORSDOF 6
ENDMDL
MODEL 4
REMARK VINA RESULT:      -9.0      2.373      3.491
REMARK  Name = C:\Users\Docking\Desktop\test protocol\1iep_ligandH.pdb
REMARK  8 active torsions:
REMARK  status: ('A' for Active; 'I' for Inactive)
REMARK    1  A    between atoms: _5  and  _11
REMARK    2  A    between atoms: _19  and  _21
REMARK    3  A    between atoms: _22  and  _66
REMARK    4  A    between atoms: _27  and  _30
REMARK    5  A    between atoms: _32  and  _33
REMARK    6  A    between atoms: _38  and  _43
REMARK    7  A    between atoms: _43  and  _46
REMARK    8  A    between atoms: _53  and  _55
REMARK                            x       y       z     vdW  Elec       q    Type
REMARK                         _______ _______ _______ _____ _____    ______ ____
ROOT
ATOM     10  C   UNL     1      16.224  23.723  19.166  0.00  0.00    +0.038 A 
ATOM     11  C   UNL     1      14.838  24.020  19.104  0.00  0.00    +0.047 A 
ATOM     12  C   UNL     1      13.855  23.162  19.747  0.00  0.00    +0.035 A 
ATOM     32  C   UNL     1      14.318  22.009  20.446  0.00  0.00    +0.024 A 
ATOM     33  C   UNL     1      15.723  21.691  20.518  0.00  0.00    +0.007 A 
ATOM     34  C   UNL     1      16.697  22.533  19.884  0.00  0.00    -0.029 A 
ATOM     35  C   UNL     1      18.189  22.140  19.988  0.00  0.00    +0.045 C 
ENDROOT
BRANCH  10   9
ATOM      4  C   UNL     1      18.459  25.370  15.252  0.00  0.00    +0.077 A 
ATOM      5  C   UNL     1      17.798  24.422  14.403  0.00  0.00    +0.048 A 
ATOM      6  C   UNL     1      16.895  23.523  15.014  0.00  0.00    +0.116 A 
ATOM      7  N   UNL     1      16.678  23.577  16.373  0.00  0.00    -0.223 NA
ATOM      8  C   UNL     1      17.333  24.503  17.164  0.00  0.00    +0.220 A 
ATOM      9  N   UNL     1      17.124  24.582  18.532  0.00  0.00    -0.283 N 
ATOM     36  H   UNL     1      17.632  25.274  19.081  0.00  0.00    +0.155 HD
ATOM     37  N   UNL     1      18.201  25.372  16.604  0.00  0.00    -0.214 NA
BRANCH   4   3
ATOM      1  C   UNL     1      20.367  27.913  12.972  0.00  0.00    +0.020 A 
ATOM      2  C   UNL     1      19.397  26.932  13.403  0.00  0.00    +0.013 A 
ATOM      3  C   UNL     1      19.439  26.388  14.754  0.00  0.00    +0.019 A 
ATOM     38  C   UNL     1      20.481  26.861  15.652  0.00  0.00    +0.120 A 
ATOM     39  N   UNL     1      21.402  27.805  15.210  0.00  0.00    -0.263 NA
ATOM     40  C   UNL     1      21.373  28.335  13.911  0.00  0.00    +0.111 A 
ENDBRANCH   4   3
ENDBRANCH  10   9
BRANCH  12  13
ATOM     13  N   UNL     1      12.435  23.408  19.711  0.00  0.00    -0.281 N 
ATOM     14  C   UNL     1      11.600  23.420  18.605  0.00  0.00    +0.248 C 
ATOM     30  O   UNL     1      11.988  23.431  17.446  0.00  0.00    -0.270 OA
ATOM     31  H   UNL     1      11.991  23.597  20.609  0.00  0.00    +0.155 HD
BRANCH  14  15
ATOM     15  C   UNL     1      10.121  23.437  18.817  0.00  0.00    +0.037 A 
ATOM     16  C   UNL     1       9.365  24.692  18.802  0.00  0.00    +0.013 A 
ATOM     17  C   UNL     1       7.941  24.682  19.026  0.00  0.00    +0.005 A 
ATOM     18  C   UNL     1       7.263  23.410  19.267  0.00  0.00    -0.033 A 
ATOM     28  C   UNL     1       8.036  22.180  19.272  0.00  0.00    +0.005 A 
ATOM     29  C   UNL     1       9.432  22.186  19.053  0.00  0.00    +0.013 A 
BRANCH  18  19
ATOM     19  C   UNL     1       5.750  23.307  19.537  0.00  0.00    +0.119 C 
BRANCH  19  20
ATOM     20  N   UNL     1       5.321  22.527  20.736  0.00  0.00    -0.302 NA
ATOM     21  C   UNL     1       3.836  22.159  20.681  0.00  0.00    +0.066 C 
ATOM     22  C   UNL     1       3.410  21.325  21.932  0.00  0.00    -0.064 C 
ATOM     23  N   UNL     1       3.724  22.117  23.202  0.00  0.00    +0.379 N 
ATOM     24  C   UNL     1       3.272  21.360  24.378  0.00  0.00    -0.096 C 
ATOM     25  H   UNL     1       3.138  23.064  23.163  0.00  0.00    -0.082 HD
ATOM     26  C   UNL     1       5.199  22.490  23.264  0.00  0.00    -0.064 C 
ATOM     27  C   UNL     1       5.619  23.293  22.001  0.00  0.00    +0.066 C 
ENDBRANCH  19  20
ENDBRANCH  18  19
ENDBRANCH  14  15
ENDBRANCH  12  13
TORSDOF 6
ENDMDL
MODEL 5
REMARK VINA RESULT:      -8.9     23.279     24.894
REMARK  Name = C:\Users\Docking\Desktop\test protocol\1iep_ligandH.pdb
REMARK  8 active torsions:
REMARK  status: ('A' for Active; 'I' for Inactive)
REMARK    1  A    between atoms: _5  and  _11
REMARK    2  A    between atoms: _19  and  _21
REMARK    3  A    between atoms: _22  and  _66
REMARK    4  A    between atoms: _27  and  _30
REMARK    5  A    between atoms: _32  and  _33
REMARK    6  A    between atoms: _38  and  _43
REMARK    7  A    between atoms: _43  and  _46
REMARK    8  A    between atoms: _53  and  _55
REMARK                            x       y       z     vdW  Elec       q    Type
REMARK                         _______ _______ _______ _____ _____    ______ ____
ROOT
ATOM     10  C   UNL     1      24.202  40.782  -0.486  0.00  0.00    +0.038 A 
ATOM     11  C   UNL     1      22.859  40.424  -0.204  0.00  0.00    +0.047 A 
ATOM     12  C   UNL     1      21.749  41.242  -0.668  0.00  0.00    +0.035 A 
ATOM     32  C   UNL     1      22.044  42.418  -1.419  0.00  0.00    +0.024 A 
ATOM     33  C   UNL     1      23.404  42.797  -1.713  0.00  0.00    +0.007 A 
ATOM     34  C   UNL     1      24.503  41.995  -1.256  0.00  0.00    -0.029 A 
ATOM     35  C   UNL     1      25.940  42.453  -1.595  0.00  0.00    +0.045 C 
ENDROOT
BRANCH  10   9
ATOM      4  C   UNL     1      27.639  39.694   2.683  0.00  0.00    +0.077 A 
ATOM      5  C   UNL     1      27.386  40.877   3.453  0.00  0.00    +0.048 A 
ATOM      6  C   UNL     1      26.368  41.743   2.996  0.00  0.00    +0.116 A 
ATOM      7  N   UNL     1      25.661  41.439   1.853  0.00  0.00    -0.223 NA
ATOM      8  C   UNL     1      25.932  40.290   1.132  0.00  0.00    +0.220 A 
ATOM      9  N   UNL     1      25.229  39.960  -0.016  0.00  0.00    -0.283 N 
ATOM     36  H   UNL     1      25.464  39.107  -0.523  0.00  0.00    +0.155 HD
ATOM     37  N   UNL     1      26.901  39.447   1.547  0.00  0.00    -0.214 NA
BRANCH   4   3
ATOM      1  C   UNL     1      29.457  36.308   3.412  0.00  0.00    +0.020 A 
ATOM      2  C   UNL     1      28.416  37.246   3.062  0.00  0.00    +0.013 A 
ATOM      3  C   UNL     1      28.681  38.679   3.039  0.00  0.00    +0.019 A 
ATOM     38  C   UNL     1      30.021  39.133   3.379  0.00  0.00    +0.120 A 
ATOM     39  N   UNL     1      31.003  38.207   3.714  0.00  0.00    -0.263 NA
ATOM     40  C   UNL     1      30.759  36.825   3.741  0.00  0.00    +0.111 A 
ENDBRANCH   4   3
ENDBRANCH  10   9
BRANCH  12  13
ATOM     13  N   UNL     1      20.366  40.933  -0.406  0.00  0.00    -0.281 N 
ATOM     14  C   UNL     1      19.302  41.814  -0.300  0.00  0.00    +0.248 C 
ATOM     30  O   UNL     1      19.416  43.027  -0.203  0.00  0.00    -0.270 OA
ATOM     31  H   UNL     1      20.143  39.945  -0.284  0.00  0.00    +0.155 HD
BRANCH  14  15
ATOM     15  C   UNL     1      17.911  41.268  -0.286  0.00  0.00    +0.037 A 
ATOM     16  C   UNL     1      17.650  39.861   0.026  0.00  0.00    +0.013 A 
ATOM     17  C   UNL     1      16.300  39.356   0.016  0.00  0.00    +0.005 A 
ATOM     18  C   UNL     1      15.199  40.260  -0.306  0.00  0.00    -0.033 A 
ATOM     28  C   UNL     1      15.486  41.653  -0.607  0.00  0.00    +0.005 A 
ATOM     29  C   UNL     1      16.808  42.152  -0.599  0.00  0.00    +0.013 A 
BRANCH  18  19
ATOM     19  C   UNL     1      13.729  39.803  -0.361  0.00  0.00    +0.119 C 
BRANCH  19  20
ATOM     20  N   UNL     1      12.772  40.669  -1.112  0.00  0.00    -0.302 NA
ATOM     21  C   UNL     1      11.666  41.221  -0.208  0.00  0.00    +0.066 C 
ATOM     22  C   UNL     1      10.686  42.142  -1.005  0.00  0.00    -0.064 C 
ATOM     23  N   UNL     1      10.089  41.356  -2.174  0.00  0.00    +0.379 N 
ATOM     24  C   UNL     1       9.123  42.202  -2.891  0.00  0.00    -0.096 C 
ATOM     25  H   UNL     1       9.530  40.491  -1.748  0.00  0.00    -0.082 HD
ATOM     26  C   UNL     1      11.181  40.802  -3.076  0.00  0.00    -0.064 C 
ATOM     27  C   UNL     1      12.166  39.911  -2.268  0.00  0.00    +0.066 C 
ENDBRANCH  19  20
ENDBRANCH  18  19
ENDBRANCH  14  15
ENDBRANCH  12  13
TORSDOF 6
ENDMDL
