MODEL 1
REMARK VINA RESULT:      -8.1      0.000      0.000
REMARK  Name = C:\Users\Docking\Desktop\test protocol\1iep_ligandH.pdb
REMARK  8 active torsions:
REMARK  status: ('A' for Active; 'I' for Inactive)
REMARK    1  A    between atoms: _5  and  _11
REMARK    2  A    between atoms: _19  and  _21
REMARK    3  A    between atoms: _22  and  _66
REMARK    4  A    between atoms: _27  and  _30
REMARK    5  A    between atoms: _32  and  _33
REMARK    6  A    between atoms: _38  and  _43
REMARK    7  A    between atoms: _43  and  _46
REMARK    8  A    between atoms: _53  and  _55
REMARK                            x       y       z     vdW  Elec       q    Type
REMARK                         _______ _______ _______ _____ _____    ______ ____
ROOT
ATOM     10  C   UNL     1      14.517  22.841  14.849  0.00  0.00    +0.038 A 
ATOM     11  C   UNL     1      15.729  23.577  14.891  0.00  0.00    +0.047 A 
ATOM     12  C   UNL     1      16.932  23.085  14.238  0.00  0.00    +0.035 A 
ATOM     32  C   UNL     1      16.864  21.840  13.547  0.00  0.00    +0.024 A 
ATOM     33  C   UNL     1      15.641  21.078  13.495  0.00  0.00    +0.007 A 
ATOM     34  C   UNL     1      14.452  21.557  14.140  0.00  0.00    -0.029 A 
ATOM     35  C   UNL     1      13.171  20.696  14.057  0.00  0.00    +0.045 C 
ENDROOT
BRANCH  10   9
ATOM      4  C   UNL     1      11.989  23.834  18.806  0.00  0.00    +0.077 A 
ATOM      5  C   UNL     1      12.980  23.244  19.659  0.00  0.00    +0.048 A 
ATOM      6  C   UNL     1      14.123  22.689  19.039  0.00  0.00    +0.116 A 
ATOM      7  N   UNL     1      14.254  22.728  17.668  0.00  0.00    -0.223 NA
ATOM      8  C   UNL     1      13.278  23.304  16.874  0.00  0.00    +0.220 A 
ATOM      9  N   UNL     1      13.393  23.361  15.494  0.00  0.00    -0.283 N 
ATOM     36  H   UNL     1      12.648  23.787  14.943  0.00  0.00    +0.155 HD
ATOM     37  N   UNL     1      12.177  23.839  17.442  0.00  0.00    -0.214 NA
BRANCH   4   3
ATOM      1  C   UNL     1       9.087  26.374  19.460  0.00  0.00    +0.020 A 
ATOM      2  C   UNL     1      10.314  25.812  18.944  0.00  0.00    +0.013 A 
ATOM      3  C   UNL     1      10.729  24.464  19.312  0.00  0.00    +0.019 A 
ATOM     38  C   UNL     1       9.872  23.705  20.209  0.00  0.00    +0.120 A 
ATOM     39  N   UNL     1       8.696  24.272  20.691  0.00  0.00    -0.263 NA
ATOM     40  C   UNL     1       8.288  25.569  20.346  0.00  0.00    +0.111 A 
ENDBRANCH   4   3
ENDBRANCH  10   9
BRANCH  12  13
ATOM     13  N   UNL     1      18.192  23.785  14.253  0.00  0.00    -0.281 N 
ATOM     14  C   UNL     1      18.495  25.008  13.678  0.00  0.00    +0.248 C 
ATOM     30  O   UNL     1      17.780  25.589  12.875  0.00  0.00    -0.270 OA
ATOM     31  H   UNL     1      18.954  23.322  14.750  0.00  0.00    +0.155 HD
BRANCH  14  15
ATOM     15  C   UNL     1      19.784  25.675  14.034  0.00  0.00    +0.037 A 
ATOM     16  C   UNL     1      19.888  27.134  14.114  0.00  0.00    +0.013 A 
ATOM     17  C   UNL     1      21.148  27.752  14.443  0.00  0.00    +0.005 A 
ATOM     18  C   UNL     1      22.315  26.910  14.697  0.00  0.00    -0.033 A 
ATOM     28  C   UNL     1      22.182  25.465  14.616  0.00  0.00    +0.005 A 
ATOM     29  C   UNL     1      20.949  24.855  14.293  0.00  0.00    +0.013 A 
BRANCH  18  19
ATOM     19  C   UNL     1      23.703  27.484  15.034  0.00  0.00    +0.119 C 
BRANCH  19  20
ATOM     20  N   UNL     1      24.728  26.532  15.558  0.00  0.00    -0.302 NA
ATOM     21  C   UNL     1      24.701  26.443  17.086  0.00  0.00    +0.066 C 
ATOM     22  C   UNL     1      25.764  25.426  17.615  0.00  0.00    -0.064 C 
ATOM     23  N   UNL     1      27.152  25.839  17.121  0.00  0.00    +0.379 N 
ATOM     24  C   UNL     1      28.160  24.918  17.665  0.00  0.00    -0.096 C 
ATOM     25  H   UNL     1      27.366  26.854  17.528  0.00  0.00    -0.082 HD
ATOM     26  C   UNL     1      27.186  25.933  15.603  0.00  0.00    -0.064 C 
ATOM     27  C   UNL     1      26.107  26.924  15.085  0.00  0.00    +0.066 C 
ENDBRANCH  19  20
ENDBRANCH  18  19
ENDBRANCH  14  15
ENDBRANCH  12  13
TORSDOF 6
ENDMDL
MODEL 2
REMARK VINA RESULT:      -7.9      4.760     12.192
REMARK  Name = C:\Users\Docking\Desktop\test protocol\1iep_ligandH.pdb
REMARK  8 active torsions:
REMARK  status: ('A' for Active; 'I' for Inactive)
REMARK    1  A    between atoms: _5  and  _11
REMARK    2  A    between atoms: _19  and  _21
REMARK    3  A    between atoms: _22  and  _66
REMARK    4  A    between atoms: _27  and  _30
REMARK    5  A    between atoms: _32  and  _33
REMARK    6  A    between atoms: _38  and  _43
REMARK    7  A    between atoms: _43  and  _46
REMARK    8  A    between atoms: _53  and  _55
REMARK                            x       y       z     vdW  Elec       q    Type
REMARK                         _______ _______ _______ _____ _____    ______ ____
ROOT
ATOM     10  C   UNL     1      17.249  22.473  12.556  0.00  0.00    +0.038 A 
ATOM     11  C   UNL     1      16.246  22.366  13.552  0.00  0.00    +0.047 A 
ATOM     12  C   UNL     1      15.965  23.468  14.458  0.00  0.00    +0.035 A 
ATOM     32  C   UNL     1      16.722  24.667  14.319  0.00  0.00    +0.024 A 
ATOM     33  C   UNL     1      17.747  24.793  13.312  0.00  0.00    +0.007 A 
ATOM     34  C   UNL     1      18.031  23.708  12.417  0.00  0.00    -0.029 A 
ATOM     35  C   UNL     1      19.144  23.896  11.361  0.00  0.00    +0.045 C 
ENDROOT
BRANCH  10   9
ATOM      4  C   UNL     1      19.647  18.499  11.330  0.00  0.00    +0.077 A 
ATOM      5  C   UNL     1      20.537  18.620  12.449  0.00  0.00    +0.048 A 
ATOM      6  C   UNL     1      20.348  19.723  13.312  0.00  0.00    +0.116 A 
ATOM      7  N   UNL     1      19.341  20.631  13.065  0.00  0.00    -0.223 NA
ATOM      8  C   UNL     1      18.502  20.486  11.976  0.00  0.00    +0.220 A 
ATOM      9  N   UNL     1      17.478  21.383  11.713  0.00  0.00    -0.283 N 
ATOM     36  H   UNL     1      16.885  21.245  10.895  0.00  0.00    +0.155 HD
ATOM     37  N   UNL     1      18.662  19.442  11.136  0.00  0.00    -0.214 NA
BRANCH   4   3
ATOM      1  C   UNL     1      19.039  16.278   8.168  0.00  0.00    +0.020 A 
ATOM      2  C   UNL     1      18.934  17.376   9.101  0.00  0.00    +0.013 A 
ATOM      3  C   UNL     1      19.717  17.387  10.331  0.00  0.00    +0.019 A 
ATOM     38  C   UNL     1      20.604  16.263  10.588  0.00  0.00    +0.120 A 
ATOM     39  N   UNL     1      20.683  15.218   9.672  0.00  0.00    -0.263 NA
ATOM     40  C   UNL     1      19.934  15.196   8.487  0.00  0.00    +0.111 A 
ENDBRANCH   4   3
ENDBRANCH  10   9
BRANCH  12  13
ATOM     13  N   UNL     1      14.964  23.415  15.495  0.00  0.00    -0.281 N 
ATOM     14  C   UNL     1      15.130  23.051  16.821  0.00  0.00    +0.248 C 
ATOM     30  O   UNL     1      16.129  22.508  17.269  0.00  0.00    -0.270 OA
ATOM     31  H   UNL     1      14.018  23.677  15.217  0.00  0.00    +0.155 HD
BRANCH  14  15
ATOM     15  C   UNL     1      14.020  23.315  17.787  0.00  0.00    +0.037 A 
ATOM     16  C   UNL     1      12.629  23.417  17.337  0.00  0.00    +0.013 A 
ATOM     17  C   UNL     1      11.580  23.689  18.287  0.00  0.00    +0.005 A 
ATOM     18  C   UNL     1      11.918  23.860  19.698  0.00  0.00    -0.033 A 
ATOM     28  C   UNL     1      13.305  23.749  20.117  0.00  0.00    +0.005 A 
ATOM     29  C   UNL     1      14.336  23.483  19.189  0.00  0.00    +0.013 A 
BRANCH  18  19
ATOM     19  C   UNL     1      10.866  24.174  20.778  0.00  0.00    +0.119 C 
BRANCH  19  20
ATOM     20  N   UNL     1      10.145  25.478  20.671  0.00  0.00    -0.302 NA
ATOM     21  C   UNL     1      11.102  26.645  20.416  0.00  0.00    +0.066 C 
ATOM     22  C   UNL     1      10.329  27.998  20.285  0.00  0.00    -0.064 C 
ATOM     23  N   UNL     1       9.509  28.238  21.553  0.00  0.00    +0.379 N 
ATOM     24  C   UNL     1       8.826  29.536  21.457  0.00  0.00    -0.096 C 
ATOM     25  H   UNL     1      10.220  28.291  22.410  0.00  0.00    -0.082 HD
ATOM     26  C   UNL     1       8.556  27.081  21.816  0.00  0.00    -0.064 C 
ATOM     27  C   UNL     1       9.331  25.737  21.915  0.00  0.00    +0.066 C 
ENDBRANCH  19  20
ENDBRANCH  18  19
ENDBRANCH  14  15
ENDBRANCH  12  13
TORSDOF 6
ENDMDL
MODEL 3
REMARK VINA RESULT:      -7.8      2.053     11.990
REMARK  Name = C:\Users\Docking\Desktop\test protocol\1iep_ligandH.pdb
REMARK  8 active torsions:
REMARK  status: ('A' for Active; 'I' for Inactive)
REMARK    1  A    between atoms: _5  and  _11
REMARK    2  A    between atoms: _19  and  _21
REMARK    3  A    between atoms: _22  and  _66
REMARK    4  A    between atoms: _27  and  _30
REMARK    5  A    between atoms: _32  and  _33
REMARK    6  A    between atoms: _38  and  _43
REMARK    7  A    between atoms: _43  and  _46
REMARK    8  A    between atoms: _53  and  _55
REMARK                            x       y       z     vdW  Elec       q    Type
REMARK                         _______ _______ _______ _____ _____    ______ ____
ROOT
ATOM     10  C   UNL     1      18.533  23.461  14.313  0.00  0.00    +0.038 A 
ATOM     11  C   UNL     1      17.397  23.628  15.146  0.00  0.00    +0.047 A 
ATOM     12  C   UNL     1      16.061  23.309  14.668  0.00  0.00    +0.035 A 
ATOM     32  C   UNL     1      15.918  22.819  13.337  0.00  0.00    +0.024 A 
ATOM     33  C   UNL     1      17.062  22.644  12.477  0.00  0.00    +0.007 A 
ATOM     34  C   UNL     1      18.383  22.960  12.942  0.00  0.00    -0.029 A 
ATOM     35  C   UNL     1      19.572  22.760  11.974  0.00  0.00    +0.045 C 
ENDROOT
BRANCH  10   9
ATOM      4  C   UNL     1      22.032  26.602  15.281  0.00  0.00    +0.077 A 
ATOM      5  C   UNL     1      21.299  27.688  14.695  0.00  0.00    +0.048 A 
ATOM      6  C   UNL     1      20.029  27.395  14.150  0.00  0.00    +0.116 A 
ATOM      7  N   UNL     1      19.538  26.108  14.193  0.00  0.00    -0.223 NA
ATOM      8  C   UNL     1      20.271  25.083  14.763  0.00  0.00    +0.220 A 
ATOM      9  N   UNL     1      19.793  23.783  14.824  0.00  0.00    -0.283 N 
ATOM     36  H   UNL     1      20.367  23.054  15.246  0.00  0.00    +0.155 HD
ATOM     37  N   UNL     1      21.487  25.337  15.289  0.00  0.00    -0.214 NA
BRANCH   4   3
ATOM      1  C   UNL     1      25.831  27.369  15.810  0.00  0.00    +0.020 A 
ATOM      2  C   UNL     1      24.545  27.241  15.164  0.00  0.00    +0.013 A 
ATOM      3  C   UNL     1      23.386  26.753  15.901  0.00  0.00    +0.019 A 
ATOM     38  C   UNL     1      23.563  26.401  17.301  0.00  0.00    +0.120 A 
ATOM     39  N   UNL     1      24.814  26.533  17.896  0.00  0.00    -0.263 NA
ATOM     40  C   UNL     1      25.937  27.000  17.197  0.00  0.00    +0.111 A 
ENDBRANCH   4   3
ENDBRANCH  10   9
BRANCH  12  13
ATOM     13  N   UNL     1      14.869  23.465  15.464  0.00  0.00    -0.281 N 
ATOM     14  C   UNL     1      14.198  22.496  16.192  0.00  0.00    +0.248 C 
ATOM     30  O   UNL     1      14.400  21.295  16.095  0.00  0.00    -0.270 OA
ATOM     31  H   UNL     1      14.472  24.405  15.496  0.00  0.00    +0.155 HD
BRANCH  14  15
ATOM     15  C   UNL     1      13.138  22.922  17.156  0.00  0.00    +0.037 A 
ATOM     16  C   UNL     1      13.469  23.693  18.357  0.00  0.00    +0.013 A 
ATOM     17  C   UNL     1      12.429  24.076  19.279  0.00  0.00    +0.005 A 
ATOM     18  C   UNL     1      11.048  23.690  19.002  0.00  0.00    -0.033 A 
ATOM     28  C   UNL     1      10.747  22.930  17.800  0.00  0.00    +0.005 A 
ATOM     29  C   UNL     1      11.763  22.551  16.895  0.00  0.00    +0.013 A 
BRANCH  18  19
ATOM     19  C   UNL     1       9.878  24.038  19.942  0.00  0.00    +0.119 C 
BRANCH  19  20
ATOM     20  N   UNL     1       9.927  25.359  20.636  0.00  0.00    -0.302 NA
ATOM     21  C   UNL     1       8.876  25.466  21.743  0.00  0.00    +0.066 C 
ATOM     22  C   UNL     1       8.956  26.846  22.474  0.00  0.00    -0.064 C 
ATOM     23  N   UNL     1       8.784  27.972  21.452  0.00  0.00    +0.379 N 
ATOM     24  C   UNL     1       8.801  29.269  22.143  0.00  0.00    -0.096 C 
ATOM     25  H   UNL     1       7.779  27.851  20.983  0.00  0.00    -0.082 HD
ATOM     26  C   UNL     1       9.824  27.871  20.345  0.00  0.00    -0.064 C 
ATOM     27  C   UNL     1       9.754  26.485  19.646  0.00  0.00    +0.066 C 
ENDBRANCH  19  20
ENDBRANCH  18  19
ENDBRANCH  14  15
ENDBRANCH  12  13
TORSDOF 6
ENDMDL
MODEL 4
REMARK VINA RESULT:      -7.7      2.308     12.679
REMARK  Name = C:\Users\Docking\Desktop\test protocol\1iep_ligandH.pdb
REMARK  8 active torsions:
REMARK  status: ('A' for Active; 'I' for Inactive)
REMARK    1  A    between atoms: _5  and  _11
REMARK    2  A    between atoms: _19  and  _21
REMARK    3  A    between atoms: _22  and  _66
REMARK    4  A    between atoms: _27  and  _30
REMARK    5  A    between atoms: _32  and  _33
REMARK    6  A    between atoms: _38  and  _43
REMARK    7  A    between atoms: _43  and  _46
REMARK    8  A    between atoms: _53  and  _55
REMARK                            x       y       z     vdW  Elec       q    Type
REMARK                         _______ _______ _______ _____ _____    ______ ____
ROOT
ATOM     10  C   UNL     1      16.921  22.992  14.880  0.00  0.00    +0.038 A 
ATOM     11  C   UNL     1      15.761  23.353  15.612  0.00  0.00    +0.047 A 
ATOM     12  C   UNL     1      14.433  22.977  15.151  0.00  0.00    +0.035 A 
ATOM     32  C   UNL     1      14.325  22.230  13.942  0.00  0.00    +0.024 A 
ATOM     33  C   UNL     1      15.494  21.855  13.185  0.00  0.00    +0.007 A 
ATOM     34  C   UNL     1      16.805  22.225  13.634  0.00  0.00    -0.029 A 
ATOM     35  C   UNL     1      18.023  21.802  12.779  0.00  0.00    +0.045 C 
ENDROOT
BRANCH  10   9
ATOM      4  C   UNL     1      20.581  26.084  15.166  0.00  0.00    +0.077 A 
ATOM      5  C   UNL     1      19.963  26.992  14.243  0.00  0.00    +0.048 A 
ATOM      6  C   UNL     1      18.707  26.623  13.712  0.00  0.00    +0.116 A 
ATOM      7  N   UNL     1      18.121  25.432  14.084  0.00  0.00    -0.223 NA
ATOM      8  C   UNL     1      18.745  24.578  14.975  0.00  0.00    +0.220 A 
ATOM      9  N   UNL     1      18.171  23.379  15.369  0.00  0.00    -0.283 N 
ATOM     36  H   UNL     1      18.666  22.774  16.023  0.00  0.00    +0.155 HD
ATOM     37  N   UNL     1      19.946  24.908  15.495  0.00  0.00    -0.214 NA
BRANCH   4   3
ATOM      1  C   UNL     1      24.378  26.830  15.733  0.00  0.00    +0.020 A 
ATOM      2  C   UNL     1      23.124  26.593  15.057  0.00  0.00    +0.013 A 
ATOM      3  C   UNL     1      21.906  26.335  15.816  0.00  0.00    +0.019 A 
ATOM     38  C   UNL     1      21.993  26.325  17.268  0.00  0.00    +0.120 A 
ATOM     39  N   UNL     1      23.216  26.555  17.891  0.00  0.00    -0.263 NA
ATOM     40  C   UNL     1      24.394  26.802  17.172  0.00  0.00    +0.111 A 
ENDBRANCH   4   3
ENDBRANCH  10   9
BRANCH  12  13
ATOM     13  N   UNL     1      13.219  23.322  15.847  0.00  0.00    -0.281 N 
ATOM     14  C   UNL     1      12.580  22.611  16.850  0.00  0.00    +0.248 C 
ATOM     30  O   UNL     1      12.844  21.458  17.154  0.00  0.00    -0.270 OA
ATOM     31  H   UNL     1      12.776  24.197  15.566  0.00  0.00    +0.155 HD
BRANCH  14  15
ATOM     15  C   UNL     1      11.481  23.273  17.616  0.00  0.00    +0.037 A 
ATOM     16  C   UNL     1      10.131  22.704  17.651  0.00  0.00    +0.013 A 
ATOM     17  C   UNL     1       9.084  23.372  18.384  0.00  0.00    +0.005 A 
ATOM     18  C   UNL     1       9.384  24.616  19.088  0.00  0.00    -0.033 A 
ATOM     28  C   UNL     1      10.733  25.155  19.041  0.00  0.00    +0.005 A 
ATOM     29  C   UNL     1      11.761  24.504  18.323  0.00  0.00    +0.013 A 
BRANCH  18  19
ATOM     19  C   UNL     1       8.324  25.407  19.877  0.00  0.00    +0.119 C 
BRANCH  19  20
ATOM     20  N   UNL     1       7.810  24.793  21.138  0.00  0.00    -0.302 NA
ATOM     21  C   UNL     1       6.541  23.970  20.900  0.00  0.00    +0.066 C 
ATOM     22  C   UNL     1       6.030  23.316  22.225  0.00  0.00    -0.064 C 
ATOM     23  N   UNL     1       5.780  24.408  23.267  0.00  0.00    +0.379 N 
ATOM     24  C   UNL     1       5.245  23.802  24.495  0.00  0.00    -0.096 C 
ATOM     25  H   UNL     1       5.000  25.092  22.859  0.00  0.00    -0.082 HD
ATOM     26  C   UNL     1       7.037  25.233  23.507  0.00  0.00    -0.064 C 
ATOM     27  C   UNL     1       7.553  25.854  22.179  0.00  0.00    +0.066 C 
ENDBRANCH  19  20
ENDBRANCH  18  19
ENDBRANCH  14  15
ENDBRANCH  12  13
TORSDOF 6
ENDMDL
MODEL 5
REMARK VINA RESULT:      -7.6      3.051     12.983
REMARK  Name = C:\Users\Docking\Desktop\test protocol\1iep_ligandH.pdb
REMARK  8 active torsions:
REMARK  status: ('A' for Active; 'I' for Inactive)
REMARK    1  A    between atoms: _5  and  _11
REMARK    2  A    between atoms: _19  and  _21
REMARK    3  A    between atoms: _22  and  _66
REMARK    4  A    between atoms: _27  and  _30
REMARK    5  A    between atoms: _32  and  _33
REMARK    6  A    between atoms: _38  and  _43
REMARK    7  A    between atoms: _43  and  _46
REMARK    8  A    between atoms: _53  and  _55
REMARK                            x       y       z     vdW  Elec       q    Type
REMARK                         _______ _______ _______ _____ _____    ______ ____
ROOT
ATOM     10  C   UNL     1      15.492  22.468  13.916  0.00  0.00    +0.038 A 
ATOM     11  C   UNL     1      14.338  22.714  14.704  0.00  0.00    +0.047 A 
ATOM     12  C   UNL     1      13.259  21.741  14.782  0.00  0.00    +0.035 A 
ATOM     32  C   UNL     1      13.389  20.527  14.047  0.00  0.00    +0.024 A 
ATOM     33  C   UNL     1      14.554  20.262  13.240  0.00  0.00    +0.007 A 
ATOM     34  C   UNL     1      15.621  21.218  13.157  0.00  0.00    -0.029 A 
ATOM     35  C   UNL     1      16.843  20.883  12.271  0.00  0.00    +0.045 C 
ENDROOT
BRANCH  10   9
ATOM      4  C   UNL     1      19.415  24.571  15.711  0.00  0.00    +0.077 A 
ATOM      5  C   UNL     1      19.449  23.682  16.837  0.00  0.00    +0.048 A 
ATOM      6  C   UNL     1      18.434  22.702  16.920  0.00  0.00    +0.116 A 
ATOM      7  N   UNL     1      17.463  22.626  15.945  0.00  0.00    -0.223 NA
ATOM      8  C   UNL     1      17.459  23.500  14.873  0.00  0.00    +0.220 A 
ATOM      9  N   UNL     1      16.497  23.437  13.877  0.00  0.00    -0.283 N 
ATOM     36  H   UNL     1      16.525  24.104  13.107  0.00  0.00    +0.155 HD
ATOM     37  N   UNL     1      18.416  24.446  14.772  0.00  0.00    -0.214 NA
BRANCH   4   3
ATOM      1  C   UNL     1      21.728  27.213  13.988  0.00  0.00    +0.020 A 
ATOM      2  C   UNL     1      20.750  26.163  14.155  0.00  0.00    +0.013 A 
ATOM      3  C   UNL     1      20.420  25.657  15.481  0.00  0.00    +0.019 A 
ATOM     38  C   UNL     1      21.102  26.240  16.627  0.00  0.00    +0.120 A 
ATOM     39  N   UNL     1      22.040  27.249  16.435  0.00  0.00    -0.263 NA
ATOM     40  C   UNL     1      22.367  27.743  15.163  0.00  0.00    +0.111 A 
ENDBRANCH   4   3
ENDBRANCH  10   9
BRANCH  12  13
ATOM     13  N   UNL     1      12.061  21.939  15.559  0.00  0.00    -0.281 N 
ATOM     14  C   UNL     1      11.950  22.083  16.933  0.00  0.00    +0.248 C 
ATOM     30  O   UNL     1      12.849  21.849  17.727  0.00  0.00    -0.270 OA
ATOM     31  H   UNL     1      11.188  21.978  15.033  0.00  0.00    +0.155 HD
BRANCH  14  15
ATOM     15  C   UNL     1      10.649  22.540  17.508  0.00  0.00    +0.037 A 
ATOM     16  C   UNL     1      10.553  23.782  18.280  0.00  0.00    +0.013 A 
ATOM     17  C   UNL     1       9.289  24.190  18.839  0.00  0.00    +0.005 A 
ATOM     18  C   UNL     1       8.109  23.355  18.626  0.00  0.00    -0.033 A 
ATOM     28  C   UNL     1       8.231  22.131  17.852  0.00  0.00    +0.005 A 
ATOM     29  C   UNL     1       9.469  21.727  17.304  0.00  0.00    +0.013 A 
BRANCH  18  19
ATOM     19  C   UNL     1       6.724  23.703  19.203  0.00  0.00    +0.119 C 
BRANCH  19  20
ATOM     20  N   UNL     1       6.210  22.844  20.311  0.00  0.00    -0.302 NA
ATOM     21  C   UNL     1       4.763  22.402  20.072  0.00  0.00    +0.066 C 
ATOM     22  C   UNL     1       4.249  21.486  21.230  0.00  0.00    -0.064 C 
ATOM     23  N   UNL     1       4.374  22.230  22.560  0.00  0.00    +0.379 N 
ATOM     24  C   UNL     1       3.838  21.393  23.643  0.00  0.00    -0.096 C 
ATOM     25  H   UNL     1       3.743  23.146  22.495  0.00  0.00    -0.082 HD
ATOM     26  C   UNL     1       5.809  22.675  22.805  0.00  0.00    -0.064 C 
ATOM     27  C   UNL     1       6.320  23.561  21.634  0.00  0.00    +0.066 C 
ENDBRANCH  19  20
ENDBRANCH  18  19
ENDBRANCH  14  15
ENDBRANCH  12  13
TORSDOF 6
ENDMDL
