MODEL 1
REMARK VINA RESULT:      -7.7      0.000      0.000
REMARK  Name = C:\Users\Docking\Desktop\test protocol\1iep_ligandH.pdb
REMARK  8 active torsions:
REMARK  status: ('A' for Active; 'I' for Inactive)
REMARK    1  A    between atoms: _5  and  _11
REMARK    2  A    between atoms: _19  and  _21
REMARK    3  A    between atoms: _22  and  _66
REMARK    4  A    between atoms: _27  and  _30
REMARK    5  A    between atoms: _32  and  _33
REMARK    6  A    between atoms: _38  and  _43
REMARK    7  A    between atoms: _43  and  _46
REMARK    8  A    between atoms: _53  and  _55
REMARK                            x       y       z     vdW  Elec       q    Type
REMARK                         _______ _______ _______ _____ _____    ______ ____
ROOT
ATOM     10  C   UNL     1      12.668  20.079  15.220  0.00  0.00    +0.038 A 
ATOM     11  C   UNL     1      13.831  19.613  15.886  0.00  0.00    +0.047 A 
ATOM     12  C   UNL     1      15.157  20.052  15.481  0.00  0.00    +0.035 A 
ATOM     32  C   UNL     1      15.262  20.969  14.394  0.00  0.00    +0.024 A 
ATOM     33  C   UNL     1      14.091  21.451  13.705  0.00  0.00    +0.007 A 
ATOM     34  C   UNL     1      12.781  21.019  14.099  0.00  0.00    -0.029 A 
ATOM     35  C   UNL     1      11.561  21.564  13.320  0.00  0.00    +0.045 C 
ENDROOT
BRANCH  10   9
ATOM      4  C   UNL     1       9.037  16.942  15.110  0.00  0.00    +0.077 A 
ATOM      5  C   UNL     1       9.668  16.157  14.089  0.00  0.00    +0.048 A 
ATOM      6  C   UNL     1      10.923  16.598  13.614  0.00  0.00    +0.116 A 
ATOM      7  N   UNL     1      11.495  17.741  14.129  0.00  0.00    -0.223 NA
ATOM      8  C   UNL     1      10.859  18.476  15.112  0.00  0.00    +0.220 A 
ATOM      9  N   UNL     1      11.420  19.624  15.651  0.00  0.00    -0.283 N 
ATOM     36  H   UNL     1      10.915  20.142  16.369  0.00  0.00    +0.155 HD
ATOM     37  N   UNL     1       9.659  18.076  15.582  0.00  0.00    -0.214 NA
BRANCH   4   3
ATOM      1  C   UNL     1       5.328  15.785  15.569  0.00  0.00    +0.020 A 
ATOM      2  C   UNL     1       6.588  16.098  14.935  0.00  0.00    +0.013 A 
ATOM      3  C   UNL     1       7.710  16.603  15.716  0.00  0.00    +0.019 A 
ATOM     38  C   UNL     1       7.523  16.782  17.148  0.00  0.00    +0.120 A 
ATOM     39  N   UNL     1       6.298  16.474  17.731  0.00  0.00    -0.263 NA
ATOM     40  C   UNL     1       5.211  15.989  16.989  0.00  0.00    +0.111 A 
ENDBRANCH   4   3
ENDBRANCH  10   9
BRANCH  12  13
ATOM     13  N   UNL     1      16.373  19.608  16.114  0.00  0.00    -0.281 N 
ATOM     14  C   UNL     1      17.177  20.307  17.000  0.00  0.00    +0.248 C 
ATOM     30  O   UNL     1      17.085  21.505  17.218  0.00  0.00    -0.270 OA
ATOM     31  H   UNL     1      16.679  18.663  15.881  0.00  0.00    +0.155 HD
BRANCH  14  15
ATOM     15  C   UNL     1      18.247  19.570  17.740  0.00  0.00    +0.037 A 
ATOM     16  C   UNL     1      17.948  18.348  18.490  0.00  0.00    +0.013 A 
ATOM     17  C   UNL     1      18.995  17.667  19.209  0.00  0.00    +0.005 A 
ATOM     18  C   UNL     1      20.353  18.206  19.179  0.00  0.00    -0.033 A 
ATOM     28  C   UNL     1      20.622  19.417  18.422  0.00  0.00    +0.005 A 
ATOM     29  C   UNL     1      19.598  20.088  17.717  0.00  0.00    +0.013 A 
BRANCH  18  19
ATOM     19  C   UNL     1      21.528  17.557  19.934  0.00  0.00    +0.119 C 
BRANCH  19  20
ATOM     20  N   UNL     1      21.978  18.216  21.196  0.00  0.00    -0.302 NA
ATOM     21  C   UNL     1      23.222  19.082  20.979  0.00  0.00    +0.066 C 
ATOM     22  C   UNL     1      23.666  19.783  22.305  0.00  0.00    -0.064 C 
ATOM     23  N   UNL     1      23.924  18.723  23.377  0.00  0.00    +0.379 N 
ATOM     24  C   UNL     1      24.397  19.374  24.607  0.00  0.00    -0.096 C 
ATOM     25  H   UNL     1      24.742  18.061  23.008  0.00  0.00    -0.082 HD
ATOM     26  C   UNL     1      22.693  17.855  23.597  0.00  0.00    -0.064 C 
ATOM     27  C   UNL     1      22.242  17.187  22.267  0.00  0.00    +0.066 C 
ENDBRANCH  19  20
ENDBRANCH  18  19
ENDBRANCH  14  15
ENDBRANCH  12  13
TORSDOF 6
ENDMDL
MODEL 2
REMARK VINA RESULT:      -7.6      1.598      2.206
REMARK  Name = C:\Users\Docking\Desktop\test protocol\1iep_ligandH.pdb
REMARK  8 active torsions:
REMARK  status: ('A' for Active; 'I' for Inactive)
REMARK    1  A    between atoms: _5  and  _11
REMARK    2  A    between atoms: _19  and  _21
REMARK    3  A    between atoms: _22  and  _66
REMARK    4  A    between atoms: _27  and  _30
REMARK    5  A    between atoms: _32  and  _33
REMARK    6  A    between atoms: _38  and  _43
REMARK    7  A    between atoms: _43  and  _46
REMARK    8  A    between atoms: _53  and  _55
REMARK                            x       y       z     vdW  Elec       q    Type
REMARK                         _______ _______ _______ _____ _____    ______ ____
ROOT
ATOM     10  C   UNL     1      13.062  20.044  15.526  0.00  0.00    +0.038 A 
ATOM     11  C   UNL     1      14.198  19.527  16.200  0.00  0.00    +0.047 A 
ATOM     12  C   UNL     1      15.544  19.925  15.818  0.00  0.00    +0.035 A 
ATOM     32  C   UNL     1      15.696  20.852  14.747  0.00  0.00    +0.024 A 
ATOM     33  C   UNL     1      14.553  21.386  14.050  0.00  0.00    +0.007 A 
ATOM     34  C   UNL     1      13.222  20.996  14.421  0.00  0.00    -0.029 A 
ATOM     35  C   UNL     1      12.033  21.596  13.635  0.00  0.00    +0.045 C 
ENDROOT
BRANCH  10   9
ATOM      4  C   UNL     1       9.296  17.078  15.280  0.00  0.00    +0.077 A 
ATOM      5  C   UNL     1       9.897  16.307  14.230  0.00  0.00    +0.048 A 
ATOM      6  C   UNL     1      11.173  16.711  13.777  0.00  0.00    +0.116 A 
ATOM      7  N   UNL     1      11.792  17.806  14.339  0.00  0.00    -0.223 NA
ATOM      8  C   UNL     1      11.184  18.529  15.349  0.00  0.00    +0.220 A 
ATOM      9  N   UNL     1      11.792  19.628  15.935  0.00  0.00    -0.283 N 
ATOM     36  H   UNL     1      11.307  20.140  16.672  0.00  0.00    +0.155 HD
ATOM     37  N   UNL     1       9.965  18.164  15.798  0.00  0.00    -0.214 NA
BRANCH   4   3
ATOM      1  C   UNL     1       5.508  16.184  15.671  0.00  0.00    +0.020 A 
ATOM      2  C   UNL     1       6.783  16.470  15.054  0.00  0.00    +0.013 A 
ATOM      3  C   UNL     1       7.953  16.775  15.867  0.00  0.00    +0.019 A 
ATOM     38  C   UNL     1       7.799  16.780  17.314  0.00  0.00    +0.120 A 
ATOM     39  N   UNL     1       6.559  16.501  17.881  0.00  0.00    -0.263 NA
ATOM     40  C   UNL     1       5.425  16.209  17.108  0.00  0.00    +0.111 A 
ENDBRANCH   4   3
ENDBRANCH  10   9
BRANCH  12  13
ATOM     13  N   UNL     1      16.736  19.427  16.460  0.00  0.00    -0.281 N 
ATOM     14  C   UNL     1      17.443  20.001  17.504  0.00  0.00    +0.248 C 
ATOM     30  O   UNL     1      17.279  21.144  17.905  0.00  0.00    -0.270 OA
ATOM     31  H   UNL     1      17.102  18.545  16.102  0.00  0.00    +0.155 HD
BRANCH  14  15
ATOM     15  C   UNL     1      18.495  19.193  18.193  0.00  0.00    +0.037 A 
ATOM     16  C   UNL     1      18.535  17.734  18.070  0.00  0.00    +0.013 A 
ATOM     17  C   UNL     1      19.551  16.977  18.758  0.00  0.00    +0.005 A 
ATOM     18  C   UNL     1      20.537  17.680  19.576  0.00  0.00    -0.033 A 
ATOM     28  C   UNL     1      20.477  19.129  19.676  0.00  0.00    +0.005 A 
ATOM     29  C   UNL     1      19.482  19.874  19.004  0.00  0.00    +0.013 A 
BRANCH  18  19
ATOM     19  C   UNL     1      21.643  16.953  20.363  0.00  0.00    +0.119 C 
BRANCH  19  20
ATOM     20  N   UNL     1      21.271  16.373  21.688  0.00  0.00    -0.302 NA
ATOM     21  C   UNL     1      20.816  14.915  21.570  0.00  0.00    +0.066 C 
ATOM     22  C   UNL     1      20.453  14.318  22.968  0.00  0.00    -0.064 C 
ATOM     23  N   UNL     1      19.364  15.174  23.618  0.00  0.00    +0.379 N 
ATOM     24  C   UNL     1      18.979  14.582  24.907  0.00  0.00    -0.096 C 
ATOM     25  H   UNL     1      18.470  15.146  22.952  0.00  0.00    -0.082 HD
ATOM     26  C   UNL     1      19.807  16.625  23.736  0.00  0.00    -0.064 C 
ATOM     27  C   UNL     1      20.194  17.200  22.345  0.00  0.00    +0.066 C 
ENDBRANCH  19  20
ENDBRANCH  18  19
ENDBRANCH  14  15
ENDBRANCH  12  13
TORSDOF 6
ENDMDL
MODEL 3
REMARK VINA RESULT:      -7.5      7.417     14.569
REMARK  Name = C:\Users\Docking\Desktop\test protocol\1iep_ligandH.pdb
REMARK  8 active torsions:
REMARK  status: ('A' for Active; 'I' for Inactive)
REMARK    1  A    between atoms: _5  and  _11
REMARK    2  A    between atoms: _19  and  _21
REMARK    3  A    between atoms: _22  and  _66
REMARK    4  A    between atoms: _27  and  _30
REMARK    5  A    between atoms: _32  and  _33
REMARK    6  A    between atoms: _38  and  _43
REMARK    7  A    between atoms: _43  and  _46
REMARK    8  A    between atoms: _53  and  _55
REMARK                            x       y       z     vdW  Elec       q    Type
REMARK                         _______ _______ _______ _____ _____    ______ ____
ROOT
ATOM     10  C   UNL     1       9.804  17.787  14.402  0.00  0.00    +0.038 A 
ATOM     11  C   UNL     1       8.513  18.017  14.943  0.00  0.00    +0.047 A 
ATOM     12  C   UNL     1       7.490  16.983  14.913  0.00  0.00    +0.035 A 
ATOM     32  C   UNL     1       7.817  15.726  14.327  0.00  0.00    +0.024 A 
ATOM     33  C   UNL     1       9.124  15.476  13.771  0.00  0.00    +0.007 A 
ATOM     34  C   UNL     1      10.136  16.492  13.795  0.00  0.00    -0.029 A 
ATOM     35  C   UNL     1      11.518  16.171  13.179  0.00  0.00    +0.045 C 
ENDROOT
BRANCH  10   9
ATOM      4  C   UNL     1      12.179  21.464  12.432  0.00  0.00    +0.077 A 
ATOM      5  C   UNL     1      11.500  21.307  11.178  0.00  0.00    +0.048 A 
ATOM      6  C   UNL     1      10.553  20.264  11.079  0.00  0.00    +0.116 A 
ATOM      7  N   UNL     1      10.310  19.445  12.160  0.00  0.00    -0.223 NA
ATOM      8  C   UNL     1      10.983  19.622  13.354  0.00  0.00    +0.220 A 
ATOM      9  N   UNL     1      10.748  18.815  14.457  0.00  0.00    -0.283 N 
ATOM     36  H   UNL     1      11.271  18.974  15.318  0.00  0.00    +0.155 HD
ATOM     37  N   UNL     1      11.893  20.610  13.474  0.00  0.00    -0.214 NA
BRANCH   4   3
ATOM      1  C   UNL     1      15.549  23.278  13.240  0.00  0.00    +0.020 A 
ATOM      2  C   UNL     1      14.598  22.218  12.996  0.00  0.00    +0.013 A 
ATOM      3  C   UNL     1      13.205  22.522  12.693  0.00  0.00    +0.019 A 
ATOM     38  C   UNL     1      12.804  23.920  12.644  0.00  0.00    +0.120 A 
ATOM     39  N   UNL     1      13.742  24.920  12.885  0.00  0.00    -0.263 NA
ATOM     40  C   UNL     1      15.085  24.638  13.179  0.00  0.00    +0.111 A 
ENDBRANCH   4   3
ENDBRANCH  10   9
BRANCH  12  13
ATOM     13  N   UNL     1       6.160  17.162  15.440  0.00  0.00    -0.281 N 
ATOM     14  C   UNL     1       5.729  16.984  16.745  0.00  0.00    +0.248 C 
ATOM     30  O   UNL     1       6.383  16.436  17.619  0.00  0.00    -0.270 OA
ATOM     31  H   UNL     1       5.449  17.454  14.769  0.00  0.00    +0.155 HD
BRANCH  14  15
ATOM     15  C   UNL     1       4.371  17.474  17.130  0.00  0.00    +0.037 A 
ATOM     16  C   UNL     1       4.181  18.363  18.279  0.00  0.00    +0.013 A 
ATOM     17  C   UNL     1       2.858  18.807  18.639  0.00  0.00    +0.005 A 
ATOM     18  C   UNL     1       1.713  18.364  17.847  0.00  0.00    -0.033 A 
ATOM     28  C   UNL     1       1.931  17.486  16.708  0.00  0.00    +0.005 A 
ATOM     29  C   UNL     1       3.226  17.048  16.353  0.00  0.00    +0.013 A 
BRANCH  18  19
ATOM     19  C   UNL     1       0.264  18.771  18.171  0.00  0.00    +0.119 C 
BRANCH  19  20
ATOM     20  N   UNL     1       0.033  19.529  19.436  0.00  0.00    -0.302 NA
ATOM     21  C   UNL     1      -0.380  18.611  20.590  0.00  0.00    +0.066 C 
ATOM     22  C   UNL     1      -0.595  19.418  21.911  0.00  0.00    -0.064 C 
ATOM     23  N   UNL     1      -1.649  20.502  21.678  0.00  0.00    +0.379 N 
ATOM     24  C   UNL     1      -1.896  21.225  22.934  0.00  0.00    -0.096 C 
ATOM     25  H   UNL     1      -2.598  19.993  21.388  0.00  0.00    -0.082 HD
ATOM     26  C   UNL     1      -1.247  21.418  20.531  0.00  0.00    -0.064 C 
ATOM     27  C   UNL     1      -1.007  20.602  19.230  0.00  0.00    +0.066 C 
ENDBRANCH  19  20
ENDBRANCH  18  19
ENDBRANCH  14  15
ENDBRANCH  12  13
TORSDOF 6
ENDMDL
MODEL 4
REMARK VINA RESULT:      -7.5      3.477      6.107
REMARK  Name = C:\Users\Docking\Desktop\test protocol\1iep_ligandH.pdb
REMARK  8 active torsions:
REMARK  status: ('A' for Active; 'I' for Inactive)
REMARK    1  A    between atoms: _5  and  _11
REMARK    2  A    between atoms: _19  and  _21
REMARK    3  A    between atoms: _22  and  _66
REMARK    4  A    between atoms: _27  and  _30
REMARK    5  A    between atoms: _32  and  _33
REMARK    6  A    between atoms: _38  and  _43
REMARK    7  A    between atoms: _43  and  _46
REMARK    8  A    between atoms: _53  and  _55
REMARK                            x       y       z     vdW  Elec       q    Type
REMARK                         _______ _______ _______ _____ _____    ______ ____
ROOT
ATOM     10  C   UNL     1      11.013  20.408  14.804  0.00  0.00    +0.038 A 
ATOM     11  C   UNL     1      12.304  20.448  15.389  0.00  0.00    +0.047 A 
ATOM     12  C   UNL     1      12.993  19.228  15.778  0.00  0.00    +0.035 A 
ATOM     32  C   UNL     1      12.338  17.982  15.554  0.00  0.00    +0.024 A 
ATOM     33  C   UNL     1      11.025  17.922  14.962  0.00  0.00    +0.007 A 
ATOM     34  C   UNL     1      10.340  19.123  14.579  0.00  0.00    -0.029 A 
ATOM     35  C   UNL     1       8.930  18.999  13.954  0.00  0.00    +0.045 C 
ENDROOT
BRANCH  10   9
ATOM      4  C   UNL     1      10.066  23.914  11.667  0.00  0.00    +0.077 A 
ATOM      5  C   UNL     1      10.888  23.313  10.657  0.00  0.00    +0.048 A 
ATOM      6  C   UNL     1      11.543  22.106  10.987  0.00  0.00    +0.116 A 
ATOM      7  N   UNL     1      11.381  21.550  12.237  0.00  0.00    -0.223 NA
ATOM      8  C   UNL     1      10.582  22.156  13.189  0.00  0.00    +0.220 A 
ATOM      9  N   UNL     1      10.397  21.610  14.450  0.00  0.00    -0.283 N 
ATOM     36  H   UNL     1       9.806  22.092  15.127  0.00  0.00    +0.155 HD
ATOM     37  N   UNL     1       9.946  23.311  12.899  0.00  0.00    -0.214 NA
BRANCH   4   3
ATOM      1  C   UNL     1       8.932  27.417  10.346  0.00  0.00    +0.020 A 
ATOM      2  C   UNL     1       9.700  26.203  10.499  0.00  0.00    +0.013 A 
ATOM      3  C   UNL     1       9.306  25.189  11.469  0.00  0.00    +0.019 A 
ATOM     38  C   UNL     1       8.120  25.436  12.274  0.00  0.00    +0.120 A 
ATOM     39  N   UNL     1       7.401  26.615  12.106  0.00  0.00    -0.263 NA
ATOM     40  C   UNL     1       7.771  27.599  11.177  0.00  0.00    +0.111 A 
ENDBRANCH   4   3
ENDBRANCH  10   9
BRANCH  12  13
ATOM     13  N   UNL     1      14.302  19.208  16.383  0.00  0.00    -0.281 N 
ATOM     14  C   UNL     1      14.755  19.955  17.458  0.00  0.00    +0.248 C 
ATOM     30  O   UNL     1      14.164  20.915  17.930  0.00  0.00    -0.270 OA
ATOM     31  H   UNL     1      14.976  18.564  15.969  0.00  0.00    +0.155 HD
BRANCH  14  15
ATOM     15  C   UNL     1      16.059  19.592  18.091  0.00  0.00    +0.037 A 
ATOM     16  C   UNL     1      17.316  19.676  17.343  0.00  0.00    +0.013 A 
ATOM     17  C   UNL     1      18.559  19.305  17.972  0.00  0.00    +0.005 A 
ATOM     18  C   UNL     1      18.550  18.846  19.360  0.00  0.00    -0.033 A 
ATOM     28  C   UNL     1      17.289  18.777  20.080  0.00  0.00    +0.005 A 
ATOM     29  C   UNL     1      16.069  19.140  19.466  0.00  0.00    +0.013 A 
BRANCH  18  19
ATOM     19  C   UNL     1      19.825  18.409  20.104  0.00  0.00    +0.119 C 
BRANCH  19  20
ATOM     20  N   UNL     1      19.816  17.059  20.742  0.00  0.00    -0.302 NA
ATOM     21  C   UNL     1      21.038  16.838  21.637  0.00  0.00    +0.066 C 
ATOM     22  C   UNL     1      21.001  15.429  22.313  0.00  0.00    -0.064 C 
ATOM     23  N   UNL     1      20.919  14.349  21.233  0.00  0.00    +0.379 N 
ATOM     24  C   UNL     1      20.942  13.021  21.863  0.00  0.00    -0.096 C 
ATOM     25  H   UNL     1      21.830  14.438  20.597  0.00  0.00    -0.082 HD
ATOM     26  C   UNL     1      19.708  14.563  20.336  0.00  0.00    -0.064 C 
ATOM     27  C   UNL     1      19.739  15.977  19.692  0.00  0.00    +0.066 C 
ENDBRANCH  19  20
ENDBRANCH  18  19
ENDBRANCH  14  15
ENDBRANCH  12  13
TORSDOF 6
ENDMDL
MODEL 5
REMARK VINA RESULT:      -7.5      2.394     13.178
REMARK  Name = C:\Users\Docking\Desktop\test protocol\1iep_ligandH.pdb
REMARK  8 active torsions:
REMARK  status: ('A' for Active; 'I' for Inactive)
REMARK    1  A    between atoms: _5  and  _11
REMARK    2  A    between atoms: _19  and  _21
REMARK    3  A    between atoms: _22  and  _66
REMARK    4  A    between atoms: _27  and  _30
REMARK    5  A    between atoms: _32  and  _33
REMARK    6  A    between atoms: _38  and  _43
REMARK    7  A    between atoms: _43  and  _46
REMARK    8  A    between atoms: _53  and  _55
REMARK                            x       y       z     vdW  Elec       q    Type
REMARK                         _______ _______ _______ _____ _____    ______ ____
ROOT
ATOM     10  C   UNL     1      14.597  19.989  15.406  0.00  0.00    +0.038 A 
ATOM     11  C   UNL     1      13.399  19.239  15.518  0.00  0.00    +0.047 A 
ATOM     12  C   UNL     1      12.151  19.725  14.951  0.00  0.00    +0.035 A 
ATOM     32  C   UNL     1      12.160  20.979  14.273  0.00  0.00    +0.024 A 
ATOM     33  C   UNL     1      13.369  21.755  14.150  0.00  0.00    +0.007 A 
ATOM     34  C   UNL     1      14.602  21.282  14.710  0.00  0.00    -0.029 A 
ATOM     35  C   UNL     1      15.867  22.159  14.553  0.00  0.00    +0.045 C 
ENDROOT
BRANCH  10   9
ATOM      4  C   UNL     1      17.531  19.251  19.132  0.00  0.00    +0.077 A 
ATOM      5  C   UNL     1      16.674  19.975  20.026  0.00  0.00    +0.048 A 
ATOM      6  C   UNL     1      15.491  20.527  19.486  0.00  0.00    +0.116 A 
ATOM      7  N   UNL     1      15.197  20.362  18.150  0.00  0.00    -0.223 NA
ATOM      8  C   UNL     1      16.047  19.660  17.314  0.00  0.00    +0.220 A 
ATOM      9  N   UNL     1      15.767  19.475  15.969  0.00  0.00    -0.283 N 
ATOM     36  H   UNL     1      16.423  18.957  15.384  0.00  0.00    +0.155 HD
ATOM     37  N   UNL     1      17.183  19.124  17.805  0.00  0.00    -0.214 NA
BRANCH   4   3
ATOM      1  C   UNL     1      20.549  16.779  19.417  0.00  0.00    +0.020 A 
ATOM      2  C   UNL     1      19.303  17.360  18.975  0.00  0.00    +0.013 A 
ATOM      3  C   UNL     1      18.815  18.606  19.553  0.00  0.00    +0.019 A 
ATOM     38  C   UNL     1      19.620  19.245  20.584  0.00  0.00    +0.120 A 
ATOM     39  N   UNL     1      20.815  18.661  20.991  0.00  0.00    -0.263 NA
ATOM     40  C   UNL     1      21.294  17.461  20.443  0.00  0.00    +0.111 A 
ENDBRANCH   4   3
ENDBRANCH  10   9
BRANCH  12  13
ATOM     13  N   UNL     1      10.901  19.011  15.041  0.00  0.00    -0.281 N 
ATOM     14  C   UNL     1      10.634  17.709  14.651  0.00  0.00    +0.248 C 
ATOM     30  O   UNL     1      11.381  17.026  13.966  0.00  0.00    -0.270 OA
ATOM     31  H   UNL     1      10.118  19.529  15.440  0.00  0.00    +0.155 HD
BRANCH  14  15
ATOM     15  C   UNL     1       9.346  17.079  15.072  0.00  0.00    +0.037 A 
ATOM     16  C   UNL     1       8.857  17.195  16.448  0.00  0.00    +0.013 A 
ATOM     17  C   UNL     1       7.620  16.563  16.832  0.00  0.00    +0.005 A 
ATOM     18  C   UNL     1       6.861  15.810  15.836  0.00  0.00    -0.033 A 
ATOM     28  C   UNL     1       7.367  15.716  14.476  0.00  0.00    +0.005 A 
ATOM     29  C   UNL     1       8.580  16.333  14.097  0.00  0.00    +0.013 A 
BRANCH  18  19
ATOM     19  C   UNL     1       5.541  15.086  16.162  0.00  0.00    +0.119 C 
BRANCH  19  20
ATOM     20  N   UNL     1       4.287  15.660  15.589  0.00  0.00    -0.302 NA
ATOM     21  C   UNL     1       3.783  16.859  16.396  0.00  0.00    +0.066 C 
ATOM     22  C   UNL     1       2.483  17.461  15.770  0.00  0.00    -0.064 C 
ATOM     23  N   UNL     1       1.410  16.374  15.687  0.00  0.00    +0.379 N 
ATOM     24  C   UNL     1       0.168  16.951  15.153  0.00  0.00    -0.096 C 
ATOM     25  H   UNL     1       1.202  16.025  16.725  0.00  0.00    -0.082 HD
ATOM     26  C   UNL     1       1.904  15.177  14.888  0.00  0.00    -0.064 C 
ATOM     27  C   UNL     1       3.212  14.604  15.502  0.00  0.00    +0.066 C 
ENDBRANCH  19  20
ENDBRANCH  18  19
ENDBRANCH  14  15
ENDBRANCH  12  13
TORSDOF 6
ENDMDL
