MODEL 1
REMARK VINA RESULT:      -8.1      0.000      0.000
REMARK  Name = C:\Users\Docking\Desktop\test protocol\1iep_ligandH.pdb
REMARK  8 active torsions:
REMARK  status: ('A' for Active; 'I' for Inactive)
REMARK    1  A    between atoms: _5  and  _11
REMARK    2  A    between atoms: _19  and  _21
REMARK    3  A    between atoms: _22  and  _66
REMARK    4  A    between atoms: _27  and  _30
REMARK    5  A    between atoms: _32  and  _33
REMARK    6  A    between atoms: _38  and  _43
REMARK    7  A    between atoms: _43  and  _46
REMARK    8  A    between atoms: _53  and  _55
REMARK                            x       y       z     vdW  Elec       q    Type
REMARK                         _______ _______ _______ _____ _____    ______ ____
ROOT
ATOM     10  C   UNL     1     -14.917  -8.941   5.974  0.00  0.00    +0.038 A 
ATOM     11  C   UNL     1     -15.219  -7.845   6.823  0.00  0.00    +0.047 A 
ATOM     12  C   UNL     1     -16.575  -7.609   7.293  0.00  0.00    +0.035 A 
ATOM     32  C   UNL     1     -17.600  -8.510   6.881  0.00  0.00    +0.024 A 
ATOM     33  C   UNL     1     -17.311  -9.629   6.019  0.00  0.00    +0.007 A 
ATOM     34  C   UNL     1     -15.976  -9.866   5.550  0.00  0.00    -0.029 A 
ATOM     35  C   UNL     1     -15.725 -11.077   4.621  0.00  0.00    +0.045 C 
ENDROOT
BRANCH  10   9
ATOM      4  C   UNL     1     -11.288  -8.096   2.950  0.00  0.00    +0.077 A 
ATOM      5  C   UNL     1     -12.096  -7.246   2.124  0.00  0.00    +0.048 A 
ATOM      6  C   UNL     1     -13.443  -7.057   2.509  0.00  0.00    +0.116 A 
ATOM      7  N   UNL     1     -13.933  -7.678   3.637  0.00  0.00    -0.223 NA
ATOM      8  C   UNL     1     -13.128  -8.493   4.410  0.00  0.00    +0.220 A 
ATOM      9  N   UNL     1     -13.598  -9.121   5.553  0.00  0.00    -0.283 N 
ATOM     36  H   UNL     1     -12.974  -9.721   6.092  0.00  0.00    +0.155 HD
ATOM     37  N   UNL     1     -11.839  -8.690   4.063  0.00  0.00    -0.214 NA
BRANCH   4   3
ATOM      1  C   UNL     1      -7.977  -9.254   1.218  0.00  0.00    +0.020 A 
ATOM      2  C   UNL     1      -9.382  -8.991   1.432  0.00  0.00    +0.013 A 
ATOM      3  C   UNL     1      -9.846  -8.390   2.676  0.00  0.00    +0.019 A 
ATOM     38  C   UNL     1      -8.855  -8.065   3.691  0.00  0.00    +0.120 A 
ATOM     39  N   UNL     1      -7.510  -8.331   3.458  0.00  0.00    -0.263 NA
ATOM     40  C   UNL     1      -7.051  -8.910   2.265  0.00  0.00    +0.111 A 
ENDBRANCH   4   3
ENDBRANCH  10   9
BRANCH  12  13
ATOM     13  N   UNL     1     -16.943  -6.508   8.149  0.00  0.00    -0.281 N 
ATOM     14  C   UNL     1     -16.834  -6.428   9.527  0.00  0.00    +0.248 C 
ATOM     30  O   UNL     1     -16.600  -7.379  10.258  0.00  0.00    -0.270 OA
ATOM     31  H   UNL     1     -17.331  -5.688   7.682  0.00  0.00    +0.155 HD
BRANCH  14  15
ATOM     15  C   UNL     1     -17.027  -5.103  10.191  0.00  0.00    +0.037 A 
ATOM     16  C   UNL     1     -18.214  -4.826  11.004  0.00  0.00    +0.013 A 
ATOM     17  C   UNL     1     -18.383  -3.533  11.619  0.00  0.00    +0.005 A 
ATOM     18  C   UNL     1     -17.361  -2.508  11.425  0.00  0.00    -0.033 A 
ATOM     28  C   UNL     1     -16.190  -2.812  10.619  0.00  0.00    +0.005 A 
ATOM     29  C   UNL     1     -16.021  -4.077  10.013  0.00  0.00    +0.013 A 
BRANCH  18  19
ATOM     19  C   UNL     1     -17.469  -1.094  12.027  0.00  0.00    +0.119 C 
BRANCH  19  20
ATOM     20  N   UNL     1     -17.212  -0.953  13.491  0.00  0.00    -0.302 NA
ATOM     21  C   UNL     1     -18.502  -1.038  14.311  0.00  0.00    +0.066 C 
ATOM     22  C   UNL     1     -18.213  -0.911  15.842  0.00  0.00    -0.064 C 
ATOM     23  N   UNL     1     -17.485   0.407  16.113  0.00  0.00    +0.379 N 
ATOM     24  C   UNL     1     -17.263   0.557  17.559  0.00  0.00    -0.096 C 
ATOM     25  H   UNL     1     -18.155   1.236  15.786  0.00  0.00    -0.082 HD
ATOM     26  C   UNL     1     -16.202   0.501  15.299  0.00  0.00    -0.064 C 
ATOM     27  C   UNL     1     -16.498   0.344  13.781  0.00  0.00    +0.066 C 
ENDBRANCH  19  20
ENDBRANCH  18  19
ENDBRANCH  14  15
ENDBRANCH  12  13
TORSDOF 6
ENDMDL
MODEL 2
REMARK VINA RESULT:      -8.0      2.160     12.745
REMARK  Name = C:\Users\Docking\Desktop\test protocol\1iep_ligandH.pdb
REMARK  8 active torsions:
REMARK  status: ('A' for Active; 'I' for Inactive)
REMARK    1  A    between atoms: _5  and  _11
REMARK    2  A    between atoms: _19  and  _21
REMARK    3  A    between atoms: _22  and  _66
REMARK    4  A    between atoms: _27  and  _30
REMARK    5  A    between atoms: _32  and  _33
REMARK    6  A    between atoms: _38  and  _43
REMARK    7  A    between atoms: _43  and  _46
REMARK    8  A    between atoms: _53  and  _55
REMARK                            x       y       z     vdW  Elec       q    Type
REMARK                         _______ _______ _______ _____ _____    ______ ____
ROOT
ATOM     10  C   UNL     1     -16.548  -7.620   7.025  0.00  0.00    +0.038 A 
ATOM     11  C   UNL     1     -15.390  -7.602   6.206  0.00  0.00    +0.047 A 
ATOM     12  C   UNL     1     -15.021  -8.756   5.400  0.00  0.00    +0.035 A 
ATOM     32  C   UNL     1     -15.854  -9.911   5.452  0.00  0.00    +0.024 A 
ATOM     33  C   UNL     1     -17.034  -9.947   6.280  0.00  0.00    +0.007 A 
ATOM     34  C   UNL     1     -17.402  -8.813   7.079  0.00  0.00    -0.029 A 
ATOM     35  C   UNL     1     -18.674  -8.910   7.953  0.00  0.00    +0.045 C 
ENDROOT
BRANCH  10   9
ATOM      4  C   UNL     1     -16.000  -4.828  10.890  0.00  0.00    +0.077 A 
ATOM      5  C   UNL     1     -15.039  -5.720  11.472  0.00  0.00    +0.048 A 
ATOM      6  C   UNL     1     -14.719  -6.890  10.748  0.00  0.00    +0.116 A 
ATOM      7  N   UNL     1     -15.320  -7.139   9.533  0.00  0.00    -0.223 NA
ATOM      8  C   UNL     1     -16.244  -6.258   9.001  0.00  0.00    +0.220 A 
ATOM      9  N   UNL     1     -16.856  -6.485   7.778  0.00  0.00    -0.283 N 
ATOM     36  H   UNL     1     -17.537  -5.815   7.423  0.00  0.00    +0.155 HD
ATOM     37  N   UNL     1     -16.568  -5.135   9.674  0.00  0.00    -0.214 NA
BRANCH   4   3
ATOM      1  C   UNL     1     -17.166  -1.135  11.440  0.00  0.00    +0.020 A 
ATOM      2  C   UNL     1     -16.745  -2.344  10.771  0.00  0.00    +0.013 A 
ATOM      3  C   UNL     1     -16.440  -3.549  11.532  0.00  0.00    +0.019 A 
ATOM     38  C   UNL     1     -16.574  -3.497  12.981  0.00  0.00    +0.120 A 
ATOM     39  N   UNL     1     -16.981  -2.318  13.597  0.00  0.00    -0.263 NA
ATOM     40  C   UNL     1     -17.275  -1.151  12.875  0.00  0.00    +0.111 A 
ENDBRANCH   4   3
ENDBRANCH  10   9
BRANCH  12  13
ATOM     13  N   UNL     1     -13.853  -8.799   4.555  0.00  0.00    -0.281 N 
ATOM     14  C   UNL     1     -13.545  -7.974   3.485  0.00  0.00    +0.248 C 
ATOM     30  O   UNL     1     -14.334  -7.205   2.956  0.00  0.00    -0.270 OA
ATOM     31  H   UNL     1     -13.170  -9.525   4.772  0.00  0.00    +0.155 HD
BRANCH  14  15
ATOM     15  C   UNL     1     -12.166  -8.021   2.911  0.00  0.00    +0.037 A 
ATOM     16  C   UNL     1     -11.941  -7.924   1.467  0.00  0.00    +0.013 A 
ATOM     17  C   UNL     1     -10.602  -7.989   0.937  0.00  0.00    +0.005 A 
ATOM     18  C   UNL     1      -9.476  -8.150   1.855  0.00  0.00    -0.033 A 
ATOM     28  C   UNL     1      -9.728  -8.238   3.284  0.00  0.00    +0.005 A 
ATOM     29  C   UNL     1     -11.039  -8.176   3.806  0.00  0.00    +0.013 A 
BRANCH  18  19
ATOM     19  C   UNL     1      -8.015  -8.250   1.377  0.00  0.00    +0.119 C 
BRANCH  19  20
ATOM     20  N   UNL     1      -7.349  -9.582   1.490  0.00  0.00    -0.302 NA
ATOM     21  C   UNL     1      -6.315  -9.614   2.619  0.00  0.00    +0.066 C 
ATOM     22  C   UNL     1      -5.644 -11.021   2.737  0.00  0.00    -0.064 C 
ATOM     23  N   UNL     1      -4.997 -11.388   1.401  0.00  0.00    +0.379 N 
ATOM     24  C   UNL     1      -4.315 -12.684   1.525  0.00  0.00    -0.096 C 
ATOM     25  H   UNL     1      -4.222 -10.618   1.178  0.00  0.00    -0.082 HD
ATOM     26  C   UNL     1      -6.017 -11.356   0.271  0.00  0.00    -0.064 C 
ATOM     27  C   UNL     1      -6.700  -9.962   0.182  0.00  0.00    +0.066 C 
ENDBRANCH  19  20
ENDBRANCH  18  19
ENDBRANCH  14  15
ENDBRANCH  12  13
TORSDOF 6
ENDMDL
MODEL 3
REMARK VINA RESULT:      -7.7      1.756      2.637
REMARK  Name = C:\Users\Docking\Desktop\test protocol\1iep_ligandH.pdb
REMARK  8 active torsions:
REMARK  status: ('A' for Active; 'I' for Inactive)
REMARK    1  A    between atoms: _5  and  _11
REMARK    2  A    between atoms: _19  and  _21
REMARK    3  A    between atoms: _22  and  _66
REMARK    4  A    between atoms: _27  and  _30
REMARK    5  A    between atoms: _32  and  _33
REMARK    6  A    between atoms: _38  and  _43
REMARK    7  A    between atoms: _43  and  _46
REMARK    8  A    between atoms: _53  and  _55
REMARK                            x       y       z     vdW  Elec       q    Type
REMARK                         _______ _______ _______ _____ _____    ______ ____
ROOT
ATOM     10  C   UNL     1     -16.681  -8.579   6.530  0.00  0.00    +0.038 A 
ATOM     11  C   UNL     1     -17.010  -7.556   7.455  0.00  0.00    +0.047 A 
ATOM     12  C   UNL     1     -17.986  -7.780   8.509  0.00  0.00    +0.035 A 
ATOM     32  C   UNL     1     -18.607  -9.060   8.595  0.00  0.00    +0.024 A 
ATOM     33  C   UNL     1     -18.285 -10.112   7.662  0.00  0.00    +0.007 A 
ATOM     34  C   UNL     1     -17.324  -9.896   6.618  0.00  0.00    -0.029 A 
ATOM     35  C   UNL     1     -17.022 -11.057   5.643  0.00  0.00    +0.045 C 
ENDROOT
BRANCH  10   9
ATOM      4  C   UNL     1     -12.170  -8.486   4.893  0.00  0.00    +0.077 A 
ATOM      5  C   UNL     1     -11.648  -8.994   6.129  0.00  0.00    +0.048 A 
ATOM      6  C   UNL     1     -12.573  -9.259   7.164  0.00  0.00    +0.116 A 
ATOM      7  N   UNL     1     -13.917  -9.030   6.965  0.00  0.00    -0.223 NA
ATOM      8  C   UNL     1     -14.387  -8.539   5.761  0.00  0.00    +0.220 A 
ATOM      9  N   UNL     1     -15.736  -8.309   5.537  0.00  0.00    -0.283 N 
ATOM     36  H   UNL     1     -16.042  -7.939   4.638  0.00  0.00    +0.155 HD
ATOM     37  N   UNL     1     -13.524  -8.276   4.758  0.00  0.00    -0.214 NA
BRANCH   4   3
ATOM      1  C   UNL     1     -10.972  -7.821   1.229  0.00  0.00    +0.020 A 
ATOM      2  C   UNL     1     -11.835  -8.142   2.342  0.00  0.00    +0.013 A 
ATOM      3  C   UNL     1     -11.319  -8.161   3.705  0.00  0.00    +0.019 A 
ATOM     38  C   UNL     1      -9.913  -7.846   3.909  0.00  0.00    +0.120 A 
ATOM     39  N   UNL     1      -9.105  -7.541   2.818  0.00  0.00    -0.263 NA
ATOM     40  C   UNL     1      -9.590  -7.522   1.502  0.00  0.00    +0.111 A 
ENDBRANCH   4   3
ENDBRANCH  10   9
BRANCH  12  13
ATOM     13  N   UNL     1     -18.367  -6.776   9.472  0.00  0.00    -0.281 N 
ATOM     14  C   UNL     1     -17.633  -6.309  10.551  0.00  0.00    +0.248 C 
ATOM     30  O   UNL     1     -16.619  -6.840  10.978  0.00  0.00    -0.270 OA
ATOM     31  H   UNL     1     -19.289  -6.359   9.343  0.00  0.00    +0.155 HD
BRANCH  14  15
ATOM     15  C   UNL     1     -18.102  -5.083  11.266  0.00  0.00    +0.037 A 
ATOM     16  C   UNL     1     -17.722  -3.744  10.809  0.00  0.00    +0.013 A 
ATOM     17  C   UNL     1     -18.174  -2.579  11.528  0.00  0.00    +0.005 A 
ATOM     18  C   UNL     1     -19.014  -2.749  12.711  0.00  0.00    -0.033 A 
ATOM     28  C   UNL     1     -19.381  -4.089  13.139  0.00  0.00    +0.005 A 
ATOM     29  C   UNL     1     -18.938  -5.233  12.438  0.00  0.00    +0.013 A 
BRANCH  18  19
ATOM     19  C   UNL     1     -19.524  -1.564  13.552  0.00  0.00    +0.119 C 
BRANCH  19  20
ATOM     20  N   UNL     1     -19.514  -1.723  15.036  0.00  0.00    -0.302 NA
ATOM     21  C   UNL     1     -20.863  -1.360  15.663  0.00  0.00    +0.066 C 
ATOM     22  C   UNL     1     -20.840  -1.554  17.214  0.00  0.00    -0.064 C 
ATOM     23  N   UNL     1     -19.718  -0.706  17.815  0.00  0.00    +0.379 N 
ATOM     24  C   UNL     1     -19.731  -0.841  19.279  0.00  0.00    -0.096 C 
ATOM     25  H   UNL     1     -19.933   0.361  17.572  0.00  0.00    -0.082 HD
ATOM     26  C   UNL     1     -18.373  -1.059  17.196  0.00  0.00    -0.064 C 
ATOM     27  C   UNL     1     -18.415  -0.891  15.651  0.00  0.00    +0.066 C 
ENDBRANCH  19  20
ENDBRANCH  18  19
ENDBRANCH  14  15
ENDBRANCH  12  13
TORSDOF 6
ENDMDL
MODEL 4
REMARK VINA RESULT:      -7.7      1.358      2.020
REMARK  Name = C:\Users\Docking\Desktop\test protocol\1iep_ligandH.pdb
REMARK  8 active torsions:
REMARK  status: ('A' for Active; 'I' for Inactive)
REMARK    1  A    between atoms: _5  and  _11
REMARK    2  A    between atoms: _19  and  _21
REMARK    3  A    between atoms: _22  and  _66
REMARK    4  A    between atoms: _27  and  _30
REMARK    5  A    between atoms: _32  and  _33
REMARK    6  A    between atoms: _38  and  _43
REMARK    7  A    between atoms: _43  and  _46
REMARK    8  A    between atoms: _53  and  _55
REMARK                            x       y       z     vdW  Elec       q    Type
REMARK                         _______ _______ _______ _____ _____    ______ ____
ROOT
ATOM     10  C   UNL     1     -14.938  -8.836   6.047  0.00  0.00    +0.038 A 
ATOM     11  C   UNL     1     -15.247  -7.755   6.911  0.00  0.00    +0.047 A 
ATOM     12  C   UNL     1     -16.607  -7.529   7.376  0.00  0.00    +0.035 A 
ATOM     32  C   UNL     1     -17.627  -8.425   6.943  0.00  0.00    +0.024 A 
ATOM     33  C   UNL     1     -17.330  -9.528   6.063  0.00  0.00    +0.007 A 
ATOM     34  C   UNL     1     -15.991  -9.755   5.599  0.00  0.00    -0.029 A 
ATOM     35  C   UNL     1     -15.733 -10.950   4.652  0.00  0.00    +0.045 C 
ENDROOT
BRANCH  10   9
ATOM      4  C   UNL     1     -11.331  -8.053   2.978  0.00  0.00    +0.077 A 
ATOM      5  C   UNL     1     -12.159  -7.259   2.116  0.00  0.00    +0.048 A 
ATOM      6  C   UNL     1     -13.508  -7.083   2.494  0.00  0.00    +0.116 A 
ATOM      7  N   UNL     1     -13.984  -7.661   3.651  0.00  0.00    -0.223 NA
ATOM      8  C   UNL     1     -13.160  -8.422   4.459  0.00  0.00    +0.220 A 
ATOM      9  N   UNL     1     -13.615  -9.007   5.631  0.00  0.00    -0.283 N 
ATOM     36  H   UNL     1     -12.978  -9.567   6.196  0.00  0.00    +0.155 HD
ATOM     37  N   UNL     1     -11.867  -8.607   4.119  0.00  0.00    -0.214 NA
BRANCH   4   3
ATOM      1  C   UNL     1      -7.983  -9.084   1.238  0.00  0.00    +0.020 A 
ATOM      2  C   UNL     1      -9.392  -8.835   1.440  0.00  0.00    +0.013 A 
ATOM      3  C   UNL     1      -9.883  -8.328   2.715  0.00  0.00    +0.019 A 
ATOM     38  C   UNL     1      -8.915  -8.081   3.773  0.00  0.00    +0.120 A 
ATOM     39  N   UNL     1      -7.565  -8.331   3.550  0.00  0.00    -0.263 NA
ATOM     40  C   UNL     1      -7.080  -8.821   2.328  0.00  0.00    +0.111 A 
ENDBRANCH   4   3
ENDBRANCH  10   9
BRANCH  12  13
ATOM     13  N   UNL     1     -16.982  -6.443   8.248  0.00  0.00    -0.281 N 
ATOM     14  C   UNL     1     -16.755  -6.328   9.610  0.00  0.00    +0.248 C 
ATOM     30  O   UNL     1     -16.381  -7.243  10.328  0.00  0.00    -0.270 OA
ATOM     31  H   UNL     1     -17.475  -5.666   7.808  0.00  0.00    +0.155 HD
BRANCH  14  15
ATOM     15  C   UNL     1     -16.992  -5.009  10.272  0.00  0.00    +0.037 A 
ATOM     16  C   UNL     1     -16.444  -3.769   9.714  0.00  0.00    +0.013 A 
ATOM     17  C   UNL     1     -16.673  -2.513  10.382  0.00  0.00    +0.005 A 
ATOM     18  C   UNL     1     -17.457  -2.489  11.615  0.00  0.00    -0.033 A 
ATOM     28  C   UNL     1     -17.993  -3.733  12.143  0.00  0.00    +0.005 A 
ATOM     29  C   UNL     1     -17.770  -4.966  11.492  0.00  0.00    +0.013 A 
BRANCH  18  19
ATOM     19  C   UNL     1     -17.733  -1.197  12.405  0.00  0.00    +0.119 C 
BRANCH  19  20
ATOM     20  N   UNL     1     -16.551  -0.395  12.841  0.00  0.00    -0.302 NA
ATOM     21  C   UNL     1     -16.050   0.538  11.734  0.00  0.00    +0.066 C 
ATOM     22  C   UNL     1     -14.827   1.385  12.214  0.00  0.00    -0.064 C 
ATOM     23  N   UNL     1     -13.711   0.447  12.678  0.00  0.00    +0.379 N 
ATOM     24  C   UNL     1     -12.538   1.239  13.075  0.00  0.00    -0.096 C 
ATOM     25  H   UNL     1     -13.415  -0.183  11.807  0.00  0.00    -0.082 HD
ATOM     26  C   UNL     1     -14.201  -0.486  13.776  0.00  0.00    -0.064 C 
ATOM     27  C   UNL     1     -15.435  -1.301  13.299  0.00  0.00    +0.066 C 
ENDBRANCH  19  20
ENDBRANCH  18  19
ENDBRANCH  14  15
ENDBRANCH  12  13
TORSDOF 6
ENDMDL
MODEL 5
REMARK VINA RESULT:      -7.7      4.001      6.574
REMARK  Name = C:\Users\Docking\Desktop\test protocol\1iep_ligandH.pdb
REMARK  8 active torsions:
REMARK  status: ('A' for Active; 'I' for Inactive)
REMARK    1  A    between atoms: _5  and  _11
REMARK    2  A    between atoms: _19  and  _21
REMARK    3  A    between atoms: _22  and  _66
REMARK    4  A    between atoms: _27  and  _30
REMARK    5  A    between atoms: _32  and  _33
REMARK    6  A    between atoms: _38  and  _43
REMARK    7  A    between atoms: _43  and  _46
REMARK    8  A    between atoms: _53  and  _55
REMARK                            x       y       z     vdW  Elec       q    Type
REMARK                         _______ _______ _______ _____ _____    ______ ____
ROOT
ATOM     10  C   UNL     1     -15.819 -10.233   4.783  0.00  0.00    +0.038 A 
ATOM     11  C   UNL     1     -15.691  -9.520   6.003  0.00  0.00    +0.047 A 
ATOM     12  C   UNL     1     -15.179  -8.159   6.029  0.00  0.00    +0.035 A 
ATOM     32  C   UNL     1     -14.810  -7.552   4.793  0.00  0.00    +0.024 A 
ATOM     33  C   UNL     1     -14.932  -8.262   3.544  0.00  0.00    +0.007 A 
ATOM     34  C   UNL     1     -15.434  -9.606   3.513  0.00  0.00    -0.029 A 
ATOM     35  C   UNL     1     -15.538 -10.322   2.146  0.00  0.00    +0.045 C 
ENDROOT
BRANCH  10   9
ATOM      4  C   UNL     1     -15.227 -14.993   4.619  0.00  0.00    +0.077 A 
ATOM      5  C   UNL     1     -13.812 -14.870   4.424  0.00  0.00    +0.048 A 
ATOM      6  C   UNL     1     -13.276 -13.564   4.364  0.00  0.00    +0.116 A 
ATOM      7  N   UNL     1     -14.104 -12.470   4.492  0.00  0.00    -0.223 NA
ATOM      8  C   UNL     1     -15.466 -12.624   4.678  0.00  0.00    +0.220 A 
ATOM      9  N   UNL     1     -16.316 -11.538   4.816  0.00  0.00    -0.283 N 
ATOM     36  H   UNL     1     -17.316 -11.693   4.944  0.00  0.00    +0.155 HD
ATOM     37  N   UNL     1     -16.002 -13.860   4.737  0.00  0.00    -0.214 NA
BRANCH   4   3
ATOM      1  C   UNL     1     -17.755 -17.916   4.010  0.00  0.00    +0.020 A 
ATOM      2  C   UNL     1     -17.101 -16.633   3.887  0.00  0.00    +0.013 A 
ATOM      3  C   UNL     1     -15.942 -16.306   4.707  0.00  0.00    +0.019 A 
ATOM     38  C   UNL     1     -15.464 -17.307   5.649  0.00  0.00    +0.120 A 
ATOM     39  N   UNL     1     -16.114 -18.533   5.747  0.00  0.00    -0.263 NA
ATOM     40  C   UNL     1     -17.232 -18.859   4.964  0.00  0.00    +0.111 A 
ENDBRANCH   4   3
ENDBRANCH  10   9
BRANCH  12  13
ATOM     13  N   UNL     1     -15.019  -7.389   7.238  0.00  0.00    -0.281 N 
ATOM     14  C   UNL     1     -13.874  -7.232   8.002  0.00  0.00    +0.248 C 
ATOM     30  O   UNL     1     -12.862  -7.905   7.878  0.00  0.00    -0.270 OA
ATOM     31  H   UNL     1     -15.851  -6.901   7.570  0.00  0.00    +0.155 HD
BRANCH  14  15
ATOM     15  C   UNL     1     -13.856  -6.184   9.067  0.00  0.00    +0.037 A 
ATOM     16  C   UNL     1     -15.094  -5.720   9.698  0.00  0.00    +0.013 A 
ATOM     17  C   UNL     1     -15.050  -4.696  10.712  0.00  0.00    +0.005 A 
ATOM     18  C   UNL     1     -13.761  -4.129  11.101  0.00  0.00    -0.033 A 
ATOM     28  C   UNL     1     -12.548  -4.611  10.463  0.00  0.00    +0.005 A 
ATOM     29  C   UNL     1     -12.587  -5.614   9.469  0.00  0.00    +0.013 A 
BRANCH  18  19
ATOM     19  C   UNL     1     -13.621  -3.017  12.158  0.00  0.00    +0.119 C 
BRANCH  19  20
ATOM     20  N   UNL     1     -14.338  -1.733  11.899  0.00  0.00    -0.302 NA
ATOM     21  C   UNL     1     -14.179  -1.269  10.449  0.00  0.00    +0.066 C 
ATOM     22  C   UNL     1     -14.953   0.064  10.189  0.00  0.00    -0.064 C 
ATOM     23  N   UNL     1     -14.456   1.137  11.159  0.00  0.00    +0.379 N 
ATOM     24  C   UNL     1     -15.141   2.407  10.879  0.00  0.00    -0.096 C 
ATOM     25  H   UNL     1     -13.368   1.289  10.966  0.00  0.00    -0.082 HD
ATOM     26  C   UNL     1     -14.608   0.682  12.604  0.00  0.00    -0.064 C 
ATOM     27  C   UNL     1     -13.859  -0.658  12.843  0.00  0.00    +0.066 C 
ENDBRANCH  19  20
ENDBRANCH  18  19
ENDBRANCH  14  15
ENDBRANCH  12  13
TORSDOF 6
ENDMDL
