MODEL 1
REMARK VINA RESULT:     -10.1      0.000      0.000
REMARK  Name = C:\Users\Docking\Desktop\test protocol\1iep_ligandH.pdb
REMARK  8 active torsions:
REMARK  status: ('A' for Active; 'I' for Inactive)
REMARK    1  A    between atoms: _5  and  _11
REMARK    2  A    between atoms: _19  and  _21
REMARK    3  A    between atoms: _22  and  _66
REMARK    4  A    between atoms: _27  and  _30
REMARK    5  A    between atoms: _32  and  _33
REMARK    6  A    between atoms: _38  and  _43
REMARK    7  A    between atoms: _43  and  _46
REMARK    8  A    between atoms: _53  and  _55
REMARK                            x       y       z     vdW  Elec       q    Type
REMARK                         _______ _______ _______ _____ _____    ______ ____
ROOT
ATOM     10  C   UNL     1      -9.086  14.853  27.735  0.00  0.00    +0.038 A 
ATOM     11  C   UNL     1      -8.979  14.727  29.144  0.00  0.00    +0.047 A 
ATOM     12  C   UNL     1     -10.152  14.483  29.968  0.00  0.00    +0.035 A 
ATOM     32  C   UNL     1     -11.419  14.370  29.325  0.00  0.00    +0.024 A 
ATOM     33  C   UNL     1     -11.546  14.496  27.894  0.00  0.00    +0.007 A 
ATOM     34  C   UNL     1     -10.393  14.740  27.076  0.00  0.00    -0.029 A 
ATOM     35  C   UNL     1     -10.589  14.873  25.548  0.00  0.00    +0.045 C 
ENDROOT
BRANCH  10   9
ATOM      4  C   UNL     1      -5.634  17.745  26.075  0.00  0.00    +0.077 A 
ATOM      5  C   UNL     1      -6.202  18.893  26.722  0.00  0.00    +0.048 A 
ATOM      6  C   UNL     1      -7.388  18.697  27.466  0.00  0.00    +0.116 A 
ATOM      7  N   UNL     1      -7.953  17.443  27.551  0.00  0.00    -0.223 NA
ATOM      8  C   UNL     1      -7.380  16.358  26.913  0.00  0.00    +0.220 A 
ATOM      9  N   UNL     1      -7.927  15.087  26.992  0.00  0.00    -0.283 N 
ATOM     36  H   UNL     1      -7.478  14.314  26.501  0.00  0.00    +0.155 HD
ATOM     37  N   UNL     1      -6.249  16.519  26.195  0.00  0.00    -0.214 NA
BRANCH   4   3
ATOM      1  C   UNL     1      -2.360  16.711  24.200  0.00  0.00    +0.020 A 
ATOM      2  C   UNL     1      -3.560  16.614  24.999  0.00  0.00    +0.013 A 
ATOM      3  C   UNL     1      -4.382  17.790  25.255  0.00  0.00    +0.019 A 
ATOM     38  C   UNL     1      -3.959  19.060  24.684  0.00  0.00    +0.120 A 
ATOM     39  N   UNL     1      -2.798  19.123  23.920  0.00  0.00    -0.263 NA
ATOM     40  C   UNL     1      -1.998  17.998  23.668  0.00  0.00    +0.111 A 
ENDBRANCH   4   3
ENDBRANCH  10   9
BRANCH  12  13
ATOM     13  N   UNL     1     -10.106  14.354  31.404  0.00  0.00    -0.281 N 
ATOM     14  C   UNL     1      -9.778  15.325  32.336  0.00  0.00    +0.248 C 
ATOM     30  O   UNL     1      -9.264  16.400  32.063  0.00  0.00    -0.270 OA
ATOM     31  H   UNL     1     -10.345  13.436  31.778  0.00  0.00    +0.155 HD
BRANCH  14  15
ATOM     15  C   UNL     1     -10.046  15.058  33.782  0.00  0.00    +0.037 A 
ATOM     16  C   UNL     1      -9.128  15.524  34.824  0.00  0.00    +0.013 A 
ATOM     17  C   UNL     1      -9.401  15.238  36.210  0.00  0.00    +0.005 A 
ATOM     18  C   UNL     1     -10.601  14.482  36.562  0.00  0.00    -0.033 A 
ATOM     28  C   UNL     1     -11.498  14.037  35.508  0.00  0.00    +0.005 A 
ATOM     29  C   UNL     1     -11.233  14.314  34.149  0.00  0.00    +0.013 A 
BRANCH  18  19
ATOM     19  C   UNL     1     -10.961  14.113  38.013  0.00  0.00    +0.119 C 
BRANCH  19  20
ATOM     20  N   UNL     1     -12.096  13.164  38.216  0.00  0.00    -0.302 NA
ATOM     21  C   UNL     1     -13.238  13.797  39.016  0.00  0.00    +0.066 C 
ATOM     22  C   UNL     1     -14.427  12.798  39.199  0.00  0.00    -0.064 C 
ATOM     23  N   UNL     1     -13.921  11.529  39.888  0.00  0.00    +0.379 N 
ATOM     24  C   UNL     1     -15.047  10.611  40.114  0.00  0.00    -0.096 C 
ATOM     25  H   UNL     1     -13.518  11.823  40.885  0.00  0.00    -0.082 HD
ATOM     26  C   UNL     1     -12.783  10.895  39.100  0.00  0.00    -0.064 C 
ATOM     27  C   UNL     1     -11.620  11.905  38.898  0.00  0.00    +0.066 C 
ENDBRANCH  19  20
ENDBRANCH  18  19
ENDBRANCH  14  15
ENDBRANCH  12  13
TORSDOF 6
ENDMDL
MODEL 2
REMARK VINA RESULT:      -9.9      5.056     14.970
REMARK  Name = C:\Users\Docking\Desktop\test protocol\1iep_ligandH.pdb
REMARK  8 active torsions:
REMARK  status: ('A' for Active; 'I' for Inactive)
REMARK    1  A    between atoms: _5  and  _11
REMARK    2  A    between atoms: _19  and  _21
REMARK    3  A    between atoms: _22  and  _66
REMARK    4  A    between atoms: _27  and  _30
REMARK    5  A    between atoms: _32  and  _33
REMARK    6  A    between atoms: _38  and  _43
REMARK    7  A    between atoms: _43  and  _46
REMARK    8  A    between atoms: _53  and  _55
REMARK                            x       y       z     vdW  Elec       q    Type
REMARK                         _______ _______ _______ _____ _____    ______ ____
ROOT
ATOM     10  C   UNL     1      -8.387  15.276  27.759  0.00  0.00    +0.038 A 
ATOM     11  C   UNL     1      -8.293  15.099  26.355  0.00  0.00    +0.047 A 
ATOM     12  C   UNL     1      -7.553  16.038  25.526  0.00  0.00    +0.035 A 
ATOM     32  C   UNL     1      -6.919  17.145  26.160  0.00  0.00    +0.024 A 
ATOM     33  C   UNL     1      -7.006  17.342  27.586  0.00  0.00    +0.007 A 
ATOM     34  C   UNL     1      -7.736  16.420  28.409  0.00  0.00    -0.029 A 
ATOM     35  C   UNL     1      -7.800  16.684  29.931  0.00  0.00    +0.045 C 
ENDROOT
BRANCH  10   9
ATOM      4  C   UNL     1     -12.487  13.588  29.597  0.00  0.00    +0.077 A 
ATOM      5  C   UNL     1     -13.250  14.669  29.042  0.00  0.00    +0.048 A 
ATOM      6  C   UNL     1     -12.548  15.643  28.297  0.00  0.00    +0.116 A 
ATOM      7  N   UNL     1     -11.185  15.533  28.124  0.00  0.00    -0.223 NA
ATOM      8  C   UNL     1     -10.479  14.479  28.674  0.00  0.00    +0.220 A 
ATOM      9  N   UNL     1      -9.110  14.344  28.507  0.00  0.00    -0.283 N 
ATOM     36  H   UNL     1      -8.625  13.556  28.935  0.00  0.00    +0.155 HD
ATOM     37  N   UNL     1     -11.126  13.537  29.392  0.00  0.00    -0.214 NA
BRANCH   4   3
ATOM      1  C   UNL     1     -14.851  11.533  31.940  0.00  0.00    +0.020 A 
ATOM      2  C   UNL     1     -14.314  12.635  31.175  0.00  0.00    +0.013 A 
ATOM      3  C   UNL     1     -13.086  12.480  30.406  0.00  0.00    +0.019 A 
ATOM     38  C   UNL     1     -12.420  11.187  30.432  0.00  0.00    +0.120 A 
ATOM     39  N   UNL     1     -12.959  10.144  31.178  0.00  0.00    -0.263 NA
ATOM     40  C   UNL     1     -14.140  10.282  31.924  0.00  0.00    +0.111 A 
ENDBRANCH   4   3
ENDBRANCH  10   9
BRANCH  12  13
ATOM     13  N   UNL     1      -7.430  15.913  24.095  0.00  0.00    -0.281 N 
ATOM     14  C   UNL     1      -8.421  16.065  23.138  0.00  0.00    +0.248 C 
ATOM     30  O   UNL     1      -9.616  16.121  23.384  0.00  0.00    -0.270 OA
ATOM     31  H   UNL     1      -6.499  15.686  23.744  0.00  0.00    +0.155 HD
BRANCH  14  15
ATOM     15  C   UNL     1      -8.027  16.152  21.699  0.00  0.00    +0.037 A 
ATOM     16  C   UNL     1      -8.946  15.743  20.634  0.00  0.00    +0.013 A 
ATOM     17  C   UNL     1      -8.535  15.822  19.254  0.00  0.00    +0.005 A 
ATOM     18  C   UNL     1      -7.198  16.314  18.932  0.00  0.00    -0.033 A 
ATOM     28  C   UNL     1      -6.308  16.718  20.009  0.00  0.00    +0.005 A 
ATOM     29  C   UNL     1      -6.707  16.642  21.362  0.00  0.00    +0.013 A 
BRANCH  18  19
ATOM     19  C   UNL     1      -6.667  16.412  17.490  0.00  0.00    +0.119 C 
BRANCH  19  20
ATOM     20  N   UNL     1      -5.278  16.927  17.306  0.00  0.00    -0.302 NA
ATOM     21  C   UNL     1      -5.263  18.360  16.765  0.00  0.00    +0.066 C 
ATOM     22  C   UNL     1      -3.802  18.891  16.600  0.00  0.00    -0.064 C 
ATOM     23  N   UNL     1      -3.024  17.954  15.674  0.00  0.00    +0.379 N 
ATOM     24  C   UNL     1      -1.667  18.482  15.470  0.00  0.00    -0.096 C 
ATOM     25  H   UNL     1      -3.538  17.953  14.685  0.00  0.00    -0.082 HD
ATOM     26  C   UNL     1      -3.036  16.527  16.202  0.00  0.00    -0.064 C 
ATOM     27  C   UNL     1      -4.493  16.019  16.391  0.00  0.00    +0.066 C 
ENDBRANCH  19  20
ENDBRANCH  18  19
ENDBRANCH  14  15
ENDBRANCH  12  13
TORSDOF 6
ENDMDL
MODEL 3
REMARK VINA RESULT:      -9.8      4.192      6.725
REMARK  Name = C:\Users\Docking\Desktop\test protocol\1iep_ligandH.pdb
REMARK  8 active torsions:
REMARK  status: ('A' for Active; 'I' for Inactive)
REMARK    1  A    between atoms: _5  and  _11
REMARK    2  A    between atoms: _19  and  _21
REMARK    3  A    between atoms: _22  and  _66
REMARK    4  A    between atoms: _27  and  _30
REMARK    5  A    between atoms: _32  and  _33
REMARK    6  A    between atoms: _38  and  _43
REMARK    7  A    between atoms: _43  and  _46
REMARK    8  A    between atoms: _53  and  _55
REMARK                            x       y       z     vdW  Elec       q    Type
REMARK                         _______ _______ _______ _____ _____    ______ ____
ROOT
ATOM     10  C   UNL     1      -5.489  17.681  24.571  0.00  0.00    +0.038 A 
ATOM     11  C   UNL     1      -6.409  16.832  25.236  0.00  0.00    +0.047 A 
ATOM     12  C   UNL     1      -6.987  17.205  26.518  0.00  0.00    +0.035 A 
ATOM     32  C   UNL     1      -6.607  18.453  27.092  0.00  0.00    +0.024 A 
ATOM     33  C   UNL     1      -5.672  19.329  26.430  0.00  0.00    +0.007 A 
ATOM     34  C   UNL     1      -5.097  18.964  25.167  0.00  0.00    -0.029 A 
ATOM     35  C   UNL     1      -4.095  19.939  24.505  0.00  0.00    +0.045 C 
ENDROOT
BRANCH  10   9
ATOM      4  C   UNL     1      -5.915  16.791  19.874  0.00  0.00    +0.077 A 
ATOM      5  C   UNL     1      -7.306  17.144  19.873  0.00  0.00    +0.048 A 
ATOM      6  C   UNL     1      -7.875  17.543  21.103  0.00  0.00    +0.116 A 
ATOM      7  N   UNL     1      -7.102  17.582  22.243  0.00  0.00    -0.223 NA
ATOM      8  C   UNL     1      -5.764  17.233  22.210  0.00  0.00    +0.220 A 
ATOM      9  N   UNL     1      -4.965  17.273  23.342  0.00  0.00    -0.283 N 
ATOM     36  H   UNL     1      -3.985  17.001  23.278  0.00  0.00    +0.155 HD
ATOM     37  N   UNL     1      -5.197  16.848  21.047  0.00  0.00    -0.214 NA
BRANCH   4   3
ATOM      1  C   UNL     1      -3.248  15.193  17.501  0.00  0.00    +0.020 A 
ATOM      2  C   UNL     1      -3.929  15.592  18.711  0.00  0.00    +0.013 A 
ATOM      3  C   UNL     1      -5.170  16.353  18.652  0.00  0.00    +0.019 A 
ATOM     38  C   UNL     1      -5.700  16.697  17.341  0.00  0.00    +0.120 A 
ATOM     39  N   UNL     1      -5.022  16.301  16.193  0.00  0.00    -0.263 NA
ATOM     40  C   UNL     1      -3.826  15.569  16.238  0.00  0.00    +0.111 A 
ENDBRANCH   4   3
ENDBRANCH  10   9
BRANCH  12  13
ATOM     13  N   UNL     1      -7.920  16.380  27.244  0.00  0.00    -0.281 N 
ATOM     14  C   UNL     1      -9.285  16.564  27.390  0.00  0.00    +0.248 C 
ATOM     30  O   UNL     1      -9.880  17.589  27.093  0.00  0.00    -0.270 OA
ATOM     31  H   UNL     1      -7.526  15.561  27.708  0.00  0.00    +0.155 HD
BRANCH  14  15
ATOM     15  C   UNL     1     -10.107  15.453  27.961  0.00  0.00    +0.037 A 
ATOM     16  C   UNL     1     -10.218  15.257  29.409  0.00  0.00    +0.013 A 
ATOM     17  C   UNL     1     -11.003  14.168  29.933  0.00  0.00    +0.005 A 
ATOM     18  C   UNL     1     -11.685  13.266  29.007  0.00  0.00    -0.033 A 
ATOM     28  C   UNL     1     -11.562  13.487  27.576  0.00  0.00    +0.005 A 
ATOM     29  C   UNL     1     -10.792  14.553  27.058  0.00  0.00    +0.013 A 
BRANCH  18  19
ATOM     19  C   UNL     1     -12.526  12.065  29.477  0.00  0.00    +0.119 C 
BRANCH  19  20
ATOM     20  N   UNL     1     -12.690  11.879  30.950  0.00  0.00    -0.302 NA
ATOM     21  C   UNL     1     -12.892  10.408  31.324  0.00  0.00    +0.066 C 
ATOM     22  C   UNL     1     -13.039  10.230  32.871  0.00  0.00    -0.064 C 
ATOM     23  N   UNL     1     -14.207  11.081  33.371  0.00  0.00    +0.379 N 
ATOM     24  C   UNL     1     -14.384  10.871  34.815  0.00  0.00    -0.096 C 
ATOM     25  H   UNL     1     -15.130  10.722  32.861  0.00  0.00    -0.082 HD
ATOM     26  C   UNL     1     -14.015  12.545  33.001  0.00  0.00    -0.064 C 
ATOM     27  C   UNL     1     -13.841  12.709  31.465  0.00  0.00    +0.066 C 
ENDBRANCH  19  20
ENDBRANCH  18  19
ENDBRANCH  14  15
ENDBRANCH  12  13
TORSDOF 6
ENDMDL
MODEL 4
REMARK VINA RESULT:      -9.6      2.940     13.262
REMARK  Name = C:\Users\Docking\Desktop\test protocol\1iep_ligandH.pdb
REMARK  8 active torsions:
REMARK  status: ('A' for Active; 'I' for Inactive)
REMARK    1  A    between atoms: _5  and  _11
REMARK    2  A    between atoms: _19  and  _21
REMARK    3  A    between atoms: _22  and  _66
REMARK    4  A    between atoms: _27  and  _30
REMARK    5  A    between atoms: _32  and  _33
REMARK    6  A    between atoms: _38  and  _43
REMARK    7  A    between atoms: _43  and  _46
REMARK    8  A    between atoms: _53  and  _55
REMARK                            x       y       z     vdW  Elec       q    Type
REMARK                         _______ _______ _______ _____ _____    ______ ____
ROOT
ATOM     10  C   UNL     1     -13.104  13.750  31.094  0.00  0.00    +0.038 A 
ATOM     11  C   UNL     1     -11.927  14.086  30.377  0.00  0.00    +0.047 A 
ATOM     12  C   UNL     1     -11.997  14.754  29.087  0.00  0.00    +0.035 A 
ATOM     32  C   UNL     1     -13.283  15.067  28.557  0.00  0.00    +0.024 A 
ATOM     33  C   UNL     1     -14.489  14.732  29.272  0.00  0.00    +0.007 A 
ATOM     34  C   UNL     1     -14.426  14.072  30.544  0.00  0.00    -0.029 A 
ATOM     35  C   UNL     1     -15.752  13.731  31.263  0.00  0.00    +0.045 C 
ENDROOT
BRANCH  10   9
ATOM      4  C   UNL     1     -11.609  13.602  35.653  0.00  0.00    +0.077 A 
ATOM      5  C   UNL     1     -11.004  14.899  35.559  0.00  0.00    +0.048 A 
ATOM      6  C   UNL     1     -11.093  15.568  34.317  0.00  0.00    +0.116 A 
ATOM      7  N   UNL     1     -11.742  14.975  33.257  0.00  0.00    -0.223 NA
ATOM      8  C   UNL     1     -12.314  13.722  33.381  0.00  0.00    +0.220 A 
ATOM      9  N   UNL     1     -12.978  13.110  32.329  0.00  0.00    -0.283 N 
ATOM     36  H   UNL     1     -13.380  12.182  32.459  0.00  0.00    +0.155 HD
ATOM     37  N   UNL     1     -12.241  13.062  34.555  0.00  0.00    -0.214 NA
BRANCH   4   3
ATOM      1  C   UNL     1     -11.407  10.572  38.118  0.00  0.00    +0.020 A 
ATOM      2  C   UNL     1     -11.406  11.327  36.887  0.00  0.00    +0.013 A 
ATOM      3  C   UNL     1     -11.601  12.771  36.899  0.00  0.00    +0.019 A 
ATOM     38  C   UNL     1     -11.795  13.426  38.184  0.00  0.00    +0.120 A 
ATOM     39  N   UNL     1     -11.793  12.672  39.353  0.00  0.00    -0.263 NA
ATOM     40  C   UNL     1     -11.607  11.282  39.354  0.00  0.00    +0.111 A 
ENDBRANCH   4   3
ENDBRANCH  10   9
BRANCH  12  13
ATOM     13  N   UNL     1     -10.837  15.112  28.309  0.00  0.00    -0.281 N 
ATOM     14  C   UNL     1     -10.555  14.776  26.995  0.00  0.00    +0.248 C 
ATOM     30  O   UNL     1     -11.163  13.933  26.352  0.00  0.00    -0.270 OA
ATOM     31  H   UNL     1     -10.138  15.682  28.786  0.00  0.00    +0.155 HD
BRANCH  14  15
ATOM     15  C   UNL     1      -9.427  15.466  26.299  0.00  0.00    +0.037 A 
ATOM     16  C   UNL     1      -8.051  15.359  26.792  0.00  0.00    +0.013 A 
ATOM     17  C   UNL     1      -6.984  16.049  26.111  0.00  0.00    +0.005 A 
ATOM     18  C   UNL     1      -7.289  16.851  24.929  0.00  0.00    -0.033 A 
ATOM     28  C   UNL     1      -8.662  16.936  24.459  0.00  0.00    +0.005 A 
ATOM     29  C   UNL     1      -9.711  16.262  25.124  0.00  0.00    +0.013 A 
BRANCH  18  19
ATOM     19  C   UNL     1      -6.216  17.638  24.153  0.00  0.00    +0.119 C 
BRANCH  19  20
ATOM     20  N   UNL     1      -5.935  17.210  22.750  0.00  0.00    -0.302 NA
ATOM     21  C   UNL     1      -4.479  17.468  22.352  0.00  0.00    +0.066 C 
ATOM     22  C   UNL     1      -4.197  16.993  20.889  0.00  0.00    -0.064 C 
ATOM     23  N   UNL     1      -5.155  17.703  19.931  0.00  0.00    +0.379 N 
ATOM     24  C   UNL     1      -4.853  17.302  18.549  0.00  0.00    -0.096 C 
ATOM     25  H   UNL     1      -4.966  18.799  20.015  0.00  0.00    -0.082 HD
ATOM     26  C   UNL     1      -6.605  17.453  20.322  0.00  0.00    -0.064 C 
ATOM     27  C   UNL     1      -6.867  17.902  21.787  0.00  0.00    +0.066 C 
ENDBRANCH  19  20
ENDBRANCH  18  19
ENDBRANCH  14  15
ENDBRANCH  12  13
TORSDOF 6
ENDMDL
MODEL 5
REMARK VINA RESULT:      -9.6      2.222     13.152
REMARK  Name = C:\Users\Docking\Desktop\test protocol\1iep_ligandH.pdb
REMARK  8 active torsions:
REMARK  status: ('A' for Active; 'I' for Inactive)
REMARK    1  A    between atoms: _5  and  _11
REMARK    2  A    between atoms: _19  and  _21
REMARK    3  A    between atoms: _22  and  _66
REMARK    4  A    between atoms: _27  and  _30
REMARK    5  A    between atoms: _32  and  _33
REMARK    6  A    between atoms: _38  and  _43
REMARK    7  A    between atoms: _43  and  _46
REMARK    8  A    between atoms: _53  and  _55
REMARK                            x       y       z     vdW  Elec       q    Type
REMARK                         _______ _______ _______ _____ _____    ______ ____
ROOT
ATOM     10  C   UNL     1     -12.540  13.679  31.163  0.00  0.00    +0.038 A 
ATOM     11  C   UNL     1     -11.302  14.003  30.553  0.00  0.00    +0.047 A 
ATOM     12  C   UNL     1     -11.250  14.656  29.254  0.00  0.00    +0.035 A 
ATOM     32  C   UNL     1     -12.481  14.967  28.606  0.00  0.00    +0.024 A 
ATOM     33  C   UNL     1     -13.749  14.645  29.211  0.00  0.00    +0.007 A 
ATOM     34  C   UNL     1     -13.806  13.998  30.491  0.00  0.00    -0.029 A 
ATOM     35  C   UNL     1     -15.193  13.670  31.090  0.00  0.00    +0.045 C 
ENDROOT
BRANCH  10   9
ATOM      4  C   UNL     1     -11.555  13.615  35.860  0.00  0.00    +0.077 A 
ATOM      5  C   UNL     1     -10.986  14.932  35.819  0.00  0.00    +0.048 A 
ATOM      6  C   UNL     1     -10.960  15.588  34.568  0.00  0.00    +0.116 A 
ATOM      7  N   UNL     1     -11.467  14.965  33.448  0.00  0.00    -0.223 NA
ATOM      8  C   UNL     1     -12.007  13.695  33.523  0.00  0.00    +0.220 A 
ATOM      9  N   UNL     1     -12.531  13.052  32.411  0.00  0.00    -0.283 N 
ATOM     36  H   UNL     1     -12.913  12.112  32.506  0.00  0.00    +0.155 HD
ATOM     37  N   UNL     1     -12.043  13.046  34.705  0.00  0.00    -0.214 NA
BRANCH   4   3
ATOM      1  C   UNL     1     -11.557  10.607  38.360  0.00  0.00    +0.020 A 
ATOM      2  C   UNL     1     -11.446  11.353  37.127  0.00  0.00    +0.013 A 
ATOM      3  C   UNL     1     -11.657  12.795  37.108  0.00  0.00    +0.019 A 
ATOM     38  C   UNL     1     -11.980  13.457  38.363  0.00  0.00    +0.120 A 
ATOM     39  N   UNL     1     -12.081  12.713  39.534  0.00  0.00    -0.263 NA
ATOM     40  C   UNL     1     -11.882  11.324  39.565  0.00  0.00    +0.111 A 
ENDBRANCH   4   3
ENDBRANCH  10   9
BRANCH  12  13
ATOM     13  N   UNL     1     -10.022  15.001  28.582  0.00  0.00    -0.281 N 
ATOM     14  C   UNL     1      -9.733  14.899  27.231  0.00  0.00    +0.248 C 
ATOM     30  O   UNL     1     -10.418  14.291  26.422  0.00  0.00    -0.270 OA
ATOM     31  H   UNL     1      -9.276  15.365  29.174  0.00  0.00    +0.155 HD
BRANCH  14  15
ATOM     15  C   UNL     1      -8.497  15.555  26.705  0.00  0.00    +0.037 A 
ATOM     16  C   UNL     1      -8.304  15.771  25.269  0.00  0.00    +0.013 A 
ATOM     17  C   UNL     1      -7.094  16.391  24.788  0.00  0.00    +0.005 A 
ATOM     18  C   UNL     1      -6.069  16.799  25.745  0.00  0.00    -0.033 A 
ATOM     28  C   UNL     1      -6.289  16.577  27.165  0.00  0.00    +0.005 A 
ATOM     29  C   UNL     1      -7.473  15.970  27.640  0.00  0.00    +0.013 A 
BRANCH  18  19
ATOM     19  C   UNL     1      -4.739  17.448  25.319  0.00  0.00    +0.119 C 
BRANCH  19  20
ATOM     20  N   UNL     1      -4.178  17.052  23.993  0.00  0.00    -0.302 NA
ATOM     21  C   UNL     1      -2.702  16.656  24.088  0.00  0.00    +0.066 C 
ATOM     22  C   UNL     1      -2.138  16.223  22.696  0.00  0.00    -0.064 C 
ATOM     23  N   UNL     1      -2.330  17.363  21.694  0.00  0.00    +0.379 N 
ATOM     24  C   UNL     1      -1.748  16.981  20.399  0.00  0.00    -0.096 C 
ATOM     25  H   UNL     1      -1.762  18.245  22.073  0.00  0.00    -0.082 HD
ATOM     26  C   UNL     1      -3.794  17.765  21.595  0.00  0.00    -0.064 C 
ATOM     27  C   UNL     1      -4.353  18.165  22.989  0.00  0.00    +0.066 C 
ENDBRANCH  19  20
ENDBRANCH  18  19
ENDBRANCH  14  15
ENDBRANCH  12  13
TORSDOF 6
ENDMDL
