MODEL 1
REMARK VINA RESULT:      -7.3      0.000      0.000
REMARK  Name = C:\Users\Docking\Desktop\test protocol\1iep_ligandH.pdb
REMARK  8 active torsions:
REMARK  status: ('A' for Active; 'I' for Inactive)
REMARK    1  A    between atoms: _5  and  _11
REMARK    2  A    between atoms: _19  and  _21
REMARK    3  A    between atoms: _22  and  _66
REMARK    4  A    between atoms: _27  and  _30
REMARK    5  A    between atoms: _32  and  _33
REMARK    6  A    between atoms: _38  and  _43
REMARK    7  A    between atoms: _43  and  _46
REMARK    8  A    between atoms: _53  and  _55
REMARK                            x       y       z     vdW  Elec       q    Type
REMARK                         _______ _______ _______ _____ _____    ______ ____
ROOT
ATOM     10  C   UNL     1     -49.574 -21.861   9.594  0.00  0.00    +0.038 A 
ATOM     11  C   UNL     1     -49.183 -20.625  10.170  0.00  0.00    +0.047 A 
ATOM     12  C   UNL     1     -47.792 -20.352  10.494  0.00  0.00    +0.035 A 
ATOM     32  C   UNL     1     -46.823 -21.359  10.215  0.00  0.00    +0.024 A 
ATOM     33  C   UNL     1     -47.202 -22.622   9.631  0.00  0.00    +0.007 A 
ATOM     34  C   UNL     1     -48.574 -22.898   9.312  0.00  0.00    -0.029 A 
ATOM     35  C   UNL     1     -48.924 -24.271   8.693  0.00  0.00    +0.045 C 
ENDROOT
BRANCH  10   9
ATOM      4  C   UNL     1     -53.260 -22.065   6.527  0.00  0.00    +0.077 A 
ATOM      5  C   UNL     1     -52.432 -21.698   5.415  0.00  0.00    +0.048 A 
ATOM      6  C   UNL     1     -51.064 -21.458   5.675  0.00  0.00    +0.116 A 
ATOM      7  N   UNL     1     -50.572 -21.580   6.957  0.00  0.00    -0.223 NA
ATOM      8  C   UNL     1     -51.399 -21.934   8.008  0.00  0.00    +0.220 A 
ATOM      9  N   UNL     1     -50.924 -22.070   9.303  0.00  0.00    -0.283 N 
ATOM     36  H   UNL     1     -51.567 -22.325  10.052  0.00  0.00    +0.155 HD
ATOM     37  N   UNL     1     -52.709 -22.166   7.785  0.00  0.00    -0.214 NA
BRANCH   4   3
ATOM      1  C   UNL     1     -57.100 -22.236   7.253  0.00  0.00    +0.020 A 
ATOM      2  C   UNL     1     -55.697 -21.932   7.413  0.00  0.00    +0.013 A 
ATOM      3  C   UNL     1     -54.725 -22.353   6.411  0.00  0.00    +0.019 A 
ATOM     38  C   UNL     1     -55.210 -23.085   5.251  0.00  0.00    +0.120 A 
ATOM     39  N   UNL     1     -56.567 -23.364   5.125  0.00  0.00    -0.263 NA
ATOM     40  C   UNL     1     -57.511 -22.965   6.082  0.00  0.00    +0.111 A 
ENDBRANCH   4   3
ENDBRANCH  10   9
BRANCH  12  13
ATOM     13  N   UNL     1     -47.337 -19.118  11.087  0.00  0.00    -0.281 N 
ATOM     14  C   UNL     1     -46.616 -18.952  12.258  0.00  0.00    +0.248 C 
ATOM     30  O   UNL     1     -46.435 -19.829  13.089  0.00  0.00    -0.270 OA
ATOM     31  H   UNL     1     -47.576 -18.265  10.582  0.00  0.00    +0.155 HD
BRANCH  14  15
ATOM     15  C   UNL     1     -46.022 -17.613  12.555  0.00  0.00    +0.037 A 
ATOM     16  C   UNL     1     -46.577 -16.751  13.602  0.00  0.00    +0.013 A 
ATOM     17  C   UNL     1     -45.995 -15.457  13.857  0.00  0.00    +0.005 A 
ATOM     18  C   UNL     1     -44.850 -15.018  13.064  0.00  0.00    -0.033 A 
ATOM     28  C   UNL     1     -44.316 -15.895  12.036  0.00  0.00    +0.005 A 
ATOM     29  C   UNL     1     -44.884 -17.164  11.782  0.00  0.00    +0.013 A 
BRANCH  18  19
ATOM     19  C   UNL     1     -44.179 -13.645  13.254  0.00  0.00    +0.119 C 
BRANCH  19  20
ATOM     20  N   UNL     1     -42.687 -13.616  13.324  0.00  0.00    -0.302 NA
ATOM     21  C   UNL     1     -42.153 -14.420  14.513  0.00  0.00    +0.066 C 
ATOM     22  C   UNL     1     -40.590 -14.399  14.559  0.00  0.00    -0.064 C 
ATOM     23  N   UNL     1     -40.105 -12.950  14.624  0.00  0.00    +0.379 N 
ATOM     24  C   UNL     1     -38.638 -12.928  14.725  0.00  0.00    -0.096 C 
ATOM     25  H   UNL     1     -40.516 -12.497  15.556  0.00  0.00    -0.082 HD
ATOM     26  C   UNL     1     -40.634 -12.142  13.447  0.00  0.00    -0.064 C 
ATOM     27  C   UNL     1     -42.186 -12.195  13.393  0.00  0.00    +0.066 C 
ENDBRANCH  19  20
ENDBRANCH  18  19
ENDBRANCH  14  15
ENDBRANCH  12  13
TORSDOF 6
ENDMDL
MODEL 2
REMARK VINA RESULT:      -7.2     24.978     30.229
REMARK  Name = C:\Users\Docking\Desktop\test protocol\1iep_ligandH.pdb
REMARK  8 active torsions:
REMARK  status: ('A' for Active; 'I' for Inactive)
REMARK    1  A    between atoms: _5  and  _11
REMARK    2  A    between atoms: _19  and  _21
REMARK    3  A    between atoms: _22  and  _66
REMARK    4  A    between atoms: _27  and  _30
REMARK    5  A    between atoms: _32  and  _33
REMARK    6  A    between atoms: _38  and  _43
REMARK    7  A    between atoms: _43  and  _46
REMARK    8  A    between atoms: _53  and  _55
REMARK                            x       y       z     vdW  Elec       q    Type
REMARK                         _______ _______ _______ _____ _____    ______ ____
ROOT
ATOM     10  C   UNL     1     -40.405   2.548  -6.515  0.00  0.00    +0.038 A 
ATOM     11  C   UNL     1     -40.678   1.415  -7.322  0.00  0.00    +0.047 A 
ATOM     12  C   UNL     1     -41.596   1.496  -8.448  0.00  0.00    +0.035 A 
ATOM     32  C   UNL     1     -42.215   2.749  -8.725  0.00  0.00    +0.024 A 
ATOM     33  C   UNL     1     -41.950   3.911  -7.915  0.00  0.00    +0.007 A 
ATOM     34  C   UNL     1     -41.048   3.837  -6.801  0.00  0.00    -0.029 A 
ATOM     35  C   UNL     1     -40.805   5.113  -5.963  0.00  0.00    +0.045 C 
ENDROOT
BRANCH  10   9
ATOM      4  C   UNL     1     -35.990   2.704  -4.637  0.00  0.00    +0.077 A 
ATOM      5  C   UNL     1     -35.403   3.058  -5.898  0.00  0.00    +0.048 A 
ATOM      6  C   UNL     1     -36.270   3.182  -7.006  0.00  0.00    +0.116 A 
ATOM      7  N   UNL     1     -37.623   2.968  -6.854  0.00  0.00    -0.223 NA
ATOM      8  C   UNL     1     -38.157   2.627  -5.625  0.00  0.00    +0.220 A 
ATOM      9  N   UNL     1     -39.515   2.414  -5.447  0.00  0.00    -0.283 N 
ATOM     36  H   UNL     1     -39.869   2.156  -4.526  0.00  0.00    +0.155 HD
ATOM     37  N   UNL     1     -37.349   2.500  -4.551  0.00  0.00    -0.214 NA
BRANCH   4   3
ATOM      1  C   UNL     1     -34.080   1.129  -1.609  0.00  0.00    +0.020 A 
ATOM      2  C   UNL     1     -34.839   1.235  -2.834  0.00  0.00    +0.013 A 
ATOM      3  C   UNL     1     -35.205   2.538  -3.373  0.00  0.00    +0.019 A 
ATOM     38  C   UNL     1     -34.783   3.725  -2.645  0.00  0.00    +0.120 A 
ATOM     39  N   UNL     1     -34.053   3.592  -1.467  0.00  0.00    -0.263 NA
ATOM     40  C   UNL     1     -33.697   2.343  -0.937  0.00  0.00    +0.111 A 
ENDBRANCH   4   3
ENDBRANCH  10   9
BRANCH  12  13
ATOM     13  N   UNL     1     -41.918   0.376  -9.297  0.00  0.00    -0.281 N 
ATOM     14  C   UNL     1     -41.168  -0.148 -10.337  0.00  0.00    +0.248 C 
ATOM     30  O   UNL     1     -40.197   0.403 -10.836  0.00  0.00    -0.270 OA
ATOM     31  H   UNL     1     -42.808  -0.086  -9.109  0.00  0.00    +0.155 HD
BRANCH  14  15
ATOM     15  C   UNL     1     -41.560  -1.468 -10.917  0.00  0.00    +0.037 A 
ATOM     16  C   UNL     1     -40.661  -2.204 -11.809  0.00  0.00    +0.013 A 
ATOM     17  C   UNL     1     -41.071  -3.468 -12.369  0.00  0.00    +0.005 A 
ATOM     18  C   UNL     1     -42.388  -4.004 -12.036  0.00  0.00    -0.033 A 
ATOM     28  C   UNL     1     -43.259  -3.256 -11.144  0.00  0.00    +0.005 A 
ATOM     29  C   UNL     1     -42.860  -2.017 -10.595  0.00  0.00    +0.013 A 
BRANCH  18  19
ATOM     19  C   UNL     1     -42.917  -5.335 -12.603  0.00  0.00    +0.119 C 
BRANCH  19  20
ATOM     20  N   UNL     1     -43.450  -6.331 -11.626  0.00  0.00    -0.302 NA
ATOM     21  C   UNL     1     -42.519  -7.536 -11.468  0.00  0.00    +0.066 C 
ATOM     22  C   UNL     1     -43.080  -8.557 -10.426  0.00  0.00    -0.064 C 
ATOM     23  N   UNL     1     -44.478  -9.006 -10.859  0.00  0.00    +0.379 N 
ATOM     24  C   UNL     1     -44.985 -10.010  -9.912  0.00  0.00    -0.096 C 
ATOM     25  H   UNL     1     -44.381  -9.498 -11.854  0.00  0.00    -0.082 HD
ATOM     26  C   UNL     1     -45.410  -7.814 -11.021  0.00  0.00    -0.064 C 
ATOM     27  C   UNL     1     -44.828  -6.791 -12.036  0.00  0.00    +0.066 C 
ENDBRANCH  19  20
ENDBRANCH  18  19
ENDBRANCH  14  15
ENDBRANCH  12  13
TORSDOF 6
ENDMDL
MODEL 3
REMARK VINA RESULT:      -7.2     23.676     25.466
REMARK  Name = C:\Users\Docking\Desktop\test protocol\1iep_ligandH.pdb
REMARK  8 active torsions:
REMARK  status: ('A' for Active; 'I' for Inactive)
REMARK    1  A    between atoms: _5  and  _11
REMARK    2  A    between atoms: _19  and  _21
REMARK    3  A    between atoms: _22  and  _66
REMARK    4  A    between atoms: _27  and  _30
REMARK    5  A    between atoms: _32  and  _33
REMARK    6  A    between atoms: _38  and  _43
REMARK    7  A    between atoms: _43  and  _46
REMARK    8  A    between atoms: _53  and  _55
REMARK                            x       y       z     vdW  Elec       q    Type
REMARK                         _______ _______ _______ _____ _____    ______ ____
ROOT
ATOM     10  C   UNL     1     -46.606  -6.256 -11.150  0.00  0.00    +0.038 A 
ATOM     11  C   UNL     1     -45.551  -5.417 -10.709  0.00  0.00    +0.047 A 
ATOM     12  C   UNL     1     -45.086  -4.303 -11.520  0.00  0.00    +0.035 A 
ATOM     32  C   UNL     1     -45.721  -4.070 -12.775  0.00  0.00    +0.024 A 
ATOM     33  C   UNL     1     -46.795  -4.914 -13.239  0.00  0.00    +0.007 A 
ATOM     34  C   UNL     1     -47.255  -6.016 -12.444  0.00  0.00    -0.029 A 
ATOM     35  C   UNL     1     -48.406  -6.891 -12.994  0.00  0.00    +0.045 C 
ENDROOT
BRANCH  10   9
ATOM      4  C   UNL     1     -45.825 -10.452  -8.953  0.00  0.00    +0.077 A 
ATOM      5  C   UNL     1     -44.506 -10.563  -9.506  0.00  0.00    +0.048 A 
ATOM      6  C   UNL     1     -44.070  -9.524 -10.357  0.00  0.00    +0.116 A 
ATOM      7  N   UNL     1     -44.898  -8.456 -10.627  0.00  0.00    -0.223 NA
ATOM      8  C   UNL     1     -46.165  -8.380 -10.078  0.00  0.00    +0.220 A 
ATOM      9  N   UNL     1     -47.012  -7.312 -10.330  0.00  0.00    -0.283 N 
ATOM     36  H   UNL     1     -47.942  -7.296  -9.912  0.00  0.00    +0.155 HD
ATOM     37  N   UNL     1     -46.606  -9.361  -9.264  0.00  0.00    -0.214 NA
BRANCH   4   3
ATOM      1  C   UNL     1     -46.280 -13.175  -6.182  0.00  0.00    +0.020 A 
ATOM      2  C   UNL     1     -45.649 -12.204  -7.046  0.00  0.00    +0.013 A 
ATOM      3  C   UNL     1     -46.428 -11.468  -8.034  0.00  0.00    +0.019 A 
ATOM     38  C   UNL     1     -47.855 -11.740  -8.122  0.00  0.00    +0.120 A 
ATOM     39  N   UNL     1     -48.435 -12.682  -7.278  0.00  0.00    -0.263 NA
ATOM     40  C   UNL     1     -47.695 -13.397  -6.324  0.00  0.00    +0.111 A 
ENDBRANCH   4   3
ENDBRANCH  10   9
BRANCH  12  13
ATOM     13  N   UNL     1     -44.013  -3.423 -11.129  0.00  0.00    -0.281 N 
ATOM     14  C   UNL     1     -42.719  -3.386 -11.621  0.00  0.00    +0.248 C 
ATOM     30  O   UNL     1     -42.223  -4.252 -12.326  0.00  0.00    -0.270 OA
ATOM     31  H   UNL     1     -44.235  -2.744 -10.400  0.00  0.00    +0.155 HD
BRANCH  14  15
ATOM     15  C   UNL     1     -41.844  -2.227 -11.266  0.00  0.00    +0.037 A 
ATOM     16  C   UNL     1     -40.478  -2.119 -11.785  0.00  0.00    +0.013 A 
ATOM     17  C   UNL     1     -39.650  -1.000 -11.413  0.00  0.00    +0.005 A 
ATOM     18  C   UNL     1     -40.186   0.022 -10.518  0.00  0.00    -0.033 A 
ATOM     28  C   UNL     1     -41.547  -0.107 -10.022  0.00  0.00    +0.005 A 
ATOM     29  C   UNL     1     -42.361  -1.203 -10.383  0.00  0.00    +0.013 A 
BRANCH  18  19
ATOM     19  C   UNL     1     -39.367   1.240 -10.052  0.00  0.00    +0.119 C 
BRANCH  19  20
ATOM     20  N   UNL     1     -39.166   1.407  -8.582  0.00  0.00    -0.302 NA
ATOM     21  C   UNL     1     -39.380   2.855  -8.133  0.00  0.00    +0.066 C 
ATOM     22  C   UNL     1     -39.188   3.007  -6.589  0.00  0.00    -0.064 C 
ATOM     23  N   UNL     1     -37.791   2.521  -6.201  0.00  0.00    +0.379 N 
ATOM     24  C   UNL     1     -37.586   2.717  -4.759  0.00  0.00    -0.096 C 
ATOM     25  H   UNL     1     -37.050   3.159  -6.738  0.00  0.00    -0.082 HD
ATOM     26  C   UNL     1     -37.568   1.083  -6.646  0.00  0.00    -0.064 C 
ATOM     27  C   UNL     1     -37.790   0.937  -8.177  0.00  0.00    +0.066 C 
ENDBRANCH  19  20
ENDBRANCH  18  19
ENDBRANCH  14  15
ENDBRANCH  12  13
TORSDOF 6
ENDMDL
MODEL 4
REMARK VINA RESULT:      -6.9     24.156     29.143
REMARK  Name = C:\Users\Docking\Desktop\test protocol\1iep_ligandH.pdb
REMARK  8 active torsions:
REMARK  status: ('A' for Active; 'I' for Inactive)
REMARK    1  A    between atoms: _5  and  _11
REMARK    2  A    between atoms: _19  and  _21
REMARK    3  A    between atoms: _22  and  _66
REMARK    4  A    between atoms: _27  and  _30
REMARK    5  A    between atoms: _32  and  _33
REMARK    6  A    between atoms: _38  and  _43
REMARK    7  A    between atoms: _43  and  _46
REMARK    8  A    between atoms: _53  and  _55
REMARK                            x       y       z     vdW  Elec       q    Type
REMARK                         _______ _______ _______ _____ _____    ______ ____
ROOT
ATOM     10  C   UNL     1     -43.500   8.464  14.753  0.00  0.00    +0.038 A 
ATOM     11  C   UNL     1     -44.020   8.407  13.435  0.00  0.00    +0.047 A 
ATOM     12  C   UNL     1     -44.023   9.580  12.575  0.00  0.00    +0.035 A 
ATOM     32  C   UNL     1     -43.485  10.796  13.090  0.00  0.00    +0.024 A 
ATOM     33  C   UNL     1     -42.954  10.873  14.428  0.00  0.00    +0.007 A 
ATOM     34  C   UNL     1     -42.951   9.719  15.281  0.00  0.00    -0.029 A 
ATOM     35  C   UNL     1     -42.374   9.861  16.709  0.00  0.00    +0.045 C 
ENDROOT
BRANCH  10   9
ATOM      4  C   UNL     1     -45.681   5.438  17.773  0.00  0.00    +0.077 A 
ATOM      5  C   UNL     1     -46.867   6.244  17.818  0.00  0.00    +0.048 A 
ATOM      6  C   UNL     1     -46.872   7.433  17.055  0.00  0.00    +0.116 A 
ATOM      7  N   UNL     1     -45.769   7.780  16.307  0.00  0.00    -0.223 NA
ATOM      8  C   UNL     1     -44.640   6.981  16.287  0.00  0.00    +0.220 A 
ATOM      9  N   UNL     1     -43.522   7.307  15.535  0.00  0.00    -0.283 N 
ATOM     36  H   UNL     1     -42.707   6.695  15.553  0.00  0.00    +0.155 HD
ATOM     37  N   UNL     1     -44.610   5.841  17.008  0.00  0.00    -0.214 NA
BRANCH   4   3
ATOM      1  C   UNL     1     -46.098   1.734  18.959  0.00  0.00    +0.020 A 
ATOM      2  C   UNL     1     -46.288   2.951  18.205  0.00  0.00    +0.013 A 
ATOM      3  C   UNL     1     -45.524   4.151  18.522  0.00  0.00    +0.019 A 
ATOM     38  C   UNL     1     -44.566   4.085  19.616  0.00  0.00    +0.120 A 
ATOM     39  N   UNL     1     -44.405   2.899  20.326  0.00  0.00    -0.263 NA
ATOM     40  C   UNL     1     -45.137   1.738  20.031  0.00  0.00    +0.111 A 
ENDBRANCH   4   3
ENDBRANCH  10   9
BRANCH  12  13
ATOM     13  N   UNL     1     -44.544   9.584  11.231  0.00  0.00    -0.281 N 
ATOM     14  C   UNL     1     -45.854   9.389  10.825  0.00  0.00    +0.248 C 
ATOM     30  O   UNL     1     -46.746   8.968  11.547  0.00  0.00    -0.270 OA
ATOM     31  H   UNL     1     -43.865   9.751  10.488  0.00  0.00    +0.155 HD
BRANCH  14  15
ATOM     15  C   UNL     1     -46.225   9.693   9.410  0.00  0.00    +0.037 A 
ATOM     16  C   UNL     1     -47.485   9.215   8.834  0.00  0.00    +0.013 A 
ATOM     17  C   UNL     1     -47.810   9.508   7.461  0.00  0.00    +0.005 A 
ATOM     18  C   UNL     1     -46.872  10.284   6.653  0.00  0.00    -0.033 A 
ATOM     28  C   UNL     1     -45.632  10.750   7.250  0.00  0.00    +0.005 A 
ATOM     29  C   UNL     1     -45.309  10.464   8.596  0.00  0.00    +0.013 A 
BRANCH  18  19
ATOM     19  C   UNL     1     -47.127  10.625   5.173  0.00  0.00    +0.119 C 
BRANCH  19  20
ATOM     20  N   UNL     1     -47.325   9.483   4.232  0.00  0.00    -0.302 NA
ATOM     21  C   UNL     1     -48.786   9.026   4.183  0.00  0.00    +0.066 C 
ATOM     22  C   UNL     1     -48.979   7.844   3.177  0.00  0.00    -0.064 C 
ATOM     23  N   UNL     1     -48.062   6.686   3.573  0.00  0.00    +0.379 N 
ATOM     24  C   UNL     1     -48.284   5.552   2.664  0.00  0.00    -0.096 C 
ATOM     25  H   UNL     1     -48.354   6.359   4.598  0.00  0.00    -0.082 HD
ATOM     26  C   UNL     1     -46.608   7.132   3.627  0.00  0.00    -0.064 C 
ATOM     27  C   UNL     1     -46.432   8.325   4.607  0.00  0.00    +0.066 C 
ENDBRANCH  19  20
ENDBRANCH  18  19
ENDBRANCH  14  15
ENDBRANCH  12  13
TORSDOF 6
ENDMDL
MODEL 5
REMARK VINA RESULT:      -6.9     27.730     32.008
REMARK  Name = C:\Users\Docking\Desktop\test protocol\1iep_ligandH.pdb
REMARK  8 active torsions:
REMARK  status: ('A' for Active; 'I' for Inactive)
REMARK    1  A    between atoms: _5  and  _11
REMARK    2  A    between atoms: _19  and  _21
REMARK    3  A    between atoms: _22  and  _66
REMARK    4  A    between atoms: _27  and  _30
REMARK    5  A    between atoms: _32  and  _33
REMARK    6  A    between atoms: _38  and  _43
REMARK    7  A    between atoms: _43  and  _46
REMARK    8  A    between atoms: _53  and  _55
REMARK                            x       y       z     vdW  Elec       q    Type
REMARK                         _______ _______ _______ _____ _____    ______ ____
ROOT
ATOM     10  C   UNL     1     -30.643   4.991   3.899  0.00  0.00    +0.038 A 
ATOM     11  C   UNL     1     -31.506   4.402   2.940  0.00  0.00    +0.047 A 
ATOM     12  C   UNL     1     -30.981   3.784   1.733  0.00  0.00    +0.035 A 
ATOM     32  C   UNL     1     -29.569   3.781   1.535  0.00  0.00    +0.024 A 
ATOM     33  C   UNL     1     -28.677   4.376   2.499  0.00  0.00    +0.007 A 
ATOM     34  C   UNL     1     -29.190   4.989   3.691  0.00  0.00    -0.029 A 
ATOM     35  C   UNL     1     -28.187   5.617   4.686  0.00  0.00    +0.045 C 
ENDROOT
BRANCH  10   9
ATOM      4  C   UNL     1     -32.665   8.674   6.218  0.00  0.00    +0.077 A 
ATOM      5  C   UNL     1     -32.577   9.525   5.067  0.00  0.00    +0.048 A 
ATOM      6  C   UNL     1     -31.998   8.978   3.899  0.00  0.00    +0.116 A 
ATOM      7  N   UNL     1     -31.545   7.677   3.896  0.00  0.00    -0.223 NA
ATOM      8  C   UNL     1     -31.644   6.884   5.024  0.00  0.00    +0.220 A 
ATOM      9  N   UNL     1     -31.202   5.570   5.040  0.00  0.00    -0.283 N 
ATOM     36  H   UNL     1     -31.286   5.020   5.895  0.00  0.00    +0.155 HD
ATOM     37  N   UNL     1     -32.191   7.383   6.152  0.00  0.00    -0.214 NA
BRANCH   4   3
ATOM      1  C   UNL     1     -35.012  10.273   8.909  0.00  0.00    +0.020 A 
ATOM      2  C   UNL     1     -34.485   9.882   7.622  0.00  0.00    +0.013 A 
ATOM      3  C   UNL     1     -33.255   9.106   7.525  0.00  0.00    +0.019 A 
ATOM     38  C   UNL     1     -32.578   8.738   8.760  0.00  0.00    +0.120 A 
ATOM     39  N   UNL     1     -33.109   9.130   9.985  0.00  0.00    -0.263 NA
ATOM     40  C   UNL     1     -34.291   9.878  10.090  0.00  0.00    +0.111 A 
ENDBRANCH   4   3
ENDBRANCH  10   9
BRANCH  12  13
ATOM     13  N   UNL     1     -31.809   3.178   0.721  0.00  0.00    -0.281 N 
ATOM     14  C   UNL     1     -32.943   3.702   0.122  0.00  0.00    +0.248 C 
ATOM     30  O   UNL     1     -33.543   4.688   0.522  0.00  0.00    -0.270 OA
ATOM     31  H   UNL     1     -31.525   2.249   0.407  0.00  0.00    +0.155 HD
BRANCH  14  15
ATOM     15  C   UNL     1     -33.500   3.024  -1.088  0.00  0.00    +0.037 A 
ATOM     16  C   UNL     1     -33.185   1.624  -1.388  0.00  0.00    +0.013 A 
ATOM     17  C   UNL     1     -33.721   0.999  -2.570  0.00  0.00    +0.005 A 
ATOM     18  C   UNL     1     -34.581   1.774  -3.462  0.00  0.00    -0.033 A 
ATOM     28  C   UNL     1     -34.882   3.158  -3.138  0.00  0.00    +0.005 A 
ATOM     29  C   UNL     1     -34.357   3.775  -1.981  0.00  0.00    +0.013 A 
BRANCH  18  19
ATOM     19  C   UNL     1     -35.180   1.194  -4.758  0.00  0.00    +0.119 C 
BRANCH  19  20
ATOM     20  N   UNL     1     -36.623   1.470  -5.026  0.00  0.00    -0.302 NA
ATOM     21  C   UNL     1     -37.410   0.187  -5.310  0.00  0.00    +0.066 C 
ATOM     22  C   UNL     1     -38.922   0.491  -5.566  0.00  0.00    -0.064 C 
ATOM     23  N   UNL     1     -39.051   1.474  -6.731  0.00  0.00    +0.379 N 
ATOM     24  C   UNL     1     -40.473   1.717  -7.012  0.00  0.00    -0.096 C 
ATOM     25  H   UNL     1     -38.606   0.992  -7.631  0.00  0.00    -0.082 HD
ATOM     26  C   UNL     1     -38.270   2.752  -6.458  0.00  0.00    -0.064 C 
ATOM     27  C   UNL     1     -36.774   2.436  -6.175  0.00  0.00    +0.066 C 
ENDBRANCH  19  20
ENDBRANCH  18  19
ENDBRANCH  14  15
ENDBRANCH  12  13
TORSDOF 6
ENDMDL
