MODEL 1
REMARK VINA RESULT:      -7.3      0.000      0.000
REMARK  Name = C:\Users\Docking\Desktop\test protocol\1iep_ligandH.pdb
REMARK  8 active torsions:
REMARK  status: ('A' for Active; 'I' for Inactive)
REMARK    1  A    between atoms: _5  and  _11
REMARK    2  A    between atoms: _19  and  _21
REMARK    3  A    between atoms: _22  and  _66
REMARK    4  A    between atoms: _27  and  _30
REMARK    5  A    between atoms: _32  and  _33
REMARK    6  A    between atoms: _38  and  _43
REMARK    7  A    between atoms: _43  and  _46
REMARK    8  A    between atoms: _53  and  _55
REMARK                            x       y       z     vdW  Elec       q    Type
REMARK                         _______ _______ _______ _____ _____    ______ ____
ROOT
ATOM     10  C   UNL     1     -27.149  63.997  -5.794  0.00  0.00    +0.038 A 
ATOM     11  C   UNL     1     -26.304  63.026  -6.390  0.00  0.00    +0.047 A 
ATOM     12  C   UNL     1     -25.527  63.333  -7.580  0.00  0.00    +0.035 A 
ATOM     32  C   UNL     1     -25.631  64.642  -8.135  0.00  0.00    +0.024 A 
ATOM     33  C   UNL     1     -26.486  65.641  -7.543  0.00  0.00    +0.007 A 
ATOM     34  C   UNL     1     -27.258  65.342  -6.371  0.00  0.00    -0.029 A 
ATOM     35  C   UNL     1     -28.162  66.450  -5.782  0.00  0.00    +0.045 C 
ENDROOT
BRANCH  10   9
ATOM      4  C   UNL     1     -27.682  63.750  -1.030  0.00  0.00    +0.077 A 
ATOM      5  C   UNL     1     -26.397  64.343  -0.796  0.00  0.00    +0.048 A 
ATOM      6  C   UNL     1     -25.627  64.691  -1.929  0.00  0.00    +0.116 A 
ATOM      7  N   UNL     1     -26.116  64.458  -3.196  0.00  0.00    -0.223 NA
ATOM      8  C   UNL     1     -27.359  63.883  -3.386  0.00  0.00    +0.220 A 
ATOM      9  N   UNL     1     -27.874  63.647  -4.652  0.00  0.00    -0.283 N 
ATOM     36  H   UNL     1     -28.791  63.213  -4.750  0.00  0.00    +0.155 HD
ATOM     37  N   UNL     1     -28.112  63.540  -2.321  0.00  0.00    -0.214 NA
BRANCH   4   3
ATOM      1  C   UNL     1     -29.369  61.740   1.871  0.00  0.00    +0.020 A 
ATOM      2  C   UNL     1     -28.441  62.098   0.823  0.00  0.00    +0.013 A 
ATOM      3  C   UNL     1     -28.613  63.331   0.064  0.00  0.00    +0.019 A 
ATOM     38  C   UNL     1     -29.744  64.186   0.394  0.00  0.00    +0.120 A 
ATOM     39  N   UNL     1     -30.622  63.814   1.407  0.00  0.00    -0.263 NA
ATOM     40  C   UNL     1     -30.468  62.630   2.142  0.00  0.00    +0.111 A 
ENDBRANCH   4   3
ENDBRANCH  10   9
BRANCH  12  13
ATOM     13  N   UNL     1     -24.658  62.386  -8.233  0.00  0.00    -0.281 N 
ATOM     14  C   UNL     1     -23.359  62.047  -7.894  0.00  0.00    +0.248 C 
ATOM     30  O   UNL     1     -22.668  62.667  -7.099  0.00  0.00    -0.270 OA
ATOM     31  H   UNL     1     -25.049  61.907  -9.045  0.00  0.00    +0.155 HD
BRANCH  14  15
ATOM     15  C   UNL     1     -22.731  60.855  -8.541  0.00  0.00    +0.037 A 
ATOM     16  C   UNL     1     -21.301  60.827  -8.858  0.00  0.00    +0.013 A 
ATOM     17  C   UNL     1     -20.724  59.671  -9.497  0.00  0.00    +0.005 A 
ATOM     18  C   UNL     1     -21.579  58.532  -9.823  0.00  0.00    -0.033 A 
ATOM     28  C   UNL     1     -22.993  58.584  -9.492  0.00  0.00    +0.005 A 
ATOM     29  C   UNL     1     -23.562  59.715  -8.866  0.00  0.00    +0.013 A 
BRANCH  18  19
ATOM     19  C   UNL     1     -21.053  57.265 -10.524  0.00  0.00    +0.119 C 
BRANCH  19  20
ATOM     20  N   UNL     1     -19.632  56.883 -10.270  0.00  0.00    -0.302 NA
ATOM     21  C   UNL     1     -18.885  56.556 -11.566  0.00  0.00    +0.066 C 
ATOM     22  C   UNL     1     -17.394  56.180 -11.284  0.00  0.00    -0.064 C 
ATOM     23  N   UNL     1     -17.344  54.996 -10.317  0.00  0.00    +0.379 N 
ATOM     24  C   UNL     1     -15.944  54.603 -10.095  0.00  0.00    -0.096 C 
ATOM     25  H   UNL     1     -17.863  54.139 -10.805  0.00  0.00    -0.082 HD
ATOM     26  C   UNL     1     -18.087  55.311  -9.027  0.00  0.00    -0.064 C 
ATOM     27  C   UNL     1     -19.559  55.713  -9.321  0.00  0.00    +0.066 C 
ENDBRANCH  19  20
ENDBRANCH  18  19
ENDBRANCH  14  15
ENDBRANCH  12  13
TORSDOF 6
ENDMDL
MODEL 2
REMARK VINA RESULT:      -7.2     10.524     17.010
REMARK  Name = C:\Users\Docking\Desktop\test protocol\1iep_ligandH.pdb
REMARK  8 active torsions:
REMARK  status: ('A' for Active; 'I' for Inactive)
REMARK    1  A    between atoms: _5  and  _11
REMARK    2  A    between atoms: _19  and  _21
REMARK    3  A    between atoms: _22  and  _66
REMARK    4  A    between atoms: _27  and  _30
REMARK    5  A    between atoms: _32  and  _33
REMARK    6  A    between atoms: _38  and  _43
REMARK    7  A    between atoms: _43  and  _46
REMARK    8  A    between atoms: _53  and  _55
REMARK                            x       y       z     vdW  Elec       q    Type
REMARK                         _______ _______ _______ _____ _____    ______ ____
ROOT
ATOM     10  C   UNL     1     -16.755  65.793   4.579  0.00  0.00    +0.038 A 
ATOM     11  C   UNL     1     -18.080  65.421   4.922  0.00  0.00    +0.047 A 
ATOM     12  C   UNL     1     -18.797  66.093   5.994  0.00  0.00    +0.035 A 
ATOM     32  C   UNL     1     -18.135  67.143   6.695  0.00  0.00    +0.024 A 
ATOM     33  C   UNL     1     -16.788  67.533   6.361  0.00  0.00    +0.007 A 
ATOM     34  C   UNL     1     -16.075  66.872   5.306  0.00  0.00    -0.029 A 
ATOM     35  C   UNL     1     -14.630  67.327   4.994  0.00  0.00    +0.045 C 
ENDROOT
BRANCH  10   9
ATOM      4  C   UNL     1     -15.904  65.016  -0.080  0.00  0.00    +0.077 A 
ATOM      5  C   UNL     1     -16.835  66.031  -0.480  0.00  0.00    +0.048 A 
ATOM      6  C   UNL     1     -17.518  66.725   0.544  0.00  0.00    +0.116 A 
ATOM      7  N   UNL     1     -17.279  66.419   1.866  0.00  0.00    -0.223 NA
ATOM      8  C   UNL     1     -16.376  65.433   2.217  0.00  0.00    +0.220 A 
ATOM      9  N   UNL     1     -16.114  65.113   3.541  0.00  0.00    -0.283 N 
ATOM     36  H   UNL     1     -15.446  64.374   3.759  0.00  0.00    +0.155 HD
ATOM     37  N   UNL     1     -15.712  64.754   1.258  0.00  0.00    -0.214 NA
BRANCH   4   3
ATOM      1  C   UNL     1     -14.238  63.680  -3.357  0.00  0.00    +0.020 A 
ATOM      2  C   UNL     1     -15.026  64.502  -2.468  0.00  0.00    +0.013 A 
ATOM      3  C   UNL     1     -15.103  64.198  -1.045  0.00  0.00    +0.019 A 
ATOM     38  C   UNL     1     -14.364  63.046  -0.549  0.00  0.00    +0.120 A 
ATOM     39  N   UNL     1     -13.615  62.272  -1.429  0.00  0.00    -0.263 NA
ATOM     40  C   UNL     1     -13.534  62.554  -2.801  0.00  0.00    +0.111 A 
ENDBRANCH   4   3
ENDBRANCH  10   9
BRANCH  12  13
ATOM     13  N   UNL     1     -20.141  65.753   6.393  0.00  0.00    -0.281 N 
ATOM     14  C   UNL     1     -21.263  65.638   5.589  0.00  0.00    +0.248 C 
ATOM     30  O   UNL     1     -21.326  66.021   4.431  0.00  0.00    -0.270 OA
ATOM     31  H   UNL     1     -20.281  65.576   7.387  0.00  0.00    +0.155 HD
BRANCH  14  15
ATOM     15  C   UNL     1     -22.500  65.022   6.160  0.00  0.00    +0.037 A 
ATOM     16  C   UNL     1     -22.550  64.571   7.554  0.00  0.00    +0.013 A 
ATOM     17  C   UNL     1     -23.749  63.964   8.074  0.00  0.00    +0.005 A 
ATOM     18  C   UNL     1     -24.910  63.806   7.201  0.00  0.00    -0.033 A 
ATOM     28  C   UNL     1     -24.834  64.267   5.824  0.00  0.00    +0.005 A 
ATOM     29  C   UNL     1     -23.660  64.861   5.310  0.00  0.00    +0.013 A 
BRANCH  18  19
ATOM     19  C   UNL     1     -26.223  63.151   7.665  0.00  0.00    +0.119 C 
BRANCH  19  20
ATOM     20  N   UNL     1     -26.199  62.416   8.965  0.00  0.00    -0.302 NA
ATOM     21  C   UNL     1     -26.681  60.970   8.817  0.00  0.00    +0.066 C 
ATOM     22  C   UNL     1     -26.627  60.209  10.182  0.00  0.00    -0.064 C 
ATOM     23  N   UNL     1     -27.471  60.959  11.214  0.00  0.00    +0.379 N 
ATOM     24  C   UNL     1     -27.470  60.215  12.482  0.00  0.00    -0.096 C 
ATOM     25  H   UNL     1     -28.520  60.984  10.838  0.00  0.00    -0.082 HD
ATOM     26  C   UNL     1     -27.000  62.398  11.366  0.00  0.00    -0.064 C 
ATOM     27  C   UNL     1     -27.030  63.136   9.998  0.00  0.00    +0.066 C 
ENDBRANCH  19  20
ENDBRANCH  18  19
ENDBRANCH  14  15
ENDBRANCH  12  13
TORSDOF 6
ENDMDL
MODEL 3
REMARK VINA RESULT:      -7.2     19.651     23.103
REMARK  Name = C:\Users\Docking\Desktop\test protocol\1iep_ligandH.pdb
REMARK  8 active torsions:
REMARK  status: ('A' for Active; 'I' for Inactive)
REMARK    1  A    between atoms: _5  and  _11
REMARK    2  A    between atoms: _19  and  _21
REMARK    3  A    between atoms: _22  and  _66
REMARK    4  A    between atoms: _27  and  _30
REMARK    5  A    between atoms: _32  and  _33
REMARK    6  A    between atoms: _38  and  _43
REMARK    7  A    between atoms: _43  and  _46
REMARK    8  A    between atoms: _53  and  _55
REMARK                            x       y       z     vdW  Elec       q    Type
REMARK                         _______ _______ _______ _____ _____    ______ ____
ROOT
ATOM     10  C   UNL     1     -33.484  43.588  -3.576  0.00  0.00    +0.038 A 
ATOM     11  C   UNL     1     -33.344  43.603  -2.165  0.00  0.00    +0.047 A 
ATOM     12  C   UNL     1     -33.341  42.369  -1.396  0.00  0.00    +0.035 A 
ATOM     32  C   UNL     1     -33.480  41.136  -2.097  0.00  0.00    +0.024 A 
ATOM     33  C   UNL     1     -33.624  41.102  -3.531  0.00  0.00    +0.007 A 
ATOM     34  C   UNL     1     -33.630  42.316  -4.295  0.00  0.00    -0.029 A 
ATOM     35  C   UNL     1     -33.795  42.220  -5.829  0.00  0.00    +0.045 C 
ENDROOT
BRANCH  10   9
ATOM      4  C   UNL     1     -35.726  47.380  -5.483  0.00  0.00    +0.077 A 
ATOM      5  C   UNL     1     -37.016  46.885  -5.099  0.00  0.00    +0.048 A 
ATOM      6  C   UNL     1     -37.060  45.647  -4.418  0.00  0.00    +0.116 A 
ATOM      7  N   UNL     1     -35.894  44.964  -4.147  0.00  0.00    -0.223 NA
ATOM      8  C   UNL     1     -34.666  45.469  -4.534  0.00  0.00    +0.220 A 
ATOM      9  N   UNL     1     -33.480  44.803  -4.265  0.00  0.00    -0.283 N 
ATOM     36  H   UNL     1     -32.595  45.205  -4.574  0.00  0.00    +0.155 HD
ATOM     37  N   UNL     1     -34.597  46.648  -5.186  0.00  0.00    -0.214 NA
BRANCH   4   3
ATOM      1  C   UNL     1     -35.233  50.041  -8.307  0.00  0.00    +0.020 A 
ATOM      2  C   UNL     1     -35.437  48.767  -7.658  0.00  0.00    +0.013 A 
ATOM      3  C   UNL     1     -35.515  48.674  -6.206  0.00  0.00    +0.019 A 
ATOM     38  C   UNL     1     -35.382  49.899  -5.433  0.00  0.00    +0.120 A 
ATOM     39  N   UNL     1     -35.185  51.113  -6.085  0.00  0.00    -0.263 NA
ATOM     40  C   UNL     1     -35.107  51.214  -7.482  0.00  0.00    +0.111 A 
ENDBRANCH   4   3
ENDBRANCH  10   9
BRANCH  12  13
ATOM     13  N   UNL     1     -33.211  42.323   0.040  0.00  0.00    -0.281 N 
ATOM     14  C   UNL     1     -32.233  42.912   0.825  0.00  0.00    +0.248 C 
ATOM     30  O   UNL     1     -31.196  43.393   0.393  0.00  0.00    -0.270 OA
ATOM     31  H   UNL     1     -33.926  41.792   0.537  0.00  0.00    +0.155 HD
BRANCH  14  15
ATOM     15  C   UNL     1     -32.430  42.961   2.306  0.00  0.00    +0.037 A 
ATOM     16  C   UNL     1     -33.766  42.864   2.899  0.00  0.00    +0.013 A 
ATOM     17  C   UNL     1     -33.929  42.932   4.330  0.00  0.00    +0.005 A 
ATOM     18  C   UNL     1     -32.751  43.095   5.178  0.00  0.00    -0.033 A 
ATOM     28  C   UNL     1     -31.437  43.183   4.564  0.00  0.00    +0.005 A 
ATOM     29  C   UNL     1     -31.273  43.118   3.162  0.00  0.00    +0.013 A 
BRANCH  18  19
ATOM     19  C   UNL     1     -32.833  43.197   6.712  0.00  0.00    +0.119 C 
BRANCH  19  20
ATOM     20  N   UNL     1     -32.997  41.924   7.475  0.00  0.00    -0.302 NA
ATOM     21  C   UNL     1     -33.882  42.105   8.712  0.00  0.00    +0.066 C 
ATOM     22  C   UNL     1     -34.061  40.758   9.485  0.00  0.00    -0.064 C 
ATOM     23  N   UNL     1     -32.687  40.211   9.877  0.00  0.00    +0.379 N 
ATOM     24  C   UNL     1     -32.855  38.975  10.655  0.00  0.00    -0.096 C 
ATOM     25  H   UNL     1     -32.200  40.964  10.539  0.00  0.00    -0.082 HD
ATOM     26  C   UNL     1     -31.800  40.031   8.653  0.00  0.00    -0.064 C 
ATOM     27  C   UNL     1     -31.653  41.368   7.876  0.00  0.00    +0.066 C 
ENDBRANCH  19  20
ENDBRANCH  18  19
ENDBRANCH  14  15
ENDBRANCH  12  13
TORSDOF 6
ENDMDL
MODEL 4
REMARK VINA RESULT:      -7.1      9.316     11.449
REMARK  Name = C:\Users\Docking\Desktop\test protocol\1iep_ligandH.pdb
REMARK  8 active torsions:
REMARK  status: ('A' for Active; 'I' for Inactive)
REMARK    1  A    between atoms: _5  and  _11
REMARK    2  A    between atoms: _19  and  _21
REMARK    3  A    between atoms: _22  and  _66
REMARK    4  A    between atoms: _27  and  _30
REMARK    5  A    between atoms: _32  and  _33
REMARK    6  A    between atoms: _38  and  _43
REMARK    7  A    between atoms: _43  and  _46
REMARK    8  A    between atoms: _53  and  _55
REMARK                            x       y       z     vdW  Elec       q    Type
REMARK                         _______ _______ _______ _____ _____    ______ ____
ROOT
ATOM     10  C   UNL     1     -19.774  65.516   6.410  0.00  0.00    +0.038 A 
ATOM     11  C   UNL     1     -19.237  65.023   5.194  0.00  0.00    +0.047 A 
ATOM     12  C   UNL     1     -18.146  65.711   4.520  0.00  0.00    +0.035 A 
ATOM     32  C   UNL     1     -17.625  66.896   5.115  0.00  0.00    +0.024 A 
ATOM     33  C   UNL     1     -18.160  67.412   6.350  0.00  0.00    +0.007 A 
ATOM     34  C   UNL     1     -19.238  66.739   7.018  0.00  0.00    -0.029 A 
ATOM     35  C   UNL     1     -19.776  67.341   8.337  0.00  0.00    +0.045 C 
ENDROOT
BRANCH  10   9
ATOM      4  C   UNL     1     -24.356  64.101   6.618  0.00  0.00    +0.077 A 
ATOM      5  C   UNL     1     -24.700  64.841   5.438  0.00  0.00    +0.048 A 
ATOM      6  C   UNL     1     -23.670  65.579   4.812  0.00  0.00    +0.116 A 
ATOM      7  N   UNL     1     -22.395  65.569   5.335  0.00  0.00    -0.223 NA
ATOM      8  C   UNL     1     -22.098  64.846   6.475  0.00  0.00    +0.220 A 
ATOM      9  N   UNL     1     -20.821  64.816   7.014  0.00  0.00    -0.283 N 
ATOM     36  H   UNL     1     -20.644  64.276   7.861  0.00  0.00    +0.155 HD
ATOM     37  N   UNL     1     -23.064  64.135   7.093  0.00  0.00    -0.214 NA
BRANCH   4   3
ATOM      1  C   UNL     1     -27.269  61.660   7.544  0.00  0.00    +0.020 A 
ATOM      2  C   UNL     1     -26.350  62.444   6.752  0.00  0.00    +0.013 A 
ATOM      3  C   UNL     1     -25.334  63.271   7.390  0.00  0.00    +0.019 A 
ATOM     38  C   UNL     1     -25.273  63.282   8.844  0.00  0.00    +0.120 A 
ATOM     39  N   UNL     1     -26.173  62.518   9.581  0.00  0.00    -0.263 NA
ATOM     40  C   UNL     1     -27.156  61.720   8.978  0.00  0.00    +0.111 A 
ENDBRANCH   4   3
ENDBRANCH  10   9
BRANCH  12  13
ATOM     13  N   UNL     1     -17.566  65.262   3.278  0.00  0.00    -0.281 N 
ATOM     14  C   UNL     1     -17.741  65.798   2.013  0.00  0.00    +0.248 C 
ATOM     30  O   UNL     1     -18.599  66.619   1.724  0.00  0.00    -0.270 OA
ATOM     31  H   UNL     1     -16.950  64.451   3.340  0.00  0.00    +0.155 HD
BRANCH  14  15
ATOM     15  C   UNL     1     -16.845  65.346   0.906  0.00  0.00    +0.037 A 
ATOM     16  C   UNL     1     -15.867  64.274   1.111  0.00  0.00    +0.013 A 
ATOM     17  C   UNL     1     -15.002  63.868   0.031  0.00  0.00    +0.005 A 
ATOM     18  C   UNL     1     -15.113  64.535  -1.264  0.00  0.00    -0.033 A 
ATOM     28  C   UNL     1     -16.095  65.592  -1.441  0.00  0.00    +0.005 A 
ATOM     29  C   UNL     1     -16.943  65.993  -0.384  0.00  0.00    +0.013 A 
BRANCH  18  19
ATOM     19  C   UNL     1     -14.217  64.182  -2.466  0.00  0.00    +0.119 C 
BRANCH  19  20
ATOM     20  N   UNL     1     -14.114  62.740  -2.842  0.00  0.00    -0.302 NA
ATOM     21  C   UNL     1     -12.662  62.254  -2.866  0.00  0.00    +0.066 C 
ATOM     22  C   UNL     1     -12.576  60.739  -3.240  0.00  0.00    -0.064 C 
ATOM     23  N   UNL     1     -13.245  60.511  -4.596  0.00  0.00    +0.379 N 
ATOM     24  C   UNL     1     -13.114  59.097  -4.977  0.00  0.00    -0.096 C 
ATOM     25  H   UNL     1     -12.693  61.118  -5.351  0.00  0.00    -0.082 HD
ATOM     26  C   UNL     1     -14.688  60.994  -4.582  0.00  0.00    -0.064 C 
ATOM     27  C   UNL     1     -14.766  62.494  -4.181  0.00  0.00    +0.066 C 
ENDBRANCH  19  20
ENDBRANCH  18  19
ENDBRANCH  14  15
ENDBRANCH  12  13
TORSDOF 6
ENDMDL
MODEL 5
REMARK VINA RESULT:      -7.1     25.938     29.567
REMARK  Name = C:\Users\Docking\Desktop\test protocol\1iep_ligandH.pdb
REMARK  8 active torsions:
REMARK  status: ('A' for Active; 'I' for Inactive)
REMARK    1  A    between atoms: _5  and  _11
REMARK    2  A    between atoms: _19  and  _21
REMARK    3  A    between atoms: _22  and  _66
REMARK    4  A    between atoms: _27  and  _30
REMARK    5  A    between atoms: _32  and  _33
REMARK    6  A    between atoms: _38  and  _43
REMARK    7  A    between atoms: _43  and  _46
REMARK    8  A    between atoms: _53  and  _55
REMARK                            x       y       z     vdW  Elec       q    Type
REMARK                         _______ _______ _______ _____ _____    ______ ____
ROOT
ATOM     10  C   UNL     1     -29.306  49.748  20.074  0.00  0.00    +0.038 A 
ATOM     11  C   UNL     1     -30.047  50.478  19.110  0.00  0.00    +0.047 A 
ATOM     12  C   UNL     1     -31.500  50.521  19.152  0.00  0.00    +0.035 A 
ATOM     32  C   UNL     1     -32.167  49.811  20.193  0.00  0.00    +0.024 A 
ATOM     33  C   UNL     1     -31.430  49.063  21.180  0.00  0.00    +0.007 A 
ATOM     34  C   UNL     1     -29.996  49.014  21.142  0.00  0.00    -0.029 A 
ATOM     35  C   UNL     1     -29.257  48.190  22.223  0.00  0.00    +0.045 C 
ENDROOT
BRANCH  10   9
ATOM      4  C   UNL     1     -24.971  51.303  21.425  0.00  0.00    +0.077 A 
ATOM      5  C   UNL     1     -25.531  52.228  22.368  0.00  0.00    +0.048 A 
ATOM      6  C   UNL     1     -26.940  52.277  22.469  0.00  0.00    +0.116 A 
ATOM      7  N   UNL     1     -27.720  51.458  21.682  0.00  0.00    -0.223 NA
ATOM      8  C   UNL     1     -27.147  50.579  20.781  0.00  0.00    +0.220 A 
ATOM      9  N   UNL     1     -27.912  49.740  19.985  0.00  0.00    -0.283 N 
ATOM     36  H   UNL     1     -27.452  49.111  19.328  0.00  0.00    +0.155 HD
ATOM     37  N   UNL     1     -25.804  50.514  20.665  0.00  0.00    -0.214 NA
BRANCH   4   3
ATOM      1  C   UNL     1     -21.515  49.975  20.164  0.00  0.00    +0.020 A 
ATOM      2  C   UNL     1     -22.943  50.097  20.343  0.00  0.00    +0.013 A 
ATOM      3  C   UNL     1     -23.500  51.132  21.204  0.00  0.00    +0.019 A 
ATOM     38  C   UNL     1     -22.577  52.036  21.875  0.00  0.00    +0.120 A 
ATOM     39  N   UNL     1     -21.206  51.893  21.684  0.00  0.00    -0.263 NA
ATOM     40  C   UNL     1     -20.658  50.899  20.859  0.00  0.00    +0.111 A 
ENDBRANCH   4   3
ENDBRANCH  10   9
BRANCH  12  13
ATOM     13  N   UNL     1     -32.306  51.240  18.196  0.00  0.00    -0.281 N 
ATOM     14  C   UNL     1     -33.543  50.881  17.685  0.00  0.00    +0.248 C 
ATOM     30  O   UNL     1     -34.050  49.777  17.813  0.00  0.00    -0.270 OA
ATOM     31  H   UNL     1     -31.917  52.119  17.855  0.00  0.00    +0.155 HD
BRANCH  14  15
ATOM     15  C   UNL     1     -34.323  51.892  16.908  0.00  0.00    +0.037 A 
ATOM     16  C   UNL     1     -34.048  53.325  17.034  0.00  0.00    +0.013 A 
ATOM     17  C   UNL     1     -34.826  54.280  16.285  0.00  0.00    +0.005 A 
ATOM     18  C   UNL     1     -35.888  53.803  15.402  0.00  0.00    -0.033 A 
ATOM     28  C   UNL     1     -36.136  52.375  15.292  0.00  0.00    +0.005 A 
ATOM     29  C   UNL     1     -35.375  51.436  16.025  0.00  0.00    +0.013 A 
BRANCH  18  19
ATOM     19  C   UNL     1     -36.782  54.750  14.582  0.00  0.00    +0.119 C 
BRANCH  19  20
ATOM     20  N   UNL     1     -38.093  55.143  15.181  0.00  0.00    -0.302 NA
ATOM     21  C   UNL     1     -39.261  54.887  14.224  0.00  0.00    +0.066 C 
ATOM     22  C   UNL     1     -40.627  55.282  14.875  0.00  0.00    -0.064 C 
ATOM     23  N   UNL     1     -40.582  56.752  15.295  0.00  0.00    +0.379 N 
ATOM     24  C   UNL     1     -41.885  57.142  15.854  0.00  0.00    -0.096 C 
ATOM     25  H   UNL     1     -40.412  57.361  14.377  0.00  0.00    -0.082 HD
ATOM     26  C   UNL     1     -39.422  57.015  16.244  0.00  0.00    -0.064 C 
ATOM     27  C   UNL     1     -38.073  56.592  15.599  0.00  0.00    +0.066 C 
ENDBRANCH  19  20
ENDBRANCH  18  19
ENDBRANCH  14  15
ENDBRANCH  12  13
TORSDOF 6
ENDMDL
