MODEL 1
REMARK VINA RESULT:      -8.1      0.000      0.000
REMARK  Name = C:\Users\Docking\Desktop\test protocol\1iep_ligandH.pdb
REMARK  8 active torsions:
REMARK  status: ('A' for Active; 'I' for Inactive)
REMARK    1  A    between atoms: _5  and  _11
REMARK    2  A    between atoms: _19  and  _21
REMARK    3  A    between atoms: _22  and  _66
REMARK    4  A    between atoms: _27  and  _30
REMARK    5  A    between atoms: _32  and  _33
REMARK    6  A    between atoms: _38  and  _43
REMARK    7  A    between atoms: _43  and  _46
REMARK    8  A    between atoms: _53  and  _55
REMARK                            x       y       z     vdW  Elec       q    Type
REMARK                         _______ _______ _______ _____ _____    ______ ____
ROOT
ATOM     10  C   UNL     1      -7.915  14.822  -5.159  0.00  0.00    +0.038 A 
ATOM     11  C   UNL     1      -6.974  14.892  -6.218  0.00  0.00    +0.047 A 
ATOM     12  C   UNL     1      -7.125  15.857  -7.296  0.00  0.00    +0.035 A 
ATOM     32  C   UNL     1      -8.246  16.737  -7.263  0.00  0.00    +0.024 A 
ATOM     33  C   UNL     1      -9.213  16.678  -6.196  0.00  0.00    +0.007 A 
ATOM     34  C   UNL     1      -9.070  15.727  -5.131  0.00  0.00    -0.029 A 
ATOM     35  C   UNL     1     -10.141  15.705  -4.015  0.00  0.00    +0.045 C 
ENDROOT
BRANCH  10   9
ATOM      4  C   UNL     1      -8.883  10.618  -3.055  0.00  0.00    +0.077 A 
ATOM      5  C   UNL     1      -9.878  10.289  -4.034  0.00  0.00    +0.048 A 
ATOM      6  C   UNL     1     -10.116  11.232  -5.060  0.00  0.00    +0.116 A 
ATOM      7  N   UNL     1      -9.405  12.412  -5.093  0.00  0.00    -0.223 NA
ATOM      8  C   UNL     1      -8.454  12.699  -4.131  0.00  0.00    +0.220 A 
ATOM      9  N   UNL     1      -7.722  13.876  -4.150  0.00  0.00    -0.283 N 
ATOM     36  H   UNL     1      -7.034  14.054  -3.418  0.00  0.00    +0.155 HD
ATOM     37  N   UNL     1      -8.209  11.816  -3.141  0.00  0.00    -0.214 NA
BRANCH   4   3
ATOM      1  C   UNL     1      -7.297   7.750  -0.920  0.00  0.00    +0.020 A 
ATOM      2  C   UNL     1      -7.620   8.583  -2.055  0.00  0.00    +0.013 A 
ATOM      3  C   UNL     1      -8.516   9.723  -1.912  0.00  0.00    +0.019 A 
ATOM     38  C   UNL     1      -9.073   9.996  -0.596  0.00  0.00    +0.120 A 
ATOM     39  N   UNL     1      -8.745   9.175   0.479  0.00  0.00    -0.263 NA
ATOM     40  C   UNL     1      -7.885   8.074   0.353  0.00  0.00    +0.111 A 
ENDBRANCH   4   3
ENDBRANCH  10   9
BRANCH  12  13
ATOM     13  N   UNL     1      -6.206  15.969  -8.401  0.00  0.00    -0.281 N 
ATOM     14  C   UNL     1      -4.832  16.144  -8.352  0.00  0.00    +0.248 C 
ATOM     30  O   UNL     1      -4.209  16.445  -7.345  0.00  0.00    -0.270 OA
ATOM     31  H   UNL     1      -6.617  15.913  -9.333  0.00  0.00    +0.155 HD
BRANCH  14  15
ATOM     15  C   UNL     1      -4.038  15.973  -9.607  0.00  0.00    +0.037 A 
ATOM     16  C   UNL     1      -4.366  16.722 -10.822  0.00  0.00    +0.013 A 
ATOM     17  C   UNL     1      -3.594  16.525 -12.024  0.00  0.00    +0.005 A 
ATOM     18  C   UNL     1      -2.483  15.576 -12.014  0.00  0.00    -0.033 A 
ATOM     28  C   UNL     1      -2.176  14.850 -10.792  0.00  0.00    +0.005 A 
ATOM     29  C   UNL     1      -2.931  15.039  -9.614  0.00  0.00    +0.013 A 
BRANCH  18  19
ATOM     19  C   UNL     1      -1.619  15.287 -13.255  0.00  0.00    +0.119 C 
BRANCH  19  20
ATOM     20  N   UNL     1      -2.025  14.139 -14.119  0.00  0.00    -0.302 NA
ATOM     21  C   UNL     1      -1.162  12.899 -13.869  0.00  0.00    +0.066 C 
ATOM     22  C   UNL     1      -1.614  11.700 -14.765  0.00  0.00    -0.064 C 
ATOM     23  N   UNL     1      -1.553  12.115 -16.236  0.00  0.00    +0.379 N 
ATOM     24  C   UNL     1      -1.923  10.972 -17.084  0.00  0.00    -0.096 C 
ATOM     25  H   UNL     1      -0.496  12.381 -16.469  0.00  0.00    -0.082 HD
ATOM     26  C   UNL     1      -2.407  13.349 -16.493  0.00  0.00    -0.064 C 
ATOM     27  C   UNL     1      -1.968  14.525 -15.577  0.00  0.00    +0.066 C 
ENDBRANCH  19  20
ENDBRANCH  18  19
ENDBRANCH  14  15
ENDBRANCH  12  13
TORSDOF 6
ENDMDL
MODEL 2
REMARK VINA RESULT:      -7.9      5.625     10.541
REMARK  Name = C:\Users\Docking\Desktop\test protocol\1iep_ligandH.pdb
REMARK  8 active torsions:
REMARK  status: ('A' for Active; 'I' for Inactive)
REMARK    1  A    between atoms: _5  and  _11
REMARK    2  A    between atoms: _19  and  _21
REMARK    3  A    between atoms: _22  and  _66
REMARK    4  A    between atoms: _27  and  _30
REMARK    5  A    between atoms: _32  and  _33
REMARK    6  A    between atoms: _38  and  _43
REMARK    7  A    between atoms: _43  and  _46
REMARK    8  A    between atoms: _53  and  _55
REMARK                            x       y       z     vdW  Elec       q    Type
REMARK                         _______ _______ _______ _____ _____    ______ ____
ROOT
ATOM     10  C   UNL     1      -6.057   6.528  -0.751  0.00  0.00    +0.038 A 
ATOM     11  C   UNL     1      -6.355   7.694  -1.502  0.00  0.00    +0.047 A 
ATOM     12  C   UNL     1      -7.582   8.441  -1.276  0.00  0.00    +0.035 A 
ATOM     32  C   UNL     1      -8.483   7.974  -0.274  0.00  0.00    +0.024 A 
ATOM     33  C   UNL     1      -8.196   6.790   0.497  0.00  0.00    +0.007 A 
ATOM     34  C   UNL     1      -6.988   6.047   0.277  0.00  0.00    -0.029 A 
ATOM     35  C   UNL     1      -6.735   4.782   1.129  0.00  0.00    +0.045 C 
ENDROOT
BRANCH  10   9
ATOM      4  C   UNL     1      -3.529   3.112  -2.983  0.00  0.00    +0.077 A 
ATOM      5  C   UNL     1      -4.688   2.621  -3.671  0.00  0.00    +0.048 A 
ATOM      6  C   UNL     1      -5.917   3.271  -3.417  0.00  0.00    +0.116 A 
ATOM      7  N   UNL     1      -5.971   4.332  -2.540  0.00  0.00    -0.223 NA
ATOM      8  C   UNL     1      -4.834   4.779  -1.891  0.00  0.00    +0.220 A 
ATOM      9  N   UNL     1      -4.864   5.849  -1.010  0.00  0.00    -0.283 N 
ATOM     36  H   UNL     1      -4.005   6.144  -0.546  0.00  0.00    +0.155 HD
ATOM     37  N   UNL     1      -3.649   4.175  -2.115  0.00  0.00    -0.214 NA
BRANCH   4   3
ATOM      1  C   UNL     1      -0.247   1.679  -4.556  0.00  0.00    +0.020 A 
ATOM      2  C   UNL     1      -1.575   2.238  -4.451  0.00  0.00    +0.013 A 
ATOM      3  C   UNL     1      -2.158   2.533  -3.148  0.00  0.00    +0.019 A 
ATOM     38  C   UNL     1      -1.365   2.250  -1.962  0.00  0.00    +0.120 A 
ATOM     39  N   UNL     1      -0.089   1.710  -2.094  0.00  0.00    -0.263 NA
ATOM     40  C   UNL     1       0.482   1.420  -3.342  0.00  0.00    +0.111 A 
ENDBRANCH   4   3
ENDBRANCH  10   9
BRANCH  12  13
ATOM     13  N   UNL     1      -7.943   9.627  -2.012  0.00  0.00    -0.281 N 
ATOM     14  C   UNL     1      -8.952   9.774  -2.949  0.00  0.00    +0.248 C 
ATOM     30  O   UNL     1      -9.566   8.846  -3.455  0.00  0.00    -0.270 OA
ATOM     31  H   UNL     1      -7.385  10.459  -1.820  0.00  0.00    +0.155 HD
BRANCH  14  15
ATOM     15  C   UNL     1      -9.325  11.149  -3.400  0.00  0.00    +0.037 A 
ATOM     16  C   UNL     1      -9.406  12.264  -2.452  0.00  0.00    +0.013 A 
ATOM     17  C   UNL     1      -9.784  13.577  -2.910  0.00  0.00    +0.005 A 
ATOM     18  C   UNL     1     -10.083  13.783  -4.325  0.00  0.00    -0.033 A 
ATOM     28  C   UNL     1      -9.990  12.661  -5.245  0.00  0.00    +0.005 A 
ATOM     29  C   UNL     1      -9.621  11.372  -4.799  0.00  0.00    +0.013 A 
BRANCH  18  19
ATOM     19  C   UNL     1     -10.516  15.145  -4.899  0.00  0.00    +0.119 C 
BRANCH  19  20
ATOM     20  N   UNL     1      -9.435  16.062  -5.372  0.00  0.00    -0.302 NA
ATOM     21  C   UNL     1      -9.235  15.978  -6.888  0.00  0.00    +0.066 C 
ATOM     22  C   UNL     1      -8.117  16.959  -7.369  0.00  0.00    -0.064 C 
ATOM     23  N   UNL     1      -6.814  16.644  -6.632  0.00  0.00    +0.379 N 
ATOM     24  C   UNL     1      -5.746  17.527  -7.124  0.00  0.00    -0.096 C 
ATOM     25  H   UNL     1      -6.529  15.596  -6.883  0.00  0.00    -0.082 HD
ATOM     26  C   UNL     1      -7.005  16.723  -5.124  0.00  0.00    -0.064 C 
ATOM     27  C   UNL     1      -8.138  15.765  -4.660  0.00  0.00    +0.066 C 
ENDBRANCH  19  20
ENDBRANCH  18  19
ENDBRANCH  14  15
ENDBRANCH  12  13
TORSDOF 6
ENDMDL
MODEL 3
REMARK VINA RESULT:      -7.9      6.845     11.133
REMARK  Name = C:\Users\Docking\Desktop\test protocol\1iep_ligandH.pdb
REMARK  8 active torsions:
REMARK  status: ('A' for Active; 'I' for Inactive)
REMARK    1  A    between atoms: _5  and  _11
REMARK    2  A    between atoms: _19  and  _21
REMARK    3  A    between atoms: _22  and  _66
REMARK    4  A    between atoms: _27  and  _30
REMARK    5  A    between atoms: _32  and  _33
REMARK    6  A    between atoms: _38  and  _43
REMARK    7  A    between atoms: _43  and  _46
REMARK    8  A    between atoms: _53  and  _55
REMARK                            x       y       z     vdW  Elec       q    Type
REMARK                         _______ _______ _______ _____ _____    ______ ____
ROOT
ATOM     10  C   UNL     1      -8.334  13.748  -4.688  0.00  0.00    +0.038 A 
ATOM     11  C   UNL     1      -7.752  12.545  -4.215  0.00  0.00    +0.047 A 
ATOM     12  C   UNL     1      -8.550  11.341  -4.040  0.00  0.00    +0.035 A 
ATOM     32  C   UNL     1      -9.937  11.398  -4.361  0.00  0.00    +0.024 A 
ATOM     33  C   UNL     1     -10.545  12.613  -4.843  0.00  0.00    +0.007 A 
ATOM     34  C   UNL     1      -9.764  13.804  -5.014  0.00  0.00    -0.029 A 
ATOM     35  C   UNL     1     -10.470  15.081  -5.527  0.00  0.00    +0.045 C 
ENDROOT
BRANCH  10   9
ATOM      4  C   UNL     1      -6.126  17.635  -2.940  0.00  0.00    +0.077 A 
ATOM      5  C   UNL     1      -6.658  17.418  -1.625  0.00  0.00    +0.048 A 
ATOM      6  C   UNL     1      -7.501  16.300  -1.442  0.00  0.00    +0.116 A 
ATOM      7  N   UNL     1      -7.785  15.466  -2.503  0.00  0.00    -0.223 NA
ATOM      8  C   UNL     1      -7.256  15.704  -3.758  0.00  0.00    +0.220 A 
ATOM      9  N   UNL     1      -7.521  14.875  -4.837  0.00  0.00    -0.283 N 
ATOM     36  H   UNL     1      -7.118  15.089  -5.748  0.00  0.00    +0.155 HD
ATOM     37  N   UNL     1      -6.449  16.767  -3.958  0.00  0.00    -0.214 NA
BRANCH   4   3
ATOM      1  C   UNL     1      -3.634  20.639  -2.680  0.00  0.00    +0.020 A 
ATOM      2  C   UNL     1      -4.500  19.551  -2.288  0.00  0.00    +0.013 A 
ATOM      3  C   UNL     1      -5.217  18.772  -3.290  0.00  0.00    +0.019 A 
ATOM     38  C   UNL     1      -5.033  19.121  -4.690  0.00  0.00    +0.120 A 
ATOM     39  N   UNL     1      -4.193  20.175  -5.037  0.00  0.00    -0.263 NA
ATOM     40  C   UNL     1      -3.500  20.933  -4.082  0.00  0.00    +0.111 A 
ENDBRANCH   4   3
ENDBRANCH  10   9
BRANCH  12  13
ATOM     13  N   UNL     1      -8.015  10.092  -3.556  0.00  0.00    -0.281 N 
ATOM     14  C   UNL     1      -7.676   9.759  -2.255  0.00  0.00    +0.248 C 
ATOM     30  O   UNL     1      -7.579  10.562  -1.338  0.00  0.00    -0.270 OA
ATOM     31  H   UNL     1      -7.870   9.366  -4.257  0.00  0.00    +0.155 HD
BRANCH  14  15
ATOM     15  C   UNL     1      -7.388   8.330  -1.927  0.00  0.00    +0.037 A 
ATOM     16  C   UNL     1      -8.468   7.352  -1.775  0.00  0.00    +0.013 A 
ATOM     17  C   UNL     1      -8.164   5.983  -1.442  0.00  0.00    +0.005 A 
ATOM     18  C   UNL     1      -6.770   5.584  -1.260  0.00  0.00    -0.033 A 
ATOM     28  C   UNL     1      -5.717   6.573  -1.422  0.00  0.00    +0.005 A 
ATOM     29  C   UNL     1      -6.012   7.916  -1.748  0.00  0.00    +0.013 A 
BRANCH  18  19
ATOM     19  C   UNL     1      -6.354   4.150  -0.883  0.00  0.00    +0.119 C 
BRANCH  19  20
ATOM     20  N   UNL     1      -5.616   3.359  -1.913  0.00  0.00    -0.302 NA
ATOM     21  C   UNL     1      -4.132   3.734  -1.970  0.00  0.00    +0.066 C 
ATOM     22  C   UNL     1      -3.370   2.881  -3.037  0.00  0.00    -0.064 C 
ATOM     23  N   UNL     1      -4.031   3.071  -4.404  0.00  0.00    +0.379 N 
ATOM     24  C   UNL     1      -3.282   2.317  -5.419  0.00  0.00    -0.096 C 
ATOM     25  H   UNL     1      -3.961   4.152  -4.665  0.00  0.00    -0.082 HD
ATOM     26  C   UNL     1      -5.507   2.703  -4.354  0.00  0.00    -0.064 C 
ATOM     27  C   UNL     1      -6.248   3.535  -3.271  0.00  0.00    +0.066 C 
ENDBRANCH  19  20
ENDBRANCH  18  19
ENDBRANCH  14  15
ENDBRANCH  12  13
TORSDOF 6
ENDMDL
MODEL 4
REMARK VINA RESULT:      -7.8      8.210     16.139
REMARK  Name = C:\Users\Docking\Desktop\test protocol\1iep_ligandH.pdb
REMARK  8 active torsions:
REMARK  status: ('A' for Active; 'I' for Inactive)
REMARK    1  A    between atoms: _5  and  _11
REMARK    2  A    between atoms: _19  and  _21
REMARK    3  A    between atoms: _22  and  _66
REMARK    4  A    between atoms: _27  and  _30
REMARK    5  A    between atoms: _32  and  _33
REMARK    6  A    between atoms: _38  and  _43
REMARK    7  A    between atoms: _43  and  _46
REMARK    8  A    between atoms: _53  and  _55
REMARK                            x       y       z     vdW  Elec       q    Type
REMARK                         _______ _______ _______ _____ _____    ______ ____
ROOT
ATOM     10  C   UNL     1     -10.118  14.154  -1.318  0.00  0.00    +0.038 A 
ATOM     11  C   UNL     1     -10.909  15.083  -0.596  0.00  0.00    +0.047 A 
ATOM     12  C   UNL     1     -12.026  14.642   0.226  0.00  0.00    +0.035 A 
ATOM     32  C   UNL     1     -12.306  13.246   0.291  0.00  0.00    +0.024 A 
ATOM     33  C   UNL     1     -11.513  12.288  -0.437  0.00  0.00    +0.007 A 
ATOM     34  C   UNL     1     -10.412  12.717  -1.252  0.00  0.00    -0.029 A 
ATOM     35  C   UNL     1      -9.600  11.646  -2.016  0.00  0.00    +0.045 C 
ENDROOT
BRANCH  10   9
ATOM      4  C   UNL     1      -8.317  15.916  -5.403  0.00  0.00    +0.077 A 
ATOM      5  C   UNL     1      -9.591  15.853  -6.061  0.00  0.00    +0.048 A 
ATOM      6  C   UNL     1     -10.682  15.354  -5.315  0.00  0.00    +0.116 A 
ATOM      7  N   UNL     1     -10.502  14.952  -4.010  0.00  0.00    -0.223 NA
ATOM      8  C   UNL     1      -9.260  15.024  -3.406  0.00  0.00    +0.220 A 
ATOM      9  N   UNL     1      -9.058  14.632  -2.092  0.00  0.00    -0.283 N 
ATOM     36  H   UNL     1      -8.125  14.695  -1.685  0.00  0.00    +0.155 HD
ATOM     37  N   UNL     1      -8.202  15.496  -4.097  0.00  0.00    -0.214 NA
BRANCH   4   3
ATOM      1  C   UNL     1      -5.169  16.222  -7.704  0.00  0.00    +0.020 A 
ATOM      2  C   UNL     1      -6.370  15.688  -7.104  0.00  0.00    +0.013 A 
ATOM      3  C   UNL     1      -7.070  16.423  -6.058  0.00  0.00    +0.019 A 
ATOM     38  C   UNL     1      -6.525  17.705  -5.639  0.00  0.00    +0.120 A 
ATOM     39  N   UNL     1      -5.366  18.194  -6.234  0.00  0.00    -0.263 NA
ATOM     40  C   UNL     1      -4.682  17.495  -7.240  0.00  0.00    +0.111 A 
ENDBRANCH   4   3
ENDBRANCH  10   9
BRANCH  12  13
ATOM     13  N   UNL     1     -12.869  15.540   0.976  0.00  0.00    -0.281 N 
ATOM     14  C   UNL     1     -12.564  16.218   2.145  0.00  0.00    +0.248 C 
ATOM     30  O   UNL     1     -11.588  15.987   2.843  0.00  0.00    -0.270 OA
ATOM     31  H   UNL     1     -13.804  15.695   0.598  0.00  0.00    +0.155 HD
BRANCH  14  15
ATOM     15  C   UNL     1     -13.485  17.298   2.614  0.00  0.00    +0.037 A 
ATOM     16  C   UNL     1     -13.595  18.569   1.892  0.00  0.00    +0.013 A 
ATOM     17  C   UNL     1     -14.478  19.601   2.376  0.00  0.00    +0.005 A 
ATOM     18  C   UNL     1     -15.259  19.365   3.588  0.00  0.00    -0.033 A 
ATOM     28  C   UNL     1     -15.134  18.094   4.281  0.00  0.00    +0.005 A 
ATOM     29  C   UNL     1     -14.269  17.080   3.810  0.00  0.00    +0.013 A 
BRANCH  18  19
ATOM     19  C   UNL     1     -16.210  20.418   4.187  0.00  0.00    +0.119 C 
BRANCH  19  20
ATOM     20  N   UNL     1     -15.727  21.174   5.381  0.00  0.00    -0.302 NA
ATOM     21  C   UNL     1     -16.491  20.791   6.652  0.00  0.00    +0.066 C 
ATOM     22  C   UNL     1     -15.958  21.575   7.895  0.00  0.00    -0.064 C 
ATOM     23  N   UNL     1     -16.065  23.078   7.631  0.00  0.00    +0.379 N 
ATOM     24  C   UNL     1     -15.619  23.818   8.820  0.00  0.00    -0.096 C 
ATOM     25  H   UNL     1     -17.142  23.316   7.468  0.00  0.00    -0.082 HD
ATOM     26  C   UNL     1     -15.311  23.467   6.367  0.00  0.00    -0.064 C 
ATOM     27  C   UNL     1     -15.828  22.661   5.144  0.00  0.00    +0.066 C 
ENDBRANCH  19  20
ENDBRANCH  18  19
ENDBRANCH  14  15
ENDBRANCH  12  13
TORSDOF 6
ENDMDL
MODEL 5
REMARK VINA RESULT:      -7.8      6.227     10.141
REMARK  Name = C:\Users\Docking\Desktop\test protocol\1iep_ligandH.pdb
REMARK  8 active torsions:
REMARK  status: ('A' for Active; 'I' for Inactive)
REMARK    1  A    between atoms: _5  and  _11
REMARK    2  A    between atoms: _19  and  _21
REMARK    3  A    between atoms: _22  and  _66
REMARK    4  A    between atoms: _27  and  _30
REMARK    5  A    between atoms: _32  and  _33
REMARK    6  A    between atoms: _38  and  _43
REMARK    7  A    between atoms: _43  and  _46
REMARK    8  A    between atoms: _53  and  _55
REMARK                            x       y       z     vdW  Elec       q    Type
REMARK                         _______ _______ _______ _____ _____    ______ ____
ROOT
ATOM     10  C   UNL     1      -8.344   6.819   0.093  0.00  0.00    +0.038 A 
ATOM     11  C   UNL     1      -8.582   7.950  -0.728  0.00  0.00    +0.047 A 
ATOM     12  C   UNL     1      -7.603   8.385  -1.712  0.00  0.00    +0.035 A 
ATOM     32  C   UNL     1      -6.392   7.643  -1.835  0.00  0.00    +0.024 A 
ATOM     33  C   UNL     1      -6.133   6.491  -1.007  0.00  0.00    +0.007 A 
ATOM     34  C   UNL     1      -7.094   6.059  -0.033  0.00  0.00    -0.029 A 
ATOM     35  C   UNL     1      -6.761   4.821   0.832  0.00  0.00    +0.045 C 
ENDROOT
BRANCH  10   9
ATOM      4  C   UNL     1     -12.398   4.547   1.290  0.00  0.00    +0.077 A 
ATOM      5  C   UNL     1     -12.607   4.087  -0.052  0.00  0.00    +0.048 A 
ATOM      6  C   UNL     1     -11.651   4.463  -1.023  0.00  0.00    +0.116 A 
ATOM      7  N   UNL     1     -10.571   5.241  -0.666  0.00  0.00    -0.223 NA
ATOM      8  C   UNL     1     -10.401   5.669   0.638  0.00  0.00    +0.220 A 
ATOM      9  N   UNL     1      -9.318   6.445   1.021  0.00  0.00    -0.283 N 
ATOM     36  H   UNL     1      -9.232   6.747   1.991  0.00  0.00    +0.155 HD
ATOM     37  N   UNL     1     -11.300   5.325   1.583  0.00  0.00    -0.214 NA
BRANCH   4   3
ATOM      1  C   UNL     1     -15.613   3.903   3.424  0.00  0.00    +0.020 A 
ATOM      2  C   UNL     1     -14.770   4.216   2.293  0.00  0.00    +0.013 A 
ATOM      3  C   UNL     1     -13.318   4.230   2.428  0.00  0.00    +0.019 A 
ATOM     38  C   UNL     1     -12.748   3.920   3.731  0.00  0.00    +0.120 A 
ATOM     39  N   UNL     1     -13.586   3.624   4.802  0.00  0.00    -0.263 NA
ATOM     40  C   UNL     1     -14.984   3.609   4.684  0.00  0.00    +0.111 A 
ENDBRANCH   4   3
ENDBRANCH  10   9
BRANCH  12  13
ATOM     13  N   UNL     1      -7.786   9.531  -2.569  0.00  0.00    -0.281 N 
ATOM     14  C   UNL     1      -8.846   9.797  -3.420  0.00  0.00    +0.248 C 
ATOM     30  O   UNL     1      -9.700   8.982  -3.736  0.00  0.00    -0.270 OA
ATOM     31  H   UNL     1      -7.044  10.230  -2.544  0.00  0.00    +0.155 HD
BRANCH  14  15
ATOM     15  C   UNL     1      -8.966  11.161  -4.019  0.00  0.00    +0.037 A 
ATOM     16  C   UNL     1     -10.271  11.721  -4.379  0.00  0.00    +0.013 A 
ATOM     17  C   UNL     1     -10.358  13.032  -4.971  0.00  0.00    +0.005 A 
ATOM     18  C   UNL     1      -9.133  13.794  -5.206  0.00  0.00    -0.033 A 
ATOM     28  C   UNL     1      -7.852  13.216  -4.835  0.00  0.00    +0.005 A 
ATOM     29  C   UNL     1      -7.763  11.931  -4.255  0.00  0.00    +0.013 A 
BRANCH  18  19
ATOM     19  C   UNL     1      -9.129  15.192  -5.852  0.00  0.00    +0.119 C 
BRANCH  19  20
ATOM     20  N   UNL     1      -7.952  16.069  -5.576  0.00  0.00    -0.302 NA
ATOM     21  C   UNL     1      -8.101  16.833  -4.258  0.00  0.00    +0.066 C 
ATOM     22  C   UNL     1      -6.851  17.728  -3.974  0.00  0.00    -0.064 C 
ATOM     23  N   UNL     1      -6.646  18.696  -5.140  0.00  0.00    +0.379 N 
ATOM     24  C   UNL     1      -5.506  19.578  -4.851  0.00  0.00    -0.096 C 
ATOM     25  H   UNL     1      -7.557  19.334  -5.215  0.00  0.00    -0.082 HD
ATOM     26  C   UNL     1      -6.499  17.945  -6.456  0.00  0.00    -0.064 C 
ATOM     27  C   UNL     1      -7.733  17.036  -6.714  0.00  0.00    +0.066 C 
ENDBRANCH  19  20
ENDBRANCH  18  19
ENDBRANCH  14  15
ENDBRANCH  12  13
TORSDOF 6
ENDMDL
