MODEL 1
REMARK VINA RESULT:      -8.3      0.000      0.000
REMARK  Name = C:\Users\Docking\Desktop\test protocol\1iep_ligandH.pdb
REMARK  8 active torsions:
REMARK  status: ('A' for Active; 'I' for Inactive)
REMARK    1  A    between atoms: _5  and  _11
REMARK    2  A    between atoms: _19  and  _21
REMARK    3  A    between atoms: _22  and  _66
REMARK    4  A    between atoms: _27  and  _30
REMARK    5  A    between atoms: _32  and  _33
REMARK    6  A    between atoms: _38  and  _43
REMARK    7  A    between atoms: _43  and  _46
REMARK    8  A    between atoms: _53  and  _55
REMARK                            x       y       z     vdW  Elec       q    Type
REMARK                         _______ _______ _______ _____ _____    ______ ____
ROOT
ATOM     10  C   UNL     1       9.661 -22.873  -2.478  0.00  0.00    +0.038 A 
ATOM     11  C   UNL     1       9.477 -21.736  -1.651  0.00  0.00    +0.047 A 
ATOM     12  C   UNL     1       9.001 -20.476  -2.199  0.00  0.00    +0.035 A 
ATOM     32  C   UNL     1       8.718 -20.410  -3.595  0.00  0.00    +0.024 A 
ATOM     33  C   UNL     1       8.900 -21.556  -4.450  0.00  0.00    +0.007 A 
ATOM     34  C   UNL     1       9.372 -22.801  -3.915  0.00  0.00    -0.029 A 
ATOM     35  C   UNL     1       9.555 -23.996  -4.880  0.00  0.00    +0.045 C 
ENDROOT
BRANCH  10   9
ATOM      4  C   UNL     1      13.159 -25.976  -1.394  0.00  0.00    +0.077 A 
ATOM      5  C   UNL     1      14.150 -25.183  -2.063  0.00  0.00    +0.048 A 
ATOM      6  C   UNL     1      13.717 -23.987  -2.679  0.00  0.00    +0.116 A 
ATOM      7  N   UNL     1      12.390 -23.622  -2.624  0.00  0.00    -0.223 NA
ATOM      8  C   UNL     1      11.459 -24.410  -1.973  0.00  0.00    +0.220 A 
ATOM      9  N   UNL     1      10.120 -24.058  -1.898  0.00  0.00    -0.283 N 
ATOM     36  H   UNL     1       9.464 -24.671  -1.415  0.00  0.00    +0.155 HD
ATOM     37  N   UNL     1      11.847 -25.557  -1.378  0.00  0.00    -0.214 NA
BRANCH   4   3
ATOM      1  C   UNL     1      14.605 -29.507  -0.532  0.00  0.00    +0.020 A 
ATOM      2  C   UNL     1      14.346 -28.280  -1.250  0.00  0.00    +0.013 A 
ATOM      3  C   UNL     1      13.461 -27.264  -0.694  0.00  0.00    +0.019 A 
ATOM     38  C   UNL     1      12.851 -27.522   0.602  0.00  0.00    +0.120 A 
ATOM     39  N   UNL     1      13.118 -28.713   1.270  0.00  0.00    -0.263 NA
ATOM     40  C   UNL     1      13.966 -29.699   0.743  0.00  0.00    +0.111 A 
ENDBRANCH   4   3
ENDBRANCH  10   9
BRANCH  12  13
ATOM     13  N   UNL     1       8.803 -19.285  -1.410  0.00  0.00    -0.281 N 
ATOM     14  C   UNL     1       7.605 -18.727  -0.996  0.00  0.00    +0.248 C 
ATOM     30  O   UNL     1       6.507 -19.050  -1.425  0.00  0.00    -0.270 OA
ATOM     31  H   UNL     1       9.650 -18.794  -1.121  0.00  0.00    +0.155 HD
BRANCH  14  15
ATOM     15  C   UNL     1       7.631 -17.642   0.031  0.00  0.00    +0.037 A 
ATOM     16  C   UNL     1       8.828 -16.826   0.245  0.00  0.00    +0.013 A 
ATOM     17  C   UNL     1       8.832 -15.797   1.255  0.00  0.00    +0.005 A 
ATOM     18  C   UNL     1       7.631 -15.578   2.058  0.00  0.00    -0.033 A 
ATOM     28  C   UNL     1       6.455 -16.399   1.822  0.00  0.00    +0.005 A 
ATOM     29  C   UNL     1       6.449 -17.408   0.833  0.00  0.00    +0.013 A 
BRANCH  18  19
ATOM     19  C   UNL     1       7.552 -14.517   3.172  0.00  0.00    +0.119 C 
BRANCH  19  20
ATOM     20  N   UNL     1       6.444 -13.520   3.089  0.00  0.00    -0.302 NA
ATOM     21  C   UNL     1       6.433 -12.783   1.746  0.00  0.00    +0.066 C 
ATOM     22  C   UNL     1       5.254 -11.760   1.668  0.00  0.00    -0.064 C 
ATOM     23  N   UNL     1       5.364 -10.769   2.828  0.00  0.00    +0.379 N 
ATOM     24  C   UNL     1       4.290  -9.771   2.724  0.00  0.00    -0.096 C 
ATOM     25  H   UNL     1       6.336 -10.233   2.724  0.00  0.00    -0.082 HD
ATOM     26  C   UNL     1       5.378 -11.493   4.167  0.00  0.00    -0.064 C 
ATOM     27  C   UNL     1       6.536 -12.529   4.223  0.00  0.00    +0.066 C 
ENDBRANCH  19  20
ENDBRANCH  18  19
ENDBRANCH  14  15
ENDBRANCH  12  13
TORSDOF 6
ENDMDL
MODEL 2
REMARK VINA RESULT:      -8.1      9.387     14.757
REMARK  Name = C:\Users\Docking\Desktop\test protocol\1iep_ligandH.pdb
REMARK  8 active torsions:
REMARK  status: ('A' for Active; 'I' for Inactive)
REMARK    1  A    between atoms: _5  and  _11
REMARK    2  A    between atoms: _19  and  _21
REMARK    3  A    between atoms: _22  and  _66
REMARK    4  A    between atoms: _27  and  _30
REMARK    5  A    between atoms: _32  and  _33
REMARK    6  A    between atoms: _38  and  _43
REMARK    7  A    between atoms: _43  and  _46
REMARK    8  A    between atoms: _53  and  _55
REMARK                            x       y       z     vdW  Elec       q    Type
REMARK                         _______ _______ _______ _____ _____    ______ ____
ROOT
ATOM     10  C   UNL     1       8.418 -13.830   4.812  0.00  0.00    +0.038 A 
ATOM     11  C   UNL     1       8.792 -13.472   6.133  0.00  0.00    +0.047 A 
ATOM     12  C   UNL     1       9.500 -14.407   6.994  0.00  0.00    +0.035 A 
ATOM     32  C   UNL     1       9.812 -15.698   6.477  0.00  0.00    +0.024 A 
ATOM     33  C   UNL     1       9.439 -16.079   5.138  0.00  0.00    +0.007 A 
ATOM     34  C   UNL     1       8.739 -15.162   4.284  0.00  0.00    -0.029 A 
ATOM     35  C   UNL     1       8.357 -15.627   2.860  0.00  0.00    +0.045 C 
ENDROOT
BRANCH  10   9
ATOM      4  C   UNL     1       4.389 -11.921   3.034  0.00  0.00    +0.077 A 
ATOM      5  C   UNL     1       3.566 -12.889   3.701  0.00  0.00    +0.048 A 
ATOM      6  C   UNL     1       4.219 -13.865   4.486  0.00  0.00    +0.116 A 
ATOM      7  N   UNL     1       5.594 -13.864   4.590  0.00  0.00    -0.223 NA
ATOM      8  C   UNL     1       6.358 -12.918   3.932  0.00  0.00    +0.220 A 
ATOM      9  N   UNL     1       7.741 -12.893   4.029  0.00  0.00    -0.283 N 
ATOM     36  H   UNL     1       8.269 -12.184   3.522  0.00  0.00    +0.155 HD
ATOM     37  N   UNL     1       5.758 -11.976   3.175  0.00  0.00    -0.214 NA
BRANCH   4   3
ATOM      1  C   UNL     1       3.349  -8.400   1.685  0.00  0.00    +0.020 A 
ATOM      2  C   UNL     1       3.886  -9.420   2.556  0.00  0.00    +0.013 A 
ATOM      3  C   UNL     1       3.847 -10.825   2.170  0.00  0.00    +0.019 A 
ATOM     38  C   UNL     1       3.254 -11.167   0.886  0.00  0.00    +0.120 A 
ATOM     39  N   UNL     1       2.743 -10.163   0.069  0.00  0.00    -0.263 NA
ATOM     40  C   UNL     1       2.774  -8.808   0.431  0.00  0.00    +0.111 A 
ENDBRANCH   4   3
ENDBRANCH  10   9
BRANCH  12  13
ATOM     13  N   UNL     1       9.898 -14.102   8.346  0.00  0.00    -0.281 N 
ATOM     14  C   UNL     1      11.112 -13.598   8.783  0.00  0.00    +0.248 C 
ATOM     30  O   UNL     1      12.121 -13.533   8.096  0.00  0.00    -0.270 OA
ATOM     31  H   UNL     1       9.200 -14.279   9.069  0.00  0.00    +0.155 HD
BRANCH  14  15
ATOM     15  C   UNL     1      11.226 -13.109  10.190  0.00  0.00    +0.037 A 
ATOM     16  C   UNL     1      10.394 -13.668  11.259  0.00  0.00    +0.013 A 
ATOM     17  C   UNL     1      10.512 -13.166  12.605  0.00  0.00    +0.005 A 
ATOM     18  C   UNL     1      11.468 -12.099  12.890  0.00  0.00    -0.033 A 
ATOM     28  C   UNL     1      12.285 -11.566  11.812  0.00  0.00    +0.005 A 
ATOM     29  C   UNL     1      12.171 -12.054  10.491  0.00  0.00    +0.013 A 
BRANCH  18  19
ATOM     19  C   UNL     1      11.646 -11.488  14.293  0.00  0.00    +0.119 C 
BRANCH  19  20
ATOM     20  N   UNL     1      10.570 -10.576  14.783  0.00  0.00    -0.302 NA
ATOM     21  C   UNL     1      10.623  -9.206  14.102  0.00  0.00    +0.066 C 
ATOM     22  C   UNL     1       9.476  -8.273  14.610  0.00  0.00    -0.064 C 
ATOM     23  N   UNL     1       9.577  -8.126  16.129  0.00  0.00    +0.379 N 
ATOM     24  C   UNL     1       8.535  -7.204  16.604  0.00  0.00    -0.096 C 
ATOM     25  H   UNL     1      10.566  -7.667  16.359  0.00  0.00    -0.082 HD
ATOM     26  C   UNL     1       9.528  -9.485  16.815  0.00  0.00    -0.064 C 
ATOM     27  C   UNL     1      10.654 -10.414  16.281  0.00  0.00    +0.066 C 
ENDBRANCH  19  20
ENDBRANCH  18  19
ENDBRANCH  14  15
ENDBRANCH  12  13
TORSDOF 6
ENDMDL
MODEL 3
REMARK VINA RESULT:      -8.1      3.833     12.608
REMARK  Name = C:\Users\Docking\Desktop\test protocol\1iep_ligandH.pdb
REMARK  8 active torsions:
REMARK  status: ('A' for Active; 'I' for Inactive)
REMARK    1  A    between atoms: _5  and  _11
REMARK    2  A    between atoms: _19  and  _21
REMARK    3  A    between atoms: _22  and  _66
REMARK    4  A    between atoms: _27  and  _30
REMARK    5  A    between atoms: _32  and  _33
REMARK    6  A    between atoms: _38  and  _43
REMARK    7  A    between atoms: _43  and  _46
REMARK    8  A    between atoms: _53  and  _55
REMARK                            x       y       z     vdW  Elec       q    Type
REMARK                         _______ _______ _______ _____ _____    ______ ____
ROOT
ATOM     10  C   UNL     1       7.195 -13.584   3.687  0.00  0.00    +0.038 A 
ATOM     11  C   UNL     1       7.587 -14.608   2.787  0.00  0.00    +0.047 A 
ATOM     12  C   UNL     1       6.672 -15.114   1.776  0.00  0.00    +0.035 A 
ATOM     32  C   UNL     1       5.363 -14.552   1.708  0.00  0.00    +0.024 A 
ATOM     33  C   UNL     1       4.947 -13.512   2.616  0.00  0.00    +0.007 A 
ATOM     34  C   UNL     1       5.845 -13.011   3.616  0.00  0.00    -0.029 A 
ATOM     35  C   UNL     1       5.343 -11.899   4.567  0.00  0.00    +0.045 C 
ENDROOT
BRANCH  10   9
ATOM      4  C   UNL     1      10.053 -14.299   7.476  0.00  0.00    +0.077 A 
ATOM      5  C   UNL     1       9.660 -15.674   7.587  0.00  0.00    +0.048 A 
ATOM      6  C   UNL     1       8.715 -16.156   6.655  0.00  0.00    +0.116 A 
ATOM      7  N   UNL     1       8.207 -15.317   5.687  0.00  0.00    -0.223 NA
ATOM      8  C   UNL     1       8.606 -13.996   5.608  0.00  0.00    +0.220 A 
ATOM      9  N   UNL     1       8.114 -13.136   4.638  0.00  0.00    -0.283 N 
ATOM     36  H   UNL     1       8.428 -12.166   4.618  0.00  0.00    +0.155 HD
ATOM     37  N   UNL     1       9.506 -13.510   6.488  0.00  0.00    -0.214 NA
BRANCH   4   3
ATOM      1  C   UNL     1      12.006 -13.156  10.667  0.00  0.00    +0.020 A 
ATOM      2  C   UNL     1      11.025 -13.811   9.833  0.00  0.00    +0.013 A 
ATOM      3  C   UNL     1      11.045 -13.642   8.386  0.00  0.00    +0.019 A 
ATOM     38  C   UNL     1      12.079 -12.797   7.808  0.00  0.00    +0.120 A 
ATOM     39  N   UNL     1      13.010 -12.178   8.636  0.00  0.00    -0.263 NA
ATOM     40  C   UNL     1      13.000 -12.331  10.031  0.00  0.00    +0.111 A 
ENDBRANCH   4   3
ENDBRANCH  10   9
BRANCH  12  13
ATOM     13  N   UNL     1       7.012 -16.157   0.841  0.00  0.00    -0.281 N 
ATOM     14  C   UNL     1       8.098 -16.210  -0.018  0.00  0.00    +0.248 C 
ATOM     30  O   UNL     1       8.830 -15.264  -0.265  0.00  0.00    -0.270 OA
ATOM     31  H   UNL     1       6.375 -16.953   0.808  0.00  0.00    +0.155 HD
BRANCH  14  15
ATOM     15  C   UNL     1       8.406 -17.497  -0.713  0.00  0.00    +0.037 A 
ATOM     16  C   UNL     1       9.779 -17.850  -1.084  0.00  0.00    +0.013 A 
ATOM     17  C   UNL     1      10.046 -19.089  -1.770  0.00  0.00    +0.005 A 
ATOM     18  C   UNL     1       8.938 -19.987  -2.086  0.00  0.00    -0.033 A 
ATOM     28  C   UNL     1       7.587 -19.614  -1.701  0.00  0.00    +0.005 A 
ATOM     29  C   UNL     1       7.320 -18.400  -1.030  0.00  0.00    +0.013 A 
BRANCH  18  19
ATOM     19  C   UNL     1       9.128 -21.320  -2.833  0.00  0.00    +0.119 C 
BRANCH  19  20
ATOM     20  N   UNL     1      10.434 -22.023  -2.656  0.00  0.00    -0.302 NA
ATOM     21  C   UNL     1      10.815 -22.847  -3.889  0.00  0.00    +0.066 C 
ATOM     22  C   UNL     1      12.194 -23.557  -3.695  0.00  0.00    -0.064 C 
ATOM     23  N   UNL     1      12.137 -24.442  -2.449  0.00  0.00    +0.379 N 
ATOM     24  C   UNL     1      13.413 -25.157  -2.296  0.00  0.00    -0.096 C 
ATOM     25  H   UNL     1      11.340 -25.205  -2.612  0.00  0.00    -0.082 HD
ATOM     26  C   UNL     1      11.756 -23.632  -1.218  0.00  0.00    -0.064 C 
ATOM     27  C   UNL     1      10.399 -22.906  -1.433  0.00  0.00    +0.066 C 
ENDBRANCH  19  20
ENDBRANCH  18  19
ENDBRANCH  14  15
ENDBRANCH  12  13
TORSDOF 6
ENDMDL
MODEL 4
REMARK VINA RESULT:      -8.0      3.841     12.794
REMARK  Name = C:\Users\Docking\Desktop\test protocol\1iep_ligandH.pdb
REMARK  8 active torsions:
REMARK  status: ('A' for Active; 'I' for Inactive)
REMARK    1  A    between atoms: _5  and  _11
REMARK    2  A    between atoms: _19  and  _21
REMARK    3  A    between atoms: _22  and  _66
REMARK    4  A    between atoms: _27  and  _30
REMARK    5  A    between atoms: _32  and  _33
REMARK    6  A    between atoms: _38  and  _43
REMARK    7  A    between atoms: _43  and  _46
REMARK    8  A    between atoms: _53  and  _55
REMARK                            x       y       z     vdW  Elec       q    Type
REMARK                         _______ _______ _______ _____ _____    ______ ____
ROOT
ATOM     10  C   UNL     1       7.292 -14.429   3.751  0.00  0.00    +0.038 A 
ATOM     11  C   UNL     1       7.885 -15.335   2.835  0.00  0.00    +0.047 A 
ATOM     12  C   UNL     1       7.069 -16.153   1.951  0.00  0.00    +0.035 A 
ATOM     32  C   UNL     1       5.652 -16.021   2.026  0.00  0.00    +0.024 A 
ATOM     33  C   UNL     1       5.033 -15.106   2.952  0.00  0.00    +0.007 A 
ATOM     34  C   UNL     1       5.832 -14.298   3.828  0.00  0.00    -0.029 A 
ATOM     35  C   UNL     1       5.114 -13.339   4.805  0.00  0.00    +0.045 C 
ENDROOT
BRANCH  10   9
ATOM      4  C   UNL     1      10.133 -13.921   7.587  0.00  0.00    +0.077 A 
ATOM      5  C   UNL     1       9.922 -15.280   7.996  0.00  0.00    +0.048 A 
ATOM      6  C   UNL     1       9.070 -16.074   7.197  0.00  0.00    +0.116 A 
ATOM      7  N   UNL     1       8.479 -15.539   6.073  0.00  0.00    -0.223 NA
ATOM      8  C   UNL     1       8.702 -14.224   5.707  0.00  0.00    +0.220 A 
ATOM      9  N   UNL     1       8.123 -13.668   4.576  0.00  0.00    -0.283 N 
ATOM     36  H   UNL     1       8.307 -12.692   4.345  0.00  0.00    +0.155 HD
ATOM     37  N   UNL     1       9.510 -13.445   6.455  0.00  0.00    -0.214 NA
BRANCH   4   3
ATOM      1  C   UNL     1      12.031 -10.678   8.672  0.00  0.00    +0.020 A 
ATOM      2  C   UNL     1      11.173 -11.567   7.923  0.00  0.00    +0.013 A 
ATOM      3  C   UNL     1      11.009 -12.958   8.326  0.00  0.00    +0.019 A 
ATOM     38  C   UNL     1      11.731 -13.421   9.501  0.00  0.00    +0.120 A 
ATOM     39  N   UNL     1      12.551 -12.542  10.202  0.00  0.00    -0.263 NA
ATOM     40  C   UNL     1      12.719 -11.202   9.823  0.00  0.00    +0.111 A 
ENDBRANCH   4   3
ENDBRANCH  10   9
BRANCH  12  13
ATOM     13  N   UNL     1       7.615 -17.096   1.007  0.00  0.00    -0.281 N 
ATOM     14  C   UNL     1       7.814 -16.921  -0.353  0.00  0.00    +0.248 C 
ATOM     30  O   UNL     1       7.352 -15.997  -1.006  0.00  0.00    -0.270 OA
ATOM     31  H   UNL     1       7.888 -18.003   1.386  0.00  0.00    +0.155 HD
BRANCH  14  15
ATOM     15  C   UNL     1       8.632 -17.925  -1.098  0.00  0.00    +0.037 A 
ATOM     16  C   UNL     1      10.043 -17.679  -1.405  0.00  0.00    +0.013 A 
ATOM     17  C   UNL     1      10.805 -18.657  -2.141  0.00  0.00    +0.005 A 
ATOM     18  C   UNL     1      10.156 -19.893  -2.573  0.00  0.00    -0.033 A 
ATOM     28  C   UNL     1       8.756 -20.114  -2.250  0.00  0.00    +0.005 A 
ATOM     29  C   UNL     1       8.006 -19.157  -1.531  0.00  0.00    +0.013 A 
BRANCH  18  19
ATOM     19  C   UNL     1      10.886 -20.982  -3.380  0.00  0.00    +0.119 C 
BRANCH  19  20
ATOM     20  N   UNL     1      11.058 -22.316  -2.730  0.00  0.00    -0.302 NA
ATOM     21  C   UNL     1      12.126 -22.287  -1.633  0.00  0.00    +0.066 C 
ATOM     22  C   UNL     1      12.276 -23.685  -0.948  0.00  0.00    -0.064 C 
ATOM     23  N   UNL     1      12.615 -24.735  -2.008  0.00  0.00    +0.379 N 
ATOM     24  C   UNL     1      12.814 -26.039  -1.359  0.00  0.00    -0.096 C 
ATOM     25  H   UNL     1      13.582 -24.440  -2.478  0.00  0.00    -0.082 HD
ATOM     26  C   UNL     1      11.560 -24.768  -3.103  0.00  0.00    -0.064 C 
ATOM     27  C   UNL     1      11.397 -23.367  -3.757  0.00  0.00    +0.066 C 
ENDBRANCH  19  20
ENDBRANCH  18  19
ENDBRANCH  14  15
ENDBRANCH  12  13
TORSDOF 6
ENDMDL
MODEL 5
REMARK VINA RESULT:      -8.0      9.769     14.575
REMARK  Name = C:\Users\Docking\Desktop\test protocol\1iep_ligandH.pdb
REMARK  8 active torsions:
REMARK  status: ('A' for Active; 'I' for Inactive)
REMARK    1  A    between atoms: _5  and  _11
REMARK    2  A    between atoms: _19  and  _21
REMARK    3  A    between atoms: _22  and  _66
REMARK    4  A    between atoms: _27  and  _30
REMARK    5  A    between atoms: _32  and  _33
REMARK    6  A    between atoms: _38  and  _43
REMARK    7  A    between atoms: _43  and  _46
REMARK    8  A    between atoms: _53  and  _55
REMARK                            x       y       z     vdW  Elec       q    Type
REMARK                         _______ _______ _______ _____ _____    ______ ____
ROOT
ATOM     10  C   UNL     1       5.667 -13.450   2.421  0.00  0.00    +0.038 A 
ATOM     11  C   UNL     1       6.208 -13.328   3.726  0.00  0.00    +0.047 A 
ATOM     12  C   UNL     1       7.617 -13.582   3.984  0.00  0.00    +0.035 A 
ATOM     32  C   UNL     1       8.447 -13.957   2.887  0.00  0.00    +0.024 A 
ATOM     33  C   UNL     1       7.913 -14.086   1.554  0.00  0.00    +0.007 A 
ATOM     34  C   UNL     1       6.524 -13.839   1.295  0.00  0.00    -0.029 A 
ATOM     35  C   UNL     1       6.005 -13.999  -0.153  0.00  0.00    +0.045 C 
ENDROOT
BRANCH  10   9
ATOM      4  C   UNL     1       1.989 -10.462   1.657  0.00  0.00    +0.077 A 
ATOM      5  C   UNL     1       2.845  -9.312   1.664  0.00  0.00    +0.048 A 
ATOM      6  C   UNL     1       4.225  -9.531   1.874  0.00  0.00    +0.116 A 
ATOM      7  N   UNL     1       4.702 -10.810   2.062  0.00  0.00    -0.223 NA
ATOM      8  C   UNL     1       3.848 -11.898   2.052  0.00  0.00    +0.220 A 
ATOM      9  N   UNL     1       4.307 -13.194   2.231  0.00  0.00    -0.283 N 
ATOM     36  H   UNL     1       3.644 -13.969   2.224  0.00  0.00    +0.155 HD
ATOM     37  N   UNL     1       2.526 -11.715   1.854  0.00  0.00    -0.214 NA
BRANCH   4   3
ATOM      1  C   UNL     1      -1.758  -9.350   1.816  0.00  0.00    +0.020 A 
ATOM      2  C   UNL     1      -0.333  -9.372   2.054  0.00  0.00    +0.013 A 
ATOM      3  C   UNL     1       0.508 -10.394   1.444  0.00  0.00    +0.019 A 
ATOM     38  C   UNL     1      -0.128 -11.386   0.590  0.00  0.00    +0.120 A 
ATOM     39  N   UNL     1      -1.502 -11.340   0.380  0.00  0.00    -0.263 NA
ATOM     40  C   UNL     1      -2.323 -10.363   0.963  0.00  0.00    +0.111 A 
ENDBRANCH   4   3
ENDBRANCH  10   9
BRANCH  12  13
ATOM     13  N   UNL     1       8.221 -13.482   5.289  0.00  0.00    -0.281 N 
ATOM     14  C   UNL     1       8.770 -14.499   6.054  0.00  0.00    +0.248 C 
ATOM     30  O   UNL     1       8.633 -15.691   5.820  0.00  0.00    -0.270 OA
ATOM     31  H   UNL     1       8.247 -12.549   5.700  0.00  0.00    +0.155 HD
BRANCH  14  15
ATOM     15  C   UNL     1       9.577 -14.140   7.260  0.00  0.00    +0.037 A 
ATOM     16  C   UNL     1       9.536 -14.960   8.473  0.00  0.00    +0.013 A 
ATOM     17  C   UNL     1      10.311 -14.582   9.628  0.00  0.00    +0.005 A 
ATOM     18  C   UNL     1      11.135 -13.377   9.574  0.00  0.00    -0.033 A 
ATOM     28  C   UNL     1      11.162 -12.585   8.356  0.00  0.00    +0.005 A 
ATOM     29  C   UNL     1      10.403 -12.952   7.222  0.00  0.00    +0.013 A 
BRANCH  18  19
ATOM     19  C   UNL     1      11.978 -12.887  10.766  0.00  0.00    +0.119 C 
BRANCH  19  20
ATOM     20  N   UNL     1      11.260 -12.622  12.049  0.00  0.00    -0.302 NA
ATOM     21  C   UNL     1      10.823 -11.159  12.171  0.00  0.00    +0.066 C 
ATOM     22  C   UNL     1      10.053 -10.905  13.507  0.00  0.00    -0.064 C 
ATOM     23  N   UNL     1      10.940 -11.305  14.687  0.00  0.00    +0.379 N 
ATOM     24  C   UNL     1      10.241 -11.013  15.948  0.00  0.00    -0.096 C 
ATOM     25  H   UNL     1      11.856 -10.670  14.653  0.00  0.00    -0.082 HD
ATOM     26  C   UNL     1      11.381 -12.757  14.573  0.00  0.00    -0.064 C 
ATOM     27  C   UNL     1      12.119 -13.006  13.228  0.00  0.00    +0.066 C 
ENDBRANCH  19  20
ENDBRANCH  18  19
ENDBRANCH  14  15
ENDBRANCH  12  13
TORSDOF 6
ENDMDL
