MODEL 1
REMARK VINA RESULT:      -8.0      0.000      0.000
REMARK  Name = C:\Users\Docking\Desktop\test protocol\1iep_ligandH.pdb
REMARK  8 active torsions:
REMARK  status: ('A' for Active; 'I' for Inactive)
REMARK    1  A    between atoms: _5  and  _11
REMARK    2  A    between atoms: _19  and  _21
REMARK    3  A    between atoms: _22  and  _66
REMARK    4  A    between atoms: _27  and  _30
REMARK    5  A    between atoms: _32  and  _33
REMARK    6  A    between atoms: _38  and  _43
REMARK    7  A    between atoms: _43  and  _46
REMARK    8  A    between atoms: _53  and  _55
REMARK                            x       y       z     vdW  Elec       q    Type
REMARK                         _______ _______ _______ _____ _____    ______ ____
ROOT
ATOM     10  C   UNL     1      -2.081 -13.689 -16.884  0.00  0.00    +0.038 A 
ATOM     11  C   UNL     1      -0.697 -13.963 -16.746  0.00  0.00    +0.047 A 
ATOM     12  C   UNL     1      -0.038 -14.950 -17.587  0.00  0.00    +0.035 A 
ATOM     32  C   UNL     1      -0.819 -15.638 -18.561  0.00  0.00    +0.024 A 
ATOM     33  C   UNL     1      -2.228 -15.372 -18.714  0.00  0.00    +0.007 A 
ATOM     34  C   UNL     1      -2.884 -14.402 -17.886  0.00  0.00    -0.029 A 
ATOM     35  C   UNL     1      -4.398 -14.162 -18.089  0.00  0.00    +0.045 C 
ENDROOT
BRANCH  10   9
ATOM      4  C   UNL     1      -3.531 -12.148 -12.576  0.00  0.00    +0.077 A 
ATOM      5  C   UNL     1      -3.120 -13.364 -11.937  0.00  0.00    +0.048 A 
ATOM      6  C   UNL     1      -2.546 -14.364 -12.753  0.00  0.00    +0.116 A 
ATOM      7  N   UNL     1      -2.399 -14.153 -14.107  0.00  0.00    -0.223 NA
ATOM      8  C   UNL     1      -2.808 -12.969 -14.692  0.00  0.00    +0.220 A 
ATOM      9  N   UNL     1      -2.663 -12.731 -16.050  0.00  0.00    -0.283 N 
ATOM     36  H   UNL     1      -2.984 -11.847 -16.445  0.00  0.00    +0.155 HD
ATOM     37  N   UNL     1      -3.360 -11.998 -13.934  0.00  0.00    -0.214 NA
BRANCH   4   3
ATOM      1  C   UNL     1      -4.192  -9.282  -9.996  0.00  0.00    +0.020 A 
ATOM      2  C   UNL     1      -3.553 -10.394 -10.663  0.00  0.00    +0.013 A 
ATOM      3  C   UNL     1      -4.151 -10.996 -11.847  0.00  0.00    +0.019 A 
ATOM     38  C   UNL     1      -5.406 -10.445 -12.337  0.00  0.00    +0.120 A 
ATOM     39  N   UNL     1      -5.999  -9.376 -11.673  0.00  0.00    -0.263 NA
ATOM     40  C   UNL     1      -5.434  -8.789 -10.531  0.00  0.00    +0.111 A 
ENDBRANCH   4   3
ENDBRANCH  10   9
BRANCH  12  13
ATOM     13  N   UNL     1       1.363 -15.277 -17.487  0.00  0.00    -0.281 N 
ATOM     14  C   UNL     1       2.444 -14.411 -17.525  0.00  0.00    +0.248 C 
ATOM     30  O   UNL     1       2.380 -13.239 -17.866  0.00  0.00    -0.270 OA
ATOM     31  H   UNL     1       1.585 -16.266 -17.375  0.00  0.00    +0.155 HD
BRANCH  14  15
ATOM     15  C   UNL     1       3.794 -14.925 -17.141  0.00  0.00    +0.037 A 
ATOM     16  C   UNL     1       4.333 -16.156 -17.725  0.00  0.00    +0.013 A 
ATOM     17  C   UNL     1       5.631 -16.639 -17.325  0.00  0.00    +0.005 A 
ATOM     18  C   UNL     1       6.401 -15.888 -16.336  0.00  0.00    -0.033 A 
ATOM     28  C   UNL     1       5.845 -14.667 -15.777  0.00  0.00    +0.005 A 
ATOM     29  C   UNL     1       4.572 -14.191 -16.166  0.00  0.00    +0.013 A 
BRANCH  18  19
ATOM     19  C   UNL     1       7.785 -16.340 -15.835  0.00  0.00    +0.119 C 
BRANCH  19  20
ATOM     20  N   UNL     1       7.834 -17.086 -14.542  0.00  0.00    -0.302 NA
ATOM     21  C   UNL     1       9.135 -16.825 -13.778  0.00  0.00    +0.066 C 
ATOM     22  C   UNL     1       9.160 -17.595 -12.418  0.00  0.00    -0.064 C 
ATOM     23  N   UNL     1       8.976 -19.091 -12.678  0.00  0.00    +0.379 N 
ATOM     24  C   UNL     1       9.057 -19.824 -11.406  0.00  0.00    -0.096 C 
ATOM     25  H   UNL     1       9.823 -19.430 -13.319  0.00  0.00    -0.082 HD
ATOM     26  C   UNL     1       7.686 -19.359 -13.440  0.00  0.00    -0.064 C 
ATOM     27  C   UNL     1       7.658 -18.566 -14.777  0.00  0.00    +0.066 C 
ENDBRANCH  19  20
ENDBRANCH  18  19
ENDBRANCH  14  15
ENDBRANCH  12  13
TORSDOF 6
ENDMDL
MODEL 2
REMARK VINA RESULT:      -7.7      2.547      3.427
REMARK  Name = C:\Users\Docking\Desktop\test protocol\1iep_ligandH.pdb
REMARK  8 active torsions:
REMARK  status: ('A' for Active; 'I' for Inactive)
REMARK    1  A    between atoms: _5  and  _11
REMARK    2  A    between atoms: _19  and  _21
REMARK    3  A    between atoms: _22  and  _66
REMARK    4  A    between atoms: _27  and  _30
REMARK    5  A    between atoms: _32  and  _33
REMARK    6  A    between atoms: _38  and  _43
REMARK    7  A    between atoms: _43  and  _46
REMARK    8  A    between atoms: _53  and  _55
REMARK                            x       y       z     vdW  Elec       q    Type
REMARK                         _______ _______ _______ _____ _____    ______ ____
ROOT
ATOM     10  C   UNL     1      -1.910 -13.692 -16.461  0.00  0.00    +0.038 A 
ATOM     11  C   UNL     1      -0.521 -13.921 -16.632  0.00  0.00    +0.047 A 
ATOM     12  C   UNL     1      -0.033 -14.922 -17.568  0.00  0.00    +0.035 A 
ATOM     32  C   UNL     1      -0.989 -15.670 -18.316  0.00  0.00    +0.024 A 
ATOM     33  C   UNL     1      -2.405 -15.451 -18.153  0.00  0.00    +0.007 A 
ATOM     34  C   UNL     1      -2.892 -14.467 -17.230  0.00  0.00    -0.029 A 
ATOM     35  C   UNL     1      -4.420 -14.279 -17.092  0.00  0.00    +0.045 C 
ENDROOT
BRANCH  10   9
ATOM      4  C   UNL     1      -3.074 -12.268 -12.027  0.00  0.00    +0.077 A 
ATOM      5  C   UNL     1      -2.868 -13.581 -11.488  0.00  0.00    +0.048 A 
ATOM      6  C   UNL     1      -2.470 -14.597 -12.386  0.00  0.00    +0.116 A 
ATOM      7  N   UNL     1      -2.294 -14.309 -13.722  0.00  0.00    -0.223 NA
ATOM      8  C   UNL     1      -2.502 -13.032 -14.210  0.00  0.00    +0.220 A 
ATOM      9  N   UNL     1      -2.323 -12.718 -15.548  0.00  0.00    -0.283 N 
ATOM     36  H   UNL     1      -2.494 -11.766 -15.870  0.00  0.00    +0.155 HD
ATOM     37  N   UNL     1      -2.884 -12.045 -13.373  0.00  0.00    -0.214 NA
BRANCH   4   3
ATOM      1  C   UNL     1      -3.208  -9.503  -9.264  0.00  0.00    +0.020 A 
ATOM      2  C   UNL     1      -2.762 -10.648 -10.023  0.00  0.00    +0.013 A 
ATOM      3  C   UNL     1      -3.492 -11.089 -11.205  0.00  0.00    +0.019 A 
ATOM     38  C   UNL     1      -4.679 -10.343 -11.595  0.00  0.00    +0.120 A 
ATOM     39  N   UNL     1      -5.085  -9.245 -10.843  0.00  0.00    -0.263 NA
ATOM     40  C   UNL     1      -4.391  -8.812  -9.703  0.00  0.00    +0.111 A 
ENDBRANCH   4   3
ENDBRANCH  10   9
BRANCH  12  13
ATOM     13  N   UNL     1       1.365 -15.205 -17.779  0.00  0.00    -0.281 N 
ATOM     14  C   UNL     1       2.355 -14.334 -18.205  0.00  0.00    +0.248 C 
ATOM     30  O   UNL     1       2.145 -13.227 -18.678  0.00  0.00    -0.270 OA
ATOM     31  H   UNL     1       1.661 -16.163 -17.590  0.00  0.00    +0.155 HD
BRANCH  14  15
ATOM     15  C   UNL     1       3.783 -14.761 -18.106  0.00  0.00    +0.037 A 
ATOM     16  C   UNL     1       4.869 -13.899 -18.579  0.00  0.00    +0.013 A 
ATOM     17  C   UNL     1       6.238 -14.342 -18.487  0.00  0.00    +0.005 A 
ATOM     18  C   UNL     1       6.528 -15.656 -17.917  0.00  0.00    -0.033 A 
ATOM     28  C   UNL     1       5.432 -16.489 -17.450  0.00  0.00    +0.005 A 
ATOM     29  C   UNL     1       4.089 -16.058 -17.540  0.00  0.00    +0.013 A 
BRANCH  18  19
ATOM     19  C   UNL     1       7.957 -16.219 -17.799  0.00  0.00    +0.119 C 
BRANCH  19  20
ATOM     20  N   UNL     1       8.453 -17.065 -18.925  0.00  0.00    -0.302 NA
ATOM     21  C   UNL     1       7.741 -16.744 -20.242  0.00  0.00    +0.066 C 
ATOM     22  C   UNL     1       8.289 -17.622 -21.414  0.00  0.00    -0.064 C 
ATOM     23  N   UNL     1       8.129 -19.101 -21.058  0.00  0.00    +0.379 N 
ATOM     24  C   UNL     1       8.589 -19.929 -22.182  0.00  0.00    -0.096 C 
ATOM     25  H   UNL     1       7.041 -19.298 -20.915  0.00  0.00    -0.082 HD
ATOM     26  C   UNL     1       8.832 -19.428 -19.748  0.00  0.00    -0.064 C 
ATOM     27  C   UNL     1       8.301 -18.529 -18.596  0.00  0.00    +0.066 C 
ENDBRANCH  19  20
ENDBRANCH  18  19
ENDBRANCH  14  15
ENDBRANCH  12  13
TORSDOF 6
ENDMDL
MODEL 3
REMARK VINA RESULT:      -7.7      6.914     15.654
REMARK  Name = C:\Users\Docking\Desktop\test protocol\1iep_ligandH.pdb
REMARK  8 active torsions:
REMARK  status: ('A' for Active; 'I' for Inactive)
REMARK    1  A    between atoms: _5  and  _11
REMARK    2  A    between atoms: _19  and  _21
REMARK    3  A    between atoms: _22  and  _66
REMARK    4  A    between atoms: _27  and  _30
REMARK    5  A    between atoms: _32  and  _33
REMARK    6  A    between atoms: _38  and  _43
REMARK    7  A    between atoms: _43  and  _46
REMARK    8  A    between atoms: _53  and  _55
REMARK                            x       y       z     vdW  Elec       q    Type
REMARK                         _______ _______ _______ _____ _____    ______ ____
ROOT
ATOM     10  C   UNL     1      -6.654 -13.165 -14.839  0.00  0.00    +0.038 A 
ATOM     11  C   UNL     1      -7.306 -12.432 -13.815  0.00  0.00    +0.047 A 
ATOM     12  C   UNL     1      -8.648 -12.782 -13.376  0.00  0.00    +0.035 A 
ATOM     32  C   UNL     1      -9.295 -13.888 -14.001  0.00  0.00    +0.024 A 
ATOM     33  C   UNL     1      -8.648 -14.643 -15.044  0.00  0.00    +0.007 A 
ATOM     34  C   UNL     1      -7.325 -14.301 -15.483  0.00  0.00    -0.029 A 
ATOM     35  C   UNL     1      -6.682 -15.142 -16.610  0.00  0.00    +0.045 C 
ENDROOT
BRANCH  10   9
ATOM      4  C   UNL     1      -1.963 -12.636 -13.969  0.00  0.00    +0.077 A 
ATOM      5  C   UNL     1      -2.096 -13.134 -12.630  0.00  0.00    +0.048 A 
ATOM      6  C   UNL     1      -3.389 -13.509 -12.202  0.00  0.00    +0.116 A 
ATOM      7  N   UNL     1      -4.463 -13.391 -13.057  0.00  0.00    -0.223 NA
ATOM      8  C   UNL     1      -4.301 -12.905 -14.342  0.00  0.00    +0.220 A 
ATOM      9  N   UNL     1      -5.365 -12.785 -15.222  0.00  0.00    -0.283 N 
ATOM     36  H   UNL     1      -5.206 -12.415 -16.158  0.00  0.00    +0.155 HD
ATOM     37  N   UNL     1      -3.076 -12.539 -14.774  0.00  0.00    -0.214 NA
BRANCH   4   3
ATOM      1  C   UNL     1       1.590 -11.071 -14.445  0.00  0.00    +0.020 A 
ATOM      2  C   UNL     1       0.349 -11.465 -13.819  0.00  0.00    +0.013 A 
ATOM      3  C   UNL     1      -0.662 -12.202 -14.568  0.00  0.00    +0.019 A 
ATOM     38  C   UNL     1      -0.383 -12.527 -15.959  0.00  0.00    +0.120 A 
ATOM     39  N   UNL     1       0.820 -12.133 -16.535  0.00  0.00    -0.263 NA
ATOM     40  C   UNL     1       1.799 -11.422 -15.825  0.00  0.00    +0.111 A 
ENDBRANCH   4   3
ENDBRANCH  10   9
BRANCH  12  13
ATOM     13  N   UNL     1      -9.363 -12.069 -12.347  0.00  0.00    -0.281 N 
ATOM     14  C   UNL     1     -10.243 -11.011 -12.499  0.00  0.00    +0.248 C 
ATOM     30  O   UNL     1     -10.387 -10.374 -13.532  0.00  0.00    -0.270 OA
ATOM     31  H   UNL     1      -9.200 -12.383 -11.390  0.00  0.00    +0.155 HD
BRANCH  14  15
ATOM     15  C   UNL     1     -11.074 -10.590 -11.330  0.00  0.00    +0.037 A 
ATOM     16  C   UNL     1     -10.463 -10.282 -10.035  0.00  0.00    +0.013 A 
ATOM     17  C   UNL     1     -11.290  -9.895  -8.919  0.00  0.00    +0.005 A 
ATOM     18  C   UNL     1     -12.738  -9.812  -9.095  0.00  0.00    -0.033 A 
ATOM     28  C   UNL     1     -13.317 -10.117 -10.393  0.00  0.00    +0.005 A 
ATOM     29  C   UNL     1     -12.510 -10.498 -11.488  0.00  0.00    +0.013 A 
BRANCH  18  19
ATOM     19  C   UNL     1     -13.698  -9.427  -7.954  0.00  0.00    +0.119 C 
BRANCH  19  20
ATOM     20  N   UNL     1     -14.901 -10.290  -7.753  0.00  0.00    -0.302 NA
ATOM     21  C   UNL     1     -16.201  -9.482  -7.794  0.00  0.00    +0.066 C 
ATOM     22  C   UNL     1     -17.450 -10.403  -7.604  0.00  0.00    -0.064 C 
ATOM     23  N   UNL     1     -17.325 -11.161  -6.281  0.00  0.00    +0.379 N 
ATOM     24  C   UNL     1     -18.525 -11.984  -6.072  0.00  0.00    -0.096 C 
ATOM     25  H   UNL     1     -17.285 -10.406  -5.462  0.00  0.00    -0.082 HD
ATOM     26  C   UNL     1     -16.033 -11.965  -6.230  0.00  0.00    -0.064 C 
ATOM     27  C   UNL     1     -14.800 -11.044  -6.450  0.00  0.00    +0.066 C 
ENDBRANCH  19  20
ENDBRANCH  18  19
ENDBRANCH  14  15
ENDBRANCH  12  13
TORSDOF 6
ENDMDL
MODEL 4
REMARK VINA RESULT:      -7.6      9.073     15.898
REMARK  Name = C:\Users\Docking\Desktop\test protocol\1iep_ligandH.pdb
REMARK  8 active torsions:
REMARK  status: ('A' for Active; 'I' for Inactive)
REMARK    1  A    between atoms: _5  and  _11
REMARK    2  A    between atoms: _19  and  _21
REMARK    3  A    between atoms: _22  and  _66
REMARK    4  A    between atoms: _27  and  _30
REMARK    5  A    between atoms: _32  and  _33
REMARK    6  A    between atoms: _38  and  _43
REMARK    7  A    between atoms: _43  and  _46
REMARK    8  A    between atoms: _53  and  _55
REMARK                            x       y       z     vdW  Elec       q    Type
REMARK                         _______ _______ _______ _____ _____    ______ ____
ROOT
ATOM     10  C   UNL     1      -6.860 -15.478 -17.562  0.00  0.00    +0.038 A 
ATOM     11  C   UNL     1      -8.268 -15.542 -17.401  0.00  0.00    +0.047 A 
ATOM     12  C   UNL     1      -9.145 -15.775 -18.538  0.00  0.00    +0.035 A 
ATOM     32  C   UNL     1      -8.553 -15.941 -19.825  0.00  0.00    +0.024 A 
ATOM     33  C   UNL     1      -7.124 -15.877 -20.006  0.00  0.00    +0.007 A 
ATOM     34  C   UNL     1      -6.255 -15.645 -18.888  0.00  0.00    -0.029 A 
ATOM     35  C   UNL     1      -4.731 -15.580 -19.142  0.00  0.00    +0.045 C 
ENDROOT
BRANCH  10   9
ATOM      4  C   UNL     1      -4.805 -12.567 -14.346  0.00  0.00    +0.077 A 
ATOM      5  C   UNL     1      -5.338 -11.394 -14.979  0.00  0.00    +0.048 A 
ATOM      6  C   UNL     1      -6.130 -11.584 -16.134  0.00  0.00    +0.116 A 
ATOM      7  N   UNL     1      -6.365 -12.855 -16.611  0.00  0.00    -0.223 NA
ATOM      8  C   UNL     1      -5.835 -13.964 -15.977  0.00  0.00    +0.220 A 
ATOM      9  N   UNL     1      -6.066 -15.252 -16.435  0.00  0.00    -0.283 N 
ATOM     36  H   UNL     1      -5.650 -16.043 -15.944  0.00  0.00    +0.155 HD
ATOM     37  N   UNL     1      -5.074 -13.810 -14.874  0.00  0.00    -0.214 NA
BRANCH   4   3
ATOM      1  C   UNL     1      -3.084 -11.409 -11.030  0.00  0.00    +0.020 A 
ATOM      2  C   UNL     1      -3.925 -11.393 -12.204  0.00  0.00    +0.013 A 
ATOM      3  C   UNL     1      -3.953 -12.530 -13.116  0.00  0.00    +0.019 A 
ATOM     38  C   UNL     1      -3.113 -13.677 -12.806  0.00  0.00    +0.120 A 
ATOM     39  N   UNL     1      -2.312 -13.664 -11.668  0.00  0.00    -0.263 NA
ATOM     40  C   UNL     1      -2.276 -12.574 -10.785  0.00  0.00    +0.111 A 
ENDBRANCH   4   3
ENDBRANCH  10   9
BRANCH  12  13
ATOM     13  N   UNL     1     -10.582 -15.843 -18.438  0.00  0.00    -0.281 N 
ATOM     14  C   UNL     1     -11.497 -14.820 -18.624  0.00  0.00    +0.248 C 
ATOM     30  O   UNL     1     -11.205 -13.636 -18.696  0.00  0.00    -0.270 OA
ATOM     31  H   UNL     1     -10.971 -16.756 -18.201  0.00  0.00    +0.155 HD
BRANCH  14  15
ATOM     15  C   UNL     1     -12.949 -15.161 -18.731  0.00  0.00    +0.037 A 
ATOM     16  C   UNL     1     -13.952 -14.478 -17.911  0.00  0.00    +0.013 A 
ATOM     17  C   UNL     1     -15.344 -14.838 -18.021  0.00  0.00    +0.005 A 
ATOM     18  C   UNL     1     -15.740 -15.887 -18.958  0.00  0.00    -0.033 A 
ATOM     28  C   UNL     1     -14.724 -16.545 -19.763  0.00  0.00    +0.005 A 
ATOM     29  C   UNL     1     -13.359 -16.195 -19.657  0.00  0.00    +0.013 A 
BRANCH  18  19
ATOM     19  C   UNL     1     -17.199 -16.350 -19.127  0.00  0.00    +0.119 C 
BRANCH  19  20
ATOM     20  N   UNL     1     -17.477 -17.807 -18.954  0.00  0.00    -0.302 NA
ATOM     21  C   UNL     1     -17.704 -18.512 -20.295  0.00  0.00    +0.066 C 
ATOM     22  C   UNL     1     -17.972 -20.039 -20.098  0.00  0.00    -0.064 C 
ATOM     23  N   UNL     1     -19.178 -20.228 -19.177  0.00  0.00    +0.379 N 
ATOM     24  C   UNL     1     -19.469 -21.662 -19.036  0.00  0.00    -0.096 C 
ATOM     25  H   UNL     1     -20.057 -19.751 -19.670  0.00  0.00    -0.082 HD
ATOM     26  C   UNL     1     -18.963 -19.528 -17.842  0.00  0.00    -0.064 C 
ATOM     27  C   UNL     1     -18.668 -18.016 -18.051  0.00  0.00    +0.066 C 
ENDBRANCH  19  20
ENDBRANCH  18  19
ENDBRANCH  14  15
ENDBRANCH  12  13
TORSDOF 6
ENDMDL
MODEL 5
REMARK VINA RESULT:      -7.5      9.872     13.871
REMARK  Name = C:\Users\Docking\Desktop\test protocol\1iep_ligandH.pdb
REMARK  8 active torsions:
REMARK  status: ('A' for Active; 'I' for Inactive)
REMARK    1  A    between atoms: _5  and  _11
REMARK    2  A    between atoms: _19  and  _21
REMARK    3  A    between atoms: _22  and  _66
REMARK    4  A    between atoms: _27  and  _30
REMARK    5  A    between atoms: _32  and  _33
REMARK    6  A    between atoms: _38  and  _43
REMARK    7  A    between atoms: _43  and  _46
REMARK    8  A    between atoms: _53  and  _55
REMARK                            x       y       z     vdW  Elec       q    Type
REMARK                         _______ _______ _______ _____ _____    ______ ____
ROOT
ATOM     10  C   UNL     1      -8.126 -13.797 -14.371  0.00  0.00    +0.038 A 
ATOM     11  C   UNL     1      -8.850 -14.486 -15.378  0.00  0.00    +0.047 A 
ATOM     12  C   UNL     1      -8.193 -14.960 -16.586  0.00  0.00    +0.035 A 
ATOM     32  C   UNL     1      -6.796 -14.718 -16.735  0.00  0.00    +0.024 A 
ATOM     33  C   UNL     1      -6.045 -14.019 -15.721  0.00  0.00    +0.007 A 
ATOM     34  C   UNL     1      -6.689 -13.547 -14.529  0.00  0.00    -0.029 A 
ATOM     35  C   UNL     1      -5.835 -12.798 -13.479  0.00  0.00    +0.045 C 
ENDROOT
BRANCH  10   9
ATOM      4  C   UNL     1     -10.479 -10.449 -11.862  0.00  0.00    +0.077 A 
ATOM      5  C   UNL     1     -10.313  -9.472 -12.899  0.00  0.00    +0.048 A 
ATOM      6  C   UNL     1      -9.610  -9.868 -14.059  0.00  0.00    +0.116 A 
ATOM      7  N   UNL     1      -9.115 -11.150 -14.163  0.00  0.00    -0.223 NA
ATOM      8  C   UNL     1      -9.291 -12.068 -13.144  0.00  0.00    +0.220 A 
ATOM      9  N   UNL     1      -8.808 -13.364 -13.231  0.00  0.00    -0.283 N 
ATOM     36  H   UNL     1      -8.952 -14.009 -12.455  0.00  0.00    +0.155 HD
ATOM     37  N   UNL     1      -9.957 -11.713 -12.026  0.00  0.00    -0.214 NA
BRANCH   4   3
ATOM      1  C   UNL     1     -11.258  -9.739  -8.096  0.00  0.00    +0.020 A 
ATOM      2  C   UNL     1     -10.514  -9.994  -9.307  0.00  0.00    +0.013 A 
ATOM      3  C   UNL     1     -11.201 -10.183 -10.578  0.00  0.00    +0.019 A 
ATOM     38  C   UNL     1     -12.654 -10.105 -10.590  0.00  0.00    +0.120 A 
ATOM     39  N   UNL     1     -13.345  -9.859  -9.407  0.00  0.00    -0.263 NA
ATOM     40  C   UNL     1     -12.694  -9.678  -8.178  0.00  0.00    +0.111 A 
ENDBRANCH   4   3
ENDBRANCH  10   9
BRANCH  12  13
ATOM     13  N   UNL     1      -8.877 -15.657 -17.646  0.00  0.00    -0.281 N 
ATOM     14  C   UNL     1     -10.056 -15.298 -18.280  0.00  0.00    +0.248 C 
ATOM     30  O   UNL     1     -10.817 -14.429 -17.882  0.00  0.00    -0.270 OA
ATOM     31  H   UNL     1      -8.440 -16.520 -17.969  0.00  0.00    +0.155 HD
BRANCH  14  15
ATOM     15  C   UNL     1     -10.453 -16.019 -19.527  0.00  0.00    +0.037 A 
ATOM     16  C   UNL     1      -9.495 -16.244 -20.613  0.00  0.00    +0.013 A 
ATOM     17  C   UNL     1      -9.910 -16.927 -21.813  0.00  0.00    +0.005 A 
ATOM     18  C   UNL     1     -11.290 -17.391 -21.932  0.00  0.00    -0.033 A 
ATOM     28  C   UNL     1     -12.218 -17.159 -20.838  0.00  0.00    +0.005 A 
ATOM     29  C   UNL     1     -11.816 -16.489 -19.661  0.00  0.00    +0.013 A 
BRANCH  18  19
ATOM     19  C   UNL     1     -11.825 -18.110 -23.185  0.00  0.00    +0.119 C 
BRANCH  19  20
ATOM     20  N   UNL     1     -10.819 -18.723 -24.104  0.00  0.00    -0.302 NA
ATOM     21  C   UNL     1     -10.432 -17.777 -25.244  0.00  0.00    +0.066 C 
ATOM     22  C   UNL     1      -9.362 -18.425 -26.182  0.00  0.00    -0.064 C 
ATOM     23  N   UNL     1      -9.904 -19.745 -26.734  0.00  0.00    +0.379 N 
ATOM     24  C   UNL     1      -8.925 -20.328 -27.662  0.00  0.00    -0.096 C 
ATOM     25  H   UNL     1     -10.827 -19.514 -27.316  0.00  0.00    -0.082 HD
ATOM     26  C   UNL     1     -10.295 -20.690 -25.607  0.00  0.00    -0.064 C 
ATOM     27  C   UNL     1     -11.336 -20.025 -24.663  0.00  0.00    +0.066 C 
ENDBRANCH  19  20
ENDBRANCH  18  19
ENDBRANCH  14  15
ENDBRANCH  12  13
TORSDOF 6
ENDMDL
