MODEL 1
REMARK VINA RESULT:     -10.4      0.000      0.000
REMARK  Name = C:\Users\Docking\Desktop\test protocol\1iep_ligandH.pdb
REMARK  8 active torsions:
REMARK  status: ('A' for Active; 'I' for Inactive)
REMARK    1  A    between atoms: _5  and  _11
REMARK    2  A    between atoms: _19  and  _21
REMARK    3  A    between atoms: _22  and  _66
REMARK    4  A    between atoms: _27  and  _30
REMARK    5  A    between atoms: _32  and  _33
REMARK    6  A    between atoms: _38  and  _43
REMARK    7  A    between atoms: _43  and  _46
REMARK    8  A    between atoms: _53  and  _55
REMARK                            x       y       z     vdW  Elec       q    Type
REMARK                         _______ _______ _______ _____ _____    ______ ____
ROOT
ATOM     10  C   UNL     1     -10.631  14.068  28.582  0.00  0.00    +0.038 A 
ATOM     11  C   UNL     1      -9.878  14.550  27.480  0.00  0.00    +0.047 A 
ATOM     12  C   UNL     1     -10.488  14.723  26.171  0.00  0.00    +0.035 A 
ATOM     32  C   UNL     1     -11.868  14.398  26.020  0.00  0.00    +0.024 A 
ATOM     33  C   UNL     1     -12.647  13.906  27.129  0.00  0.00    +0.007 A 
ATOM     34  C   UNL     1     -12.050  13.731  28.422  0.00  0.00    -0.029 A 
ATOM     35  C   UNL     1     -12.932  13.194  29.574  0.00  0.00    +0.045 C 
ENDROOT
BRANCH  10   9
ATOM      4  C   UNL     1      -7.850  15.712  32.133  0.00  0.00    +0.077 A 
ATOM      5  C   UNL     1      -7.624  16.957  31.458  0.00  0.00    +0.048 A 
ATOM      6  C   UNL     1      -8.235  17.133  30.197  0.00  0.00    +0.116 A 
ATOM      7  N   UNL     1      -9.013  16.130  29.659  0.00  0.00    -0.223 NA
ATOM      8  C   UNL     1      -9.210  14.940  30.335  0.00  0.00    +0.220 A 
ATOM      9  N   UNL     1      -9.995  13.922  29.817  0.00  0.00    -0.283 N 
ATOM     36  H   UNL     1     -10.109  13.056  30.343  0.00  0.00    +0.155 HD
ATOM     37  N   UNL     1      -8.636  14.748  31.541  0.00  0.00    -0.214 NA
BRANCH   4   3
ATOM      1  C   UNL     1      -5.591  14.233  34.963  0.00  0.00    +0.020 A 
ATOM      2  C   UNL     1      -6.107  14.524  33.645  0.00  0.00    +0.013 A 
ATOM      3  C   UNL     1      -7.275  15.378  33.474  0.00  0.00    +0.019 A 
ATOM     38  C   UNL     1      -7.903  15.926  34.667  0.00  0.00    +0.120 A 
ATOM     39  N   UNL     1      -7.386  15.628  35.923  0.00  0.00    -0.263 NA
ATOM     40  C   UNL     1      -6.262  14.806  36.100  0.00  0.00    +0.111 A 
ENDBRANCH   4   3
ENDBRANCH  10   9
BRANCH  12  13
ATOM     13  N   UNL     1      -9.772  15.200  25.014  0.00  0.00    -0.281 N 
ATOM     14  C   UNL     1      -9.115  16.409  24.858  0.00  0.00    +0.248 C 
ATOM     30  O   UNL     1      -9.225  17.359  25.620  0.00  0.00    -0.270 OA
ATOM     31  H   UNL     1      -9.747  14.570  24.212  0.00  0.00    +0.155 HD
BRANCH  14  15
ATOM     15  C   UNL     1      -8.218  16.596  23.678  0.00  0.00    +0.037 A 
ATOM     16  C   UNL     1      -7.003  17.411  23.768  0.00  0.00    +0.013 A 
ATOM     17  C   UNL     1      -6.164  17.589  22.610  0.00  0.00    +0.005 A 
ATOM     18  C   UNL     1      -6.536  16.949  21.351  0.00  0.00    -0.033 A 
ATOM     28  C   UNL     1      -7.743  16.142  21.290  0.00  0.00    +0.005 A 
ATOM     29  C   UNL     1      -8.569  15.966  22.423  0.00  0.00    +0.013 A 
BRANCH  18  19
ATOM     19  C   UNL     1      -5.711  17.102  20.059  0.00  0.00    +0.119 C 
BRANCH  19  20
ATOM     20  N   UNL     1      -4.459  16.296  19.948  0.00  0.00    -0.302 NA
ATOM     21  C   UNL     1      -3.213  17.121  20.283  0.00  0.00    +0.066 C 
ATOM     22  C   UNL     1      -1.914  16.257  20.184  0.00  0.00    -0.064 C 
ATOM     23  N   UNL     1      -1.808  15.660  18.779  0.00  0.00    +0.379 N 
ATOM     24  C   UNL     1      -0.558  14.894  18.665  0.00  0.00    -0.096 C 
ATOM     25  H   UNL     1      -1.753  16.507  18.056  0.00  0.00    -0.082 HD
ATOM     26  C   UNL     1      -3.044  14.840  18.437  0.00  0.00    -0.064 C 
ATOM     27  C   UNL     1      -4.331  15.701  18.567  0.00  0.00    +0.066 C 
ENDBRANCH  19  20
ENDBRANCH  18  19
ENDBRANCH  14  15
ENDBRANCH  12  13
TORSDOF 6
ENDMDL
MODEL 2
REMARK VINA RESULT:     -10.3      5.279     12.517
REMARK  Name = C:\Users\Docking\Desktop\test protocol\1iep_ligandH.pdb
REMARK  8 active torsions:
REMARK  status: ('A' for Active; 'I' for Inactive)
REMARK    1  A    between atoms: _5  and  _11
REMARK    2  A    between atoms: _19  and  _21
REMARK    3  A    between atoms: _22  and  _66
REMARK    4  A    between atoms: _27  and  _30
REMARK    5  A    between atoms: _32  and  _33
REMARK    6  A    between atoms: _38  and  _43
REMARK    7  A    between atoms: _43  and  _46
REMARK    8  A    between atoms: _53  and  _55
REMARK                            x       y       z     vdW  Elec       q    Type
REMARK                         _______ _______ _______ _____ _____    ______ ____
ROOT
ATOM     10  C   UNL     1      -9.398  15.751  31.484  0.00  0.00    +0.038 A 
ATOM     11  C   UNL     1     -10.771  15.570  31.178  0.00  0.00    +0.047 A 
ATOM     12  C   UNL     1     -11.646  14.814  32.060  0.00  0.00    +0.035 A 
ATOM     32  C   UNL     1     -11.089  14.257  33.248  0.00  0.00    +0.024 A 
ATOM     33  C   UNL     1      -9.696  14.431  33.575  0.00  0.00    +0.007 A 
ATOM     34  C   UNL     1      -8.827  15.174  32.707  0.00  0.00    -0.029 A 
ATOM     35  C   UNL     1      -7.340  15.323  33.105  0.00  0.00    +0.045 C 
ENDROOT
BRANCH  10   9
ATOM      4  C   UNL     1      -7.074  16.281  27.318  0.00  0.00    +0.077 A 
ATOM      5  C   UNL     1      -7.452  14.970  26.873  0.00  0.00    +0.048 A 
ATOM      6  C   UNL     1      -8.238  14.189  27.749  0.00  0.00    +0.116 A 
ATOM      7  N   UNL     1      -8.614  14.691  28.976  0.00  0.00    -0.223 NA
ATOM      8  C   UNL     1      -8.231  15.959  29.376  0.00  0.00    +0.220 A 
ATOM      9  N   UNL     1      -8.604  16.487  30.602  0.00  0.00    -0.283 N 
ATOM     36  H   UNL     1      -8.295  17.423  30.862  0.00  0.00    +0.155 HD
ATOM     37  N   UNL     1      -7.479  16.724  28.558  0.00  0.00    -0.214 NA
BRANCH   4   3
ATOM      1  C   UNL     1      -4.847  19.307  26.233  0.00  0.00    +0.020 A 
ATOM      2  C   UNL     1      -5.637  18.427  27.062  0.00  0.00    +0.013 A 
ATOM      3  C   UNL     1      -6.247  17.227  26.504  0.00  0.00    +0.019 A 
ATOM     38  C   UNL     1      -6.037  16.944  25.093  0.00  0.00    +0.120 A 
ATOM     39  N   UNL     1      -5.272  17.811  24.318  0.00  0.00    -0.263 NA
ATOM     40  C   UNL     1      -4.681  18.970  24.844  0.00  0.00    +0.111 A 
ENDBRANCH   4   3
ENDBRANCH  10   9
BRANCH  12  13
ATOM     13  N   UNL     1     -13.045  14.590  31.796  0.00  0.00    -0.281 N 
ATOM     14  C   UNL     1     -13.611  13.729  30.870  0.00  0.00    +0.248 C 
ATOM     30  O   UNL     1     -12.991  13.175  29.974  0.00  0.00    -0.270 OA
ATOM     31  H   UNL     1     -13.699  15.132  32.362  0.00  0.00    +0.155 HD
BRANCH  14  15
ATOM     15  C   UNL     1     -15.078  13.456  30.939  0.00  0.00    +0.037 A 
ATOM     16  C   UNL     1     -16.054  14.394  30.378  0.00  0.00    +0.013 A 
ATOM     17  C   UNL     1     -17.464  14.115  30.473  0.00  0.00    +0.005 A 
ATOM     18  C   UNL     1     -17.908  12.889  31.133  0.00  0.00    -0.033 A 
ATOM     28  C   UNL     1     -16.919  11.973  31.677  0.00  0.00    +0.005 A 
ATOM     29  C   UNL     1     -15.536  12.244  31.586  0.00  0.00    +0.013 A 
BRANCH  18  19
ATOM     19  C   UNL     1     -19.394  12.520  31.299  0.00  0.00    +0.119 C 
BRANCH  19  20
ATOM     20  N   UNL     1     -20.184  12.282  30.054  0.00  0.00    -0.302 NA
ATOM     21  C   UNL     1     -21.644  12.716  30.208  0.00  0.00    +0.066 C 
ATOM     22  C   UNL     1     -22.449  12.480  28.888  0.00  0.00    -0.064 C 
ATOM     23  N   UNL     1     -22.361  11.004  28.497  0.00  0.00    +0.379 N 
ATOM     24  C   UNL     1     -23.165  10.769  27.288  0.00  0.00    -0.096 C 
ATOM     25  H   UNL     1     -22.810  10.408  29.324  0.00  0.00    -0.082 HD
ATOM     26  C   UNL     1     -20.912  10.564  28.344  0.00  0.00    -0.064 C 
ATOM     27  C   UNL     1     -20.113  10.829  29.651  0.00  0.00    +0.066 C 
ENDBRANCH  19  20
ENDBRANCH  18  19
ENDBRANCH  14  15
ENDBRANCH  12  13
TORSDOF 6
ENDMDL
MODEL 3
REMARK VINA RESULT:     -10.1      3.857      7.305
REMARK  Name = C:\Users\Docking\Desktop\test protocol\1iep_ligandH.pdb
REMARK  8 active torsions:
REMARK  status: ('A' for Active; 'I' for Inactive)
REMARK    1  A    between atoms: _5  and  _11
REMARK    2  A    between atoms: _19  and  _21
REMARK    3  A    between atoms: _22  and  _66
REMARK    4  A    between atoms: _27  and  _30
REMARK    5  A    between atoms: _32  and  _33
REMARK    6  A    between atoms: _38  and  _43
REMARK    7  A    between atoms: _43  and  _46
REMARK    8  A    between atoms: _53  and  _55
REMARK                            x       y       z     vdW  Elec       q    Type
REMARK                         _______ _______ _______ _____ _____    ______ ____
ROOT
ATOM     10  C   UNL     1     -11.338  15.274  32.785  0.00  0.00    +0.038 A 
ATOM     11  C   UNL     1     -10.414  15.541  31.742  0.00  0.00    +0.047 A 
ATOM     12  C   UNL     1      -8.984  15.597  32.002  0.00  0.00    +0.035 A 
ATOM     32  C   UNL     1      -8.529  15.375  33.334  0.00  0.00    +0.024 A 
ATOM     33  C   UNL     1      -9.455  15.104  34.406  0.00  0.00    +0.007 A 
ATOM     34  C   UNL     1     -10.867  15.049  34.156  0.00  0.00    -0.029 A 
ATOM     35  C   UNL     1     -11.814  14.761  35.345  0.00  0.00    +0.045 C 
ENDROOT
BRANCH  10   9
ATOM      4  C   UNL     1     -15.307  12.922  31.461  0.00  0.00    +0.077 A 
ATOM      5  C   UNL     1     -14.601  11.678  31.341  0.00  0.00    +0.048 A 
ATOM      6  C   UNL     1     -13.217  11.689  31.622  0.00  0.00    +0.116 A 
ATOM      7  N   UNL     1     -12.595  12.860  31.995  0.00  0.00    -0.223 NA
ATOM      8  C   UNL     1     -13.304  14.043  32.099  0.00  0.00    +0.220 A 
ATOM      9  N   UNL     1     -12.700  15.231  32.479  0.00  0.00    -0.283 N 
ATOM     36  H   UNL     1     -13.257  16.084  32.537  0.00  0.00    +0.155 HD
ATOM     37  N   UNL     1     -14.627  14.060  31.834  0.00  0.00    -0.214 NA
BRANCH   4   3
ATOM      1  C   UNL     1     -18.763  14.305  30.259  0.00  0.00    +0.020 A 
ATOM      2  C   UNL     1     -17.339  14.208  30.484  0.00  0.00    +0.013 A 
ATOM      3  C   UNL     1     -16.774  13.072  31.200  0.00  0.00    +0.019 A 
ATOM     38  C   UNL     1     -17.684  12.042  31.678  0.00  0.00    +0.120 A 
ATOM     39  N   UNL     1     -19.050  12.162  31.448  0.00  0.00    -0.263 NA
ATOM     40  C   UNL     1     -19.606  13.252  30.761  0.00  0.00    +0.111 A 
ENDBRANCH   4   3
ENDBRANCH  10   9
BRANCH  12  13
ATOM     13  N   UNL     1      -7.998  15.872  30.985  0.00  0.00    -0.281 N 
ATOM     14  C   UNL     1      -8.009  15.472  29.659  0.00  0.00    +0.248 C 
ATOM     30  O   UNL     1      -8.766  14.633  29.196  0.00  0.00    -0.270 OA
ATOM     31  H   UNL     1      -7.196  16.429  31.279  0.00  0.00    +0.155 HD
BRANCH  14  15
ATOM     15  C   UNL     1      -7.026  16.083  28.713  0.00  0.00    +0.037 A 
ATOM     16  C   UNL     1      -6.978  15.684  27.304  0.00  0.00    +0.013 A 
ATOM     17  C   UNL     1      -6.008  16.276  26.417  0.00  0.00    +0.005 A 
ATOM     18  C   UNL     1      -5.079  17.276  26.937  0.00  0.00    -0.033 A 
ATOM     28  C   UNL     1      -5.152  17.658  28.338  0.00  0.00    +0.005 A 
ATOM     29  C   UNL     1      -6.100  17.078  29.210  0.00  0.00    +0.013 A 
BRANCH  18  19
ATOM     19  C   UNL     1      -3.998  17.945  26.068  0.00  0.00    +0.119 C 
BRANCH  19  20
ATOM     20  N   UNL     1      -3.598  17.242  24.812  0.00  0.00    -0.302 NA
ATOM     21  C   UNL     1      -2.204  16.619  24.921  0.00  0.00    +0.066 C 
ATOM     22  C   UNL     1      -1.811  15.869  23.607  0.00  0.00    -0.064 C 
ATOM     23  N   UNL     1      -1.879  16.841  22.428  0.00  0.00    +0.379 N 
ATOM     24  C   UNL     1      -1.455  16.153  21.200  0.00  0.00    -0.096 C 
ATOM     25  H   UNL     1      -1.152  17.662  22.625  0.00  0.00    -0.082 HD
ATOM     26  C   UNL     1      -3.262  17.467  22.314  0.00  0.00    -0.064 C 
ATOM     27  C   UNL     1      -3.655  18.185  23.635  0.00  0.00    +0.066 C 
ENDBRANCH  19  20
ENDBRANCH  18  19
ENDBRANCH  14  15
ENDBRANCH  12  13
TORSDOF 6
ENDMDL
MODEL 4
REMARK VINA RESULT:     -10.0      3.041      6.587
REMARK  Name = C:\Users\Docking\Desktop\test protocol\1iep_ligandH.pdb
REMARK  8 active torsions:
REMARK  status: ('A' for Active; 'I' for Inactive)
REMARK    1  A    between atoms: _5  and  _11
REMARK    2  A    between atoms: _19  and  _21
REMARK    3  A    between atoms: _22  and  _66
REMARK    4  A    between atoms: _27  and  _30
REMARK    5  A    between atoms: _32  and  _33
REMARK    6  A    between atoms: _38  and  _43
REMARK    7  A    between atoms: _43  and  _46
REMARK    8  A    between atoms: _53  and  _55
REMARK                            x       y       z     vdW  Elec       q    Type
REMARK                         _______ _______ _______ _____ _____    ______ ____
ROOT
ATOM     10  C   UNL     1      -9.797  15.588  32.499  0.00  0.00    +0.038 A 
ATOM     11  C   UNL     1      -9.068  16.018  31.361  0.00  0.00    +0.047 A 
ATOM     12  C   UNL     1      -7.622  16.174  31.408  0.00  0.00    +0.035 A 
ATOM     32  C   UNL     1      -6.951  15.881  32.631  0.00  0.00    +0.024 A 
ATOM     33  C   UNL     1      -7.677  15.443  33.798  0.00  0.00    +0.007 A 
ATOM     34  C   UNL     1      -9.103  15.290  33.757  0.00  0.00    -0.029 A 
ATOM     35  C   UNL     1      -9.830  14.824  35.040  0.00  0.00    +0.045 C 
ENDROOT
BRANCH  10   9
ATOM      4  C   UNL     1     -13.728  13.411  30.810  0.00  0.00    +0.077 A 
ATOM      5  C   UNL     1     -12.953  12.477  30.045  0.00  0.00    +0.048 A 
ATOM      6  C   UNL     1     -11.547  12.595  30.107  0.00  0.00    +0.116 A 
ATOM      7  N   UNL     1     -10.968  13.577  30.881  0.00  0.00    -0.223 NA
ATOM      8  C   UNL     1     -11.744  14.463  31.606  0.00  0.00    +0.220 A 
ATOM      9  N   UNL     1     -11.184  15.454  32.397  0.00  0.00    -0.283 N 
ATOM     36  H   UNL     1     -11.791  16.093  32.910  0.00  0.00    +0.155 HD
ATOM     37  N   UNL     1     -13.090  14.373  31.561  0.00  0.00    -0.214 NA
BRANCH   4   3
ATOM      1  C   UNL     1     -17.476  14.371  30.237  0.00  0.00    +0.020 A 
ATOM      2  C   UNL     1     -16.034  14.415  30.168  0.00  0.00    +0.013 A 
ATOM      3  C   UNL     1     -15.224  13.413  30.849  0.00  0.00    +0.019 A 
ATOM     38  C   UNL     1     -15.911  12.370  31.598  0.00  0.00    +0.120 A 
ATOM     39  N   UNL     1     -17.301  12.354  31.648  0.00  0.00    -0.263 NA
ATOM     40  C   UNL     1     -18.091  13.314  30.998  0.00  0.00    +0.111 A 
ENDBRANCH   4   3
ENDBRANCH  10   9
BRANCH  12  13
ATOM     13  N   UNL     1      -6.830  16.615  30.288  0.00  0.00    -0.281 N 
ATOM     14  C   UNL     1      -6.914  16.200  28.969  0.00  0.00    +0.248 C 
ATOM     30  O   UNL     1      -7.545  15.224  28.590  0.00  0.00    -0.270 OA
ATOM     31  H   UNL     1      -6.120  17.319  30.491  0.00  0.00    +0.155 HD
BRANCH  14  15
ATOM     15  C   UNL     1      -6.180  16.971  27.920  0.00  0.00    +0.037 A 
ATOM     16  C   UNL     1      -5.047  16.386  27.200  0.00  0.00    +0.013 A 
ATOM     17  C   UNL     1      -4.345  17.158  26.205  0.00  0.00    +0.005 A 
ATOM     18  C   UNL     1      -4.776  18.525  25.924  0.00  0.00    -0.033 A 
ATOM     28  C   UNL     1      -5.907  19.079  26.650  0.00  0.00    +0.005 A 
ATOM     29  C   UNL     1      -6.596  18.326  27.626  0.00  0.00    +0.013 A 
BRANCH  18  19
ATOM     19  C   UNL     1      -4.073  19.429  24.895  0.00  0.00    +0.119 C 
BRANCH  19  20
ATOM     20  N   UNL     1      -4.233  19.076  23.452  0.00  0.00    -0.302 NA
ATOM     21  C   UNL     1      -5.498  18.250  23.200  0.00  0.00    +0.066 C 
ATOM     22  C   UNL     1      -5.662  17.909  21.683  0.00  0.00    -0.064 C 
ATOM     23  N   UNL     1      -4.420  17.161  21.195  0.00  0.00    +0.379 N 
ATOM     24  C   UNL     1      -4.596  16.788  19.783  0.00  0.00    -0.096 C 
ATOM     25  H   UNL     1      -4.338  16.220  21.786  0.00  0.00    -0.082 HD
ATOM     26  C   UNL     1      -3.158  17.974  21.444  0.00  0.00    -0.064 C 
ATOM     27  C   UNL     1      -3.020  18.333  22.950  0.00  0.00    +0.066 C 
ENDBRANCH  19  20
ENDBRANCH  18  19
ENDBRANCH  14  15
ENDBRANCH  12  13
TORSDOF 6
ENDMDL
MODEL 5
REMARK VINA RESULT:      -9.9      5.479     12.470
REMARK  Name = C:\Users\Docking\Desktop\test protocol\1iep_ligandH.pdb
REMARK  8 active torsions:
REMARK  status: ('A' for Active; 'I' for Inactive)
REMARK    1  A    between atoms: _5  and  _11
REMARK    2  A    between atoms: _19  and  _21
REMARK    3  A    between atoms: _22  and  _66
REMARK    4  A    between atoms: _27  and  _30
REMARK    5  A    between atoms: _32  and  _33
REMARK    6  A    between atoms: _38  and  _43
REMARK    7  A    between atoms: _43  and  _46
REMARK    8  A    between atoms: _53  and  _55
REMARK                            x       y       z     vdW  Elec       q    Type
REMARK                         _______ _______ _______ _____ _____    ______ ____
ROOT
ATOM     10  C   UNL     1      -9.794  15.250  32.348  0.00  0.00    +0.038 A 
ATOM     11  C   UNL     1     -11.105  15.020  31.860  0.00  0.00    +0.047 A 
ATOM     12  C   UNL     1     -12.226  14.836  32.769  0.00  0.00    +0.035 A 
ATOM     32  C   UNL     1     -11.975  14.895  34.171  0.00  0.00    +0.024 A 
ATOM     33  C   UNL     1     -10.648  15.127  34.685  0.00  0.00    +0.007 A 
ATOM     34  C   UNL     1      -9.538  15.307  33.793  0.00  0.00    -0.029 A 
ATOM     35  C   UNL     1      -8.136  15.546  34.400  0.00  0.00    +0.045 C 
ENDROOT
BRANCH  10   9
ATOM      4  C   UNL     1      -8.074  16.786  28.139  0.00  0.00    +0.077 A 
ATOM      5  C   UNL     1      -9.360  17.267  27.722  0.00  0.00    +0.048 A 
ATOM      6  C   UNL     1     -10.439  17.093  28.617  0.00  0.00    +0.116 A 
ATOM      7  N   UNL     1     -10.236  16.483  29.836  0.00  0.00    -0.223 NA
ATOM      8  C   UNL     1      -8.984  16.029  30.206  0.00  0.00    +0.220 A 
ATOM      9  N   UNL     1      -8.755  15.420  31.430  0.00  0.00    -0.283 N 
ATOM     36  H   UNL     1      -7.818  15.092  31.663  0.00  0.00    +0.155 HD
ATOM     37  N   UNL     1      -7.937  16.182  29.368  0.00  0.00    -0.214 NA
BRANCH   4   3
ATOM      1  C   UNL     1      -4.334  17.074  27.029  0.00  0.00    +0.020 A 
ATOM      2  C   UNL     1      -5.498  16.966  27.879  0.00  0.00    +0.013 A 
ATOM      3  C   UNL     1      -6.836  16.899  27.305  0.00  0.00    +0.019 A 
ATOM     38  C   UNL     1      -6.963  16.945  25.856  0.00  0.00    +0.120 A 
ATOM     39  N   UNL     1      -5.825  17.051  25.063  0.00  0.00    -0.263 NA
ATOM     40  C   UNL     1      -4.532  17.117  25.604  0.00  0.00    +0.111 A 
ENDBRANCH   4   3
ENDBRANCH  10   9
BRANCH  12  13
ATOM     13  N   UNL     1     -13.577  14.591  32.331  0.00  0.00    -0.281 N 
ATOM     14  C   UNL     1     -14.014  13.677  31.386  0.00  0.00    +0.248 C 
ATOM     30  O   UNL     1     -13.281  13.075  30.616  0.00  0.00    -0.270 OA
ATOM     31  H   UNL     1     -14.300  15.161  32.771  0.00  0.00    +0.155 HD
BRANCH  14  15
ATOM     15  C   UNL     1     -15.479  13.401  31.271  0.00  0.00    +0.037 A 
ATOM     16  C   UNL     1     -16.368  14.311  30.545  0.00  0.00    +0.013 A 
ATOM     17  C   UNL     1     -17.780  14.030  30.463  0.00  0.00    +0.005 A 
ATOM     18  C   UNL     1     -18.310  12.833  31.110  0.00  0.00    -0.033 A 
ATOM     28  C   UNL     1     -17.405  11.945  31.820  0.00  0.00    +0.005 A 
ATOM     29  C   UNL     1     -16.021  12.217  31.903  0.00  0.00    +0.013 A 
BRANCH  18  19
ATOM     19  C   UNL     1     -19.806  12.466  31.093  0.00  0.00    +0.119 C 
BRANCH  19  20
ATOM     20  N   UNL     1     -20.439  12.238  29.759  0.00  0.00    -0.302 NA
ATOM     21  C   UNL     1     -21.928  12.596  29.762  0.00  0.00    +0.066 C 
ATOM     22  C   UNL     1     -22.569  12.373  28.353  0.00  0.00    -0.064 C 
ATOM     23  N   UNL     1     -22.362  10.919  27.925  0.00  0.00    +0.379 N 
ATOM     24  C   UNL     1     -23.013  10.692  26.627  0.00  0.00    -0.096 C 
ATOM     25  H   UNL     1     -22.868  10.270  28.677  0.00  0.00    -0.082 HD
ATOM     26  C   UNL     1     -20.884  10.555  27.923  0.00  0.00    -0.064 C 
ATOM     27  C   UNL     1     -20.250  10.807  29.319  0.00  0.00    +0.066 C 
ENDBRANCH  19  20
ENDBRANCH  18  19
ENDBRANCH  14  15
ENDBRANCH  12  13
TORSDOF 6
ENDMDL
