MODEL 1
REMARK VINA RESULT:      -8.5      0.000      0.000
REMARK  Name = C:\Users\Docking\Desktop\test protocol\1iep_ligandH.pdb
REMARK  8 active torsions:
REMARK  status: ('A' for Active; 'I' for Inactive)
REMARK    1  A    between atoms: _5  and  _11
REMARK    2  A    between atoms: _19  and  _21
REMARK    3  A    between atoms: _22  and  _66
REMARK    4  A    between atoms: _27  and  _30
REMARK    5  A    between atoms: _32  and  _33
REMARK    6  A    between atoms: _38  and  _43
REMARK    7  A    between atoms: _43  and  _46
REMARK    8  A    between atoms: _53  and  _55
REMARK                            x       y       z     vdW  Elec       q    Type
REMARK                         _______ _______ _______ _____ _____    ______ ____
ROOT
ATOM     10  C   UNL     1      13.757  20.326  22.739  0.00  0.00    +0.038 A 
ATOM     11  C   UNL     1      13.473  19.849  24.044  0.00  0.00    +0.047 A 
ATOM     12  C   UNL     1      12.108  19.570  24.462  0.00  0.00    +0.035 A 
ATOM     32  C   UNL     1      11.057  19.786  23.525  0.00  0.00    +0.024 A 
ATOM     33  C   UNL     1      11.327  20.271  22.194  0.00  0.00    +0.007 A 
ATOM     34  C   UNL     1      12.671  20.550  21.777  0.00  0.00    -0.029 A 
ATOM     35  C   UNL     1      12.902  21.075  20.340  0.00  0.00    +0.045 C 
ENDROOT
BRANCH  10   9
ATOM      4  C   UNL     1      18.007  18.946  20.985  0.00  0.00    +0.077 A 
ATOM      5  C   UNL     1      17.549  17.603  20.770  0.00  0.00    +0.048 A 
ATOM      6  C   UNL     1      16.215  17.307  21.131  0.00  0.00    +0.116 A 
ATOM      7  N   UNL     1      15.408  18.289  21.666  0.00  0.00    -0.223 NA
ATOM      8  C   UNL     1      15.882  19.573  21.861  0.00  0.00    +0.220 A 
ATOM      9  N   UNL     1      15.086  20.577  22.390  0.00  0.00    -0.283 N 
ATOM     36  H   UNL     1      15.475  21.510  22.525  0.00  0.00    +0.155 HD
ATOM     37  N   UNL     1      17.152  19.880  21.526  0.00  0.00    -0.214 NA
BRANCH   4   3
ATOM      1  C   UNL     1      21.303  21.046  20.840  0.00  0.00    +0.020 A 
ATOM      2  C   UNL     1      19.963  20.639  21.194  0.00  0.00    +0.013 A 
ATOM      3  C   UNL     1      19.389  19.414  20.651  0.00  0.00    +0.019 A 
ATOM     38  C   UNL     1      20.204  18.617  19.746  0.00  0.00    +0.120 A 
ATOM     39  N   UNL     1      21.491  19.035  19.423  0.00  0.00    -0.263 NA
ATOM     40  C   UNL     1      22.053  20.213  19.937  0.00  0.00    +0.111 A 
ENDBRANCH   4   3
ENDBRANCH  10   9
BRANCH  12  13
ATOM     13  N   UNL     1      11.758  19.092  25.777  0.00  0.00    -0.281 N 
ATOM     14  C   UNL     1      11.655  17.779  26.206  0.00  0.00    +0.248 C 
ATOM     30  O   UNL     1      11.639  16.808  25.463  0.00  0.00    -0.270 OA
ATOM     31  H   UNL     1      11.563  19.809  26.476  0.00  0.00    +0.155 HD
BRANCH  14  15
ATOM     15  C   UNL     1      11.537  17.505  27.670  0.00  0.00    +0.037 A 
ATOM     16  C   UNL     1      11.535  18.594  28.650  0.00  0.00    +0.013 A 
ATOM     17  C   UNL     1      11.437  18.301  30.058  0.00  0.00    +0.005 A 
ATOM     18  C   UNL     1      11.338  16.911  30.494  0.00  0.00    -0.033 A 
ATOM     28  C   UNL     1      11.337  15.850  29.501  0.00  0.00    +0.005 A 
ATOM     29  C   UNL     1      11.434  16.133  28.120  0.00  0.00    +0.013 A 
BRANCH  18  19
ATOM     19  C   UNL     1      11.251  16.504  31.977  0.00  0.00    +0.119 C 
BRANCH  19  20
ATOM     20  N   UNL     1      12.435  16.801  32.838  0.00  0.00    -0.302 NA
ATOM     21  C   UNL     1      12.386  18.219  33.414  0.00  0.00    +0.066 C 
ATOM     22  C   UNL     1      13.621  18.504  34.330  0.00  0.00    -0.064 C 
ATOM     23  N   UNL     1      14.907  18.288  33.530  0.00  0.00    +0.379 N 
ATOM     24  C   UNL     1      16.068  18.611  34.371  0.00  0.00    -0.096 C 
ATOM     25  H   UNL     1      14.898  19.004  32.676  0.00  0.00    -0.082 HD
ATOM     26  C   UNL     1      14.962  16.881  32.952  0.00  0.00    -0.064 C 
ATOM     27  C   UNL     1      13.716  16.598  32.067  0.00  0.00    +0.066 C 
ENDBRANCH  19  20
ENDBRANCH  18  19
ENDBRANCH  14  15
ENDBRANCH  12  13
TORSDOF 6
ENDMDL
MODEL 2
REMARK VINA RESULT:      -8.4      1.098      1.643
REMARK  Name = C:\Users\Docking\Desktop\test protocol\1iep_ligandH.pdb
REMARK  8 active torsions:
REMARK  status: ('A' for Active; 'I' for Inactive)
REMARK    1  A    between atoms: _5  and  _11
REMARK    2  A    between atoms: _19  and  _21
REMARK    3  A    between atoms: _22  and  _66
REMARK    4  A    between atoms: _27  and  _30
REMARK    5  A    between atoms: _32  and  _33
REMARK    6  A    between atoms: _38  and  _43
REMARK    7  A    between atoms: _43  and  _46
REMARK    8  A    between atoms: _53  and  _55
REMARK                            x       y       z     vdW  Elec       q    Type
REMARK                         _______ _______ _______ _____ _____    ______ ____
ROOT
ATOM     10  C   UNL     1      13.567  20.915  21.892  0.00  0.00    +0.038 A 
ATOM     11  C   UNL     1      13.326  20.429  23.202  0.00  0.00    +0.047 A 
ATOM     12  C   UNL     1      11.999  19.997  23.612  0.00  0.00    +0.035 A 
ATOM     32  C   UNL     1      10.940  20.072  22.661  0.00  0.00    +0.024 A 
ATOM     33  C   UNL     1      11.167  20.564  21.325  0.00  0.00    +0.007 A 
ATOM     34  C   UNL     1      12.473  20.994  20.915  0.00  0.00    -0.029 A 
ATOM     35  C   UNL     1      12.657  21.519  19.473  0.00  0.00    +0.045 C 
ENDROOT
BRANCH  10   9
ATOM      4  C   UNL     1      18.122  19.964  20.717  0.00  0.00    +0.077 A 
ATOM      5  C   UNL     1      17.914  18.548  20.816  0.00  0.00    +0.048 A 
ATOM      6  C   UNL     1      16.622  18.106  21.178  0.00  0.00    +0.116 A 
ATOM      7  N   UNL     1      15.620  19.020  21.421  0.00  0.00    -0.223 NA
ATOM      8  C   UNL     1      15.855  20.379  21.319  0.00  0.00    +0.220 A 
ATOM      9  N   UNL     1      14.861  21.317  21.551  0.00  0.00    -0.283 N 
ATOM     36  H   UNL     1      15.076  22.310  21.473  0.00  0.00    +0.155 HD
ATOM     37  N   UNL     1      17.081  20.827  20.976  0.00  0.00    -0.214 NA
BRANCH   4   3
ATOM      1  C   UNL     1      21.702  21.528  20.904  0.00  0.00    +0.020 A 
ATOM      2  C   UNL     1      20.455  20.930  21.320  0.00  0.00    +0.013 A 
ATOM      3  C   UNL     1      19.431  20.586  20.341  0.00  0.00    +0.019 A 
ATOM     38  C   UNL     1      19.704  20.861  18.938  0.00  0.00    +0.120 A 
ATOM     39  N   UNL     1      20.914  21.440  18.568  0.00  0.00    -0.263 NA
ATOM     40  C   UNL     1      21.905  21.777  19.501  0.00  0.00    +0.111 A 
ENDBRANCH   4   3
ENDBRANCH  10   9
BRANCH  12  13
ATOM     13  N   UNL     1      11.692  19.502  24.931  0.00  0.00    -0.281 N 
ATOM     14  C   UNL     1      11.428  18.196  25.311  0.00  0.00    +0.248 C 
ATOM     30  O   UNL     1      11.204  17.282  24.532  0.00  0.00    -0.270 OA
ATOM     31  H   UNL     1      11.667  20.199  25.676  0.00  0.00    +0.155 HD
BRANCH  14  15
ATOM     15  C   UNL     1      11.394  17.861  26.767  0.00  0.00    +0.037 A 
ATOM     16  C   UNL     1      11.006  16.526  27.230  0.00  0.00    +0.013 A 
ATOM     17  C   UNL     1      10.964  16.233  28.641  0.00  0.00    +0.005 A 
ATOM     18  C   UNL     1      11.314  17.279  29.599  0.00  0.00    -0.033 A 
ATOM     28  C   UNL     1      11.700  18.593  29.113  0.00  0.00    +0.005 A 
ATOM     29  C   UNL     1      11.741  18.883  27.730  0.00  0.00    +0.013 A 
BRANCH  18  19
ATOM     19  C   UNL     1      11.277  17.062  31.124  0.00  0.00    +0.119 C 
BRANCH  19  20
ATOM     20  N   UNL     1      12.537  17.322  31.882  0.00  0.00    -0.302 NA
ATOM     21  C   UNL     1      13.581  16.226  31.654  0.00  0.00    +0.066 C 
ATOM     22  C   UNL     1      14.901  16.526  32.437  0.00  0.00    -0.064 C 
ATOM     23  N   UNL     1      14.585  16.672  33.927  0.00  0.00    +0.379 N 
ATOM     24  C   UNL     1      15.832  16.896  34.673  0.00  0.00    -0.096 C 
ATOM     25  H   UNL     1      14.150  15.706  34.276  0.00  0.00    -0.082 HD
ATOM     26  C   UNL     1      13.545  17.758  34.162  0.00  0.00    -0.064 C 
ATOM     27  C   UNL     1      12.248  17.466  33.356  0.00  0.00    +0.066 C 
ENDBRANCH  19  20
ENDBRANCH  18  19
ENDBRANCH  14  15
ENDBRANCH  12  13
TORSDOF 6
ENDMDL
MODEL 3
REMARK VINA RESULT:      -8.3      9.658     14.503
REMARK  Name = C:\Users\Docking\Desktop\test protocol\1iep_ligandH.pdb
REMARK  8 active torsions:
REMARK  status: ('A' for Active; 'I' for Inactive)
REMARK    1  A    between atoms: _5  and  _11
REMARK    2  A    between atoms: _19  and  _21
REMARK    3  A    between atoms: _22  and  _66
REMARK    4  A    between atoms: _27  and  _30
REMARK    5  A    between atoms: _32  and  _33
REMARK    6  A    between atoms: _38  and  _43
REMARK    7  A    between atoms: _43  and  _46
REMARK    8  A    between atoms: _53  and  _55
REMARK                            x       y       z     vdW  Elec       q    Type
REMARK                         _______ _______ _______ _____ _____    ______ ____
ROOT
ATOM     10  C   UNL     1      15.674   6.577  28.608  0.00  0.00    +0.038 A 
ATOM     11  C   UNL     1      15.242   7.923  28.711  0.00  0.00    +0.047 A 
ATOM     12  C   UNL     1      15.816   8.964  27.872  0.00  0.00    +0.035 A 
ATOM     32  C   UNL     1      16.828   8.597  26.938  0.00  0.00    +0.024 A 
ATOM     33  C   UNL     1      17.280   7.233  26.821  0.00  0.00    +0.007 A 
ATOM     34  C   UNL     1      16.719   6.203  27.647  0.00  0.00    -0.029 A 
ATOM     35  C   UNL     1      17.247   4.758  27.483  0.00  0.00    +0.045 C 
ENDROOT
BRANCH  10   9
ATOM      4  C   UNL     1      15.728   3.705  32.453  0.00  0.00    +0.077 A 
ATOM      5  C   UNL     1      17.046   4.130  32.826  0.00  0.00    +0.048 A 
ATOM      6  C   UNL     1      17.679   5.084  31.998  0.00  0.00    +0.116 A 
ATOM      7  N   UNL     1      17.032   5.570  30.883  0.00  0.00    -0.223 NA
ATOM      8  C   UNL     1      15.761   5.137  30.550  0.00  0.00    +0.220 A 
ATOM      9  N   UNL     1      15.088   5.618  29.438  0.00  0.00    -0.283 N 
ATOM     36  H   UNL     1      14.155   5.268  29.222  0.00  0.00    +0.155 HD
ATOM     37  N   UNL     1      15.136   4.225  31.324  0.00  0.00    -0.214 NA
BRANCH   4   3
ATOM      1  C   UNL     1      14.637   0.470  34.363  0.00  0.00    +0.020 A 
ATOM      2  C   UNL     1      15.450   1.399  33.613  0.00  0.00    +0.013 A 
ATOM      3  C   UNL     1      14.929   2.705  33.229  0.00  0.00    +0.019 A 
ATOM     38  C   UNL     1      13.570   3.042  33.624  0.00  0.00    +0.120 A 
ATOM     39  N   UNL     1      12.809   2.127  34.345  0.00  0.00    -0.263 NA
ATOM     40  C   UNL     1      13.300   0.867  34.718  0.00  0.00    +0.111 A 
ENDBRANCH   4   3
ENDBRANCH  10   9
BRANCH  12  13
ATOM     13  N   UNL     1      15.423  10.350  27.938  0.00  0.00    -0.281 N 
ATOM     14  C   UNL     1      14.815  11.110  26.952  0.00  0.00    +0.248 C 
ATOM     30  O   UNL     1      14.710  10.769  25.783  0.00  0.00    -0.270 OA
ATOM     31  H   UNL     1      15.616  10.829  28.817  0.00  0.00    +0.155 HD
BRANCH  14  15
ATOM     15  C   UNL     1      14.255  12.448  27.313  0.00  0.00    +0.037 A 
ATOM     16  C   UNL     1      12.972  12.905  26.776  0.00  0.00    +0.013 A 
ATOM     17  C   UNL     1      12.463  14.207  27.127  0.00  0.00    +0.005 A 
ATOM     18  C   UNL     1      13.238  15.061  28.024  0.00  0.00    -0.033 A 
ATOM     28  C   UNL     1      14.506  14.580  28.547  0.00  0.00    +0.005 A 
ATOM     29  C   UNL     1      15.009  13.305  28.204  0.00  0.00    +0.013 A 
BRANCH  18  19
ATOM     19  C   UNL     1      12.783  16.473  28.436  0.00  0.00    +0.119 C 
BRANCH  19  20
ATOM     20  N   UNL     1      12.660  17.495  27.354  0.00  0.00    -0.302 NA
ATOM     21  C   UNL     1      13.960  17.647  26.558  0.00  0.00    +0.066 C 
ATOM     22  C   UNL     1      13.807  18.704  25.416  0.00  0.00    -0.064 C 
ATOM     23  N   UNL     1      13.381  20.044  26.018  0.00  0.00    +0.379 N 
ATOM     24  C   UNL     1      13.293  21.054  24.954  0.00  0.00    -0.096 C 
ATOM     25  H   UNL     1      14.181  20.366  26.725  0.00  0.00    -0.082 HD
ATOM     26  C   UNL     1      12.091  19.901  26.814  0.00  0.00    -0.064 C 
ATOM     27  C   UNL     1      12.245  18.828  27.927  0.00  0.00    +0.066 C 
ENDBRANCH  19  20
ENDBRANCH  18  19
ENDBRANCH  14  15
ENDBRANCH  12  13
TORSDOF 6
ENDMDL
MODEL 4
REMARK VINA RESULT:      -8.2      4.443      7.775
REMARK  Name = C:\Users\Docking\Desktop\test protocol\1iep_ligandH.pdb
REMARK  8 active torsions:
REMARK  status: ('A' for Active; 'I' for Inactive)
REMARK    1  A    between atoms: _5  and  _11
REMARK    2  A    between atoms: _19  and  _21
REMARK    3  A    between atoms: _22  and  _66
REMARK    4  A    between atoms: _27  and  _30
REMARK    5  A    between atoms: _32  and  _33
REMARK    6  A    between atoms: _38  and  _43
REMARK    7  A    between atoms: _43  and  _46
REMARK    8  A    between atoms: _53  and  _55
REMARK                            x       y       z     vdW  Elec       q    Type
REMARK                         _______ _______ _______ _____ _____    ______ ____
ROOT
ATOM     10  C   UNL     1      11.088  20.623  21.244  0.00  0.00    +0.038 A 
ATOM     11  C   UNL     1      10.805  20.162  22.555  0.00  0.00    +0.047 A 
ATOM     12  C   UNL     1      11.849  20.074  23.563  0.00  0.00    +0.035 A 
ATOM     32  C   UNL     1      13.171  20.466  23.203  0.00  0.00    +0.024 A 
ATOM     33  C   UNL     1      13.477  20.936  21.874  0.00  0.00    +0.007 A 
ATOM     34  C   UNL     1      12.451  21.023  20.875  0.00  0.00    -0.029 A 
ATOM     35  C   UNL     1      12.837  21.528  19.465  0.00  0.00    +0.045 C 
ENDROOT
BRANCH  10   9
ATOM      4  C   UNL     1       7.505  22.952  19.057  0.00  0.00    +0.077 A 
ATOM      5  C   UNL     1       7.707  24.130  19.851  0.00  0.00    +0.048 A 
ATOM      6  C   UNL     1       8.739  24.093  20.816  0.00  0.00    +0.116 A 
ATOM      7  N   UNL     1       9.505  22.958  20.966  0.00  0.00    -0.223 NA
ATOM      8  C   UNL     1       9.283  21.838  20.186  0.00  0.00    +0.220 A 
ATOM      9  N   UNL     1      10.046  20.688  20.315  0.00  0.00    -0.283 N 
ATOM     36  H   UNL     1       9.846  19.881  19.726  0.00  0.00    +0.155 HD
ATOM     37  N   UNL     1       8.303  21.847  19.259  0.00  0.00    -0.214 NA
BRANCH   4   3
ATOM      1  C   UNL     1       4.672  21.568  16.742  0.00  0.00    +0.020 A 
ATOM      2  C   UNL     1       5.673  21.627  17.782  0.00  0.00    +0.013 A 
ATOM      3  C   UNL     1       6.457  22.837  17.995  0.00  0.00    +0.019 A 
ATOM     38  C   UNL     1       6.200  23.980  17.132  0.00  0.00    +0.120 A 
ATOM     39  N   UNL     1       5.230  23.894  16.137  0.00  0.00    -0.263 NA
ATOM     40  C   UNL     1       4.472  22.734  15.922  0.00  0.00    +0.111 A 
ENDBRANCH   4   3
ENDBRANCH  10   9
BRANCH  12  13
ATOM     13  N   UNL     1      11.623  19.606  24.908  0.00  0.00    -0.281 N 
ATOM     14  C   UNL     1      11.085  18.394  25.309  0.00  0.00    +0.248 C 
ATOM     30  O   UNL     1      10.515  17.611  24.564  0.00  0.00    -0.270 OA
ATOM     31  H   UNL     1      11.893  20.245  25.656  0.00  0.00    +0.155 HD
BRANCH  14  15
ATOM     15  C   UNL     1      11.180  18.002  26.748  0.00  0.00    +0.037 A 
ATOM     16  C   UNL     1      11.551  18.976  27.778  0.00  0.00    +0.013 A 
ATOM     17  C   UNL     1      11.652  18.568  29.157  0.00  0.00    +0.005 A 
ATOM     18  C   UNL     1      11.380  17.177  29.514  0.00  0.00    -0.033 A 
ATOM     28  C   UNL     1      11.008  16.233  28.473  0.00  0.00    +0.005 A 
ATOM     29  C   UNL     1      10.909  16.630  27.120  0.00  0.00    +0.013 A 
BRANCH  18  19
ATOM     19  C   UNL     1      11.484  16.649  30.956  0.00  0.00    +0.119 C 
BRANCH  19  20
ATOM     20  N   UNL     1      12.686  17.051  31.747  0.00  0.00    -0.302 NA
ATOM     21  C   UNL     1      13.852  16.078  31.554  0.00  0.00    +0.066 C 
ATOM     22  C   UNL     1      15.108  16.526  32.370  0.00  0.00    -0.064 C 
ATOM     23  N   UNL     1      14.738  16.639  33.849  0.00  0.00    +0.379 N 
ATOM     24  C   UNL     1      15.931  17.004  34.627  0.00  0.00    -0.096 C 
ATOM     25  H   UNL     1      14.404  15.632  34.193  0.00  0.00    -0.082 HD
ATOM     26  C   UNL     1      13.577  17.603  34.050  0.00  0.00    -0.064 C 
ATOM     27  C   UNL     1      12.343  17.165  33.212  0.00  0.00    +0.066 C 
ENDBRANCH  19  20
ENDBRANCH  18  19
ENDBRANCH  14  15
ENDBRANCH  12  13
TORSDOF 6
ENDMDL
MODEL 5
REMARK VINA RESULT:      -8.1     21.854     23.995
REMARK  Name = C:\Users\Docking\Desktop\test protocol\1iep_ligandH.pdb
REMARK  8 active torsions:
REMARK  status: ('A' for Active; 'I' for Inactive)
REMARK    1  A    between atoms: _5  and  _11
REMARK    2  A    between atoms: _19  and  _21
REMARK    3  A    between atoms: _22  and  _66
REMARK    4  A    between atoms: _27  and  _30
REMARK    5  A    between atoms: _32  and  _33
REMARK    6  A    between atoms: _38  and  _43
REMARK    7  A    between atoms: _43  and  _46
REMARK    8  A    between atoms: _53  and  _55
REMARK                            x       y       z     vdW  Elec       q    Type
REMARK                         _______ _______ _______ _____ _____    ______ ____
ROOT
ATOM     10  C   UNL     1      18.808  -4.364  35.185  0.00  0.00    +0.038 A 
ATOM     11  C   UNL     1      17.624  -3.592  35.297  0.00  0.00    +0.047 A 
ATOM     12  C   UNL     1      16.313  -4.192  35.098  0.00  0.00    +0.035 A 
ATOM     32  C   UNL     1      16.246  -5.581  34.789  0.00  0.00    +0.024 A 
ATOM     33  C   UNL     1      17.440  -6.381  34.671  0.00  0.00    +0.007 A 
ATOM     34  C   UNL     1      18.736  -5.795  34.863  0.00  0.00    -0.029 A 
ATOM     35  C   UNL     1      19.982  -6.698  34.718  0.00  0.00    +0.045 C 
ENDROOT
BRANCH  10   9
ATOM      4  C   UNL     1      22.515  -1.726  33.655  0.00  0.00    +0.077 A 
ATOM      5  C   UNL     1      21.963  -1.609  32.336  0.00  0.00    +0.048 A 
ATOM      6  C   UNL     1      20.727  -2.248  32.091  0.00  0.00    +0.116 A 
ATOM      7  N   UNL     1      20.099  -2.950  33.097  0.00  0.00    -0.223 NA
ATOM      8  C   UNL     1      20.659  -3.044  34.357  0.00  0.00    +0.220 A 
ATOM      9  N   UNL     1      20.040  -3.737  35.386  0.00  0.00    -0.283 N 
ATOM     36  H   UNL     1      20.489  -3.790  36.300  0.00  0.00    +0.155 HD
ATOM     37  N   UNL     1      21.839  -2.444  34.617  0.00  0.00    -0.214 NA
BRANCH   4   3
ATOM      1  C   UNL     1      25.169   0.746  35.119  0.00  0.00    +0.020 A 
ATOM      2  C   UNL     1      23.891   0.190  34.738  0.00  0.00    +0.013 A 
ATOM      3  C   UNL     1      23.811  -1.103  34.071  0.00  0.00    +0.019 A 
ATOM     38  C   UNL     1      25.052  -1.814  33.802  0.00  0.00    +0.120 A 
ATOM     39  N   UNL     1      26.268  -1.252  34.179  0.00  0.00    -0.263 NA
ATOM     40  C   UNL     1      26.358  -0.008  34.820  0.00  0.00    +0.111 A 
ENDBRANCH   4   3
ENDBRANCH  10   9
BRANCH  12  13
ATOM     13  N   UNL     1      15.077  -3.456  35.191  0.00  0.00    -0.281 N 
ATOM     14  C   UNL     1      14.311  -3.217  36.320  0.00  0.00    +0.248 C 
ATOM     30  O   UNL     1      14.464  -3.784  37.392  0.00  0.00    -0.270 OA
ATOM     31  H   UNL     1      14.723  -3.064  34.318  0.00  0.00    +0.155 HD
BRANCH  14  15
ATOM     15  C   UNL     1      13.206  -2.213  36.244  0.00  0.00    +0.037 A 
ATOM     16  C   UNL     1      13.166  -1.206  35.180  0.00  0.00    +0.013 A 
ATOM     17  C   UNL     1      12.099  -0.238  35.140  0.00  0.00    +0.005 A 
ATOM     18  C   UNL     1      11.060  -0.275  36.166  0.00  0.00    -0.033 A 
ATOM     28  C   UNL     1      11.120  -1.289  37.207  0.00  0.00    +0.005 A 
ATOM     29  C   UNL     1      12.166  -2.238  37.250  0.00  0.00    +0.013 A 
BRANCH  18  19
ATOM     19  C   UNL     1       9.894   0.731  36.213  0.00  0.00    +0.119 C 
BRANCH  19  20
ATOM     20  N   UNL     1       8.532   0.215  35.884  0.00  0.00    -0.302 NA
ATOM     21  C   UNL     1       7.668   0.035  37.136  0.00  0.00    +0.066 C 
ATOM     22  C   UNL     1       6.239  -0.484  36.771  0.00  0.00    -0.064 C 
ATOM     23  N   UNL     1       6.358  -1.800  36.002  0.00  0.00    +0.379 N 
ATOM     24  C   UNL     1       5.015  -2.320  35.708  0.00  0.00    -0.096 C 
ATOM     25  H   UNL     1       6.868  -2.535  36.667  0.00  0.00    -0.082 HD
ATOM     26  C   UNL     1       7.218  -1.631  34.757  0.00  0.00    -0.064 C 
ATOM     27  C   UNL     1       8.626  -1.087  35.128  0.00  0.00    +0.066 C 
ENDBRANCH  19  20
ENDBRANCH  18  19
ENDBRANCH  14  15
ENDBRANCH  12  13
TORSDOF 6
ENDMDL
