MODEL 1
REMARK VINA RESULT:      -9.2      0.000      0.000
REMARK  Name = C:\Users\Docking\Desktop\test protocol\1iep_ligandH.pdb
REMARK  8 active torsions:
REMARK  status: ('A' for Active; 'I' for Inactive)
REMARK    1  A    between atoms: _5  and  _11
REMARK    2  A    between atoms: _19  and  _21
REMARK    3  A    between atoms: _22  and  _66
REMARK    4  A    between atoms: _27  and  _30
REMARK    5  A    between atoms: _32  and  _33
REMARK    6  A    between atoms: _38  and  _43
REMARK    7  A    between atoms: _43  and  _46
REMARK    8  A    between atoms: _53  and  _55
REMARK                            x       y       z     vdW  Elec       q    Type
REMARK                         _______ _______ _______ _____ _____    ______ ____
ROOT
ATOM     10  C   UNL     1      34.457  -5.142  15.048  0.00  0.00    +0.038 A 
ATOM     11  C   UNL     1      34.599  -6.516  15.369  0.00  0.00    +0.047 A 
ATOM     12  C   UNL     1      35.072  -6.937  16.678  0.00  0.00    +0.035 A 
ATOM     32  C   UNL     1      35.390  -5.932  17.638  0.00  0.00    +0.024 A 
ATOM     33  C   UNL     1      35.253  -4.531  17.328  0.00  0.00    +0.007 A 
ATOM     34  C   UNL     1      34.788  -4.109  16.037  0.00  0.00    -0.029 A 
ATOM     35  C   UNL     1      34.666  -2.593  15.757  0.00  0.00    +0.045 C 
ENDROOT
BRANCH  10   9
ATOM      4  C   UNL     1      35.188  -3.628  10.552  0.00  0.00    +0.077 A 
ATOM      5  C   UNL     1      36.601  -3.495  10.764  0.00  0.00    +0.048 A 
ATOM      6  C   UNL     1      37.098  -3.819  12.046  0.00  0.00    +0.116 A 
ATOM      7  N   UNL     1      36.238  -4.244  13.035  0.00  0.00    -0.223 NA
ATOM      8  C   UNL     1      34.881  -4.360  12.798  0.00  0.00    +0.220 A 
ATOM      9  N   UNL     1      33.998  -4.793  13.775  0.00  0.00    -0.283 N 
ATOM     36  H   UNL     1      33.003  -4.859  13.563  0.00  0.00    +0.155 HD
ATOM     37  N   UNL     1      34.381  -4.055  11.582  0.00  0.00    -0.214 NA
BRANCH   4   3
ATOM      1  C   UNL     1      34.050  -3.783   6.813  0.00  0.00    +0.020 A 
ATOM      2  C   UNL     1      34.728  -4.116   8.044  0.00  0.00    +0.013 A 
ATOM      3  C   UNL     1      34.512  -3.327   9.250  0.00  0.00    +0.019 A 
ATOM     38  C   UNL     1      33.596  -2.199   9.176  0.00  0.00    +0.120 A 
ATOM     39  N   UNL     1      32.958  -1.901   7.976  0.00  0.00    -0.263 NA
ATOM     40  C   UNL     1      33.160  -2.653   6.809  0.00  0.00    +0.111 A 
ENDBRANCH   4   3
ENDBRANCH  10   9
BRANCH  12  13
ATOM     13  N   UNL     1      35.244  -8.317  17.059  0.00  0.00    -0.281 N 
ATOM     14  C   UNL     1      34.263  -9.276  17.252  0.00  0.00    +0.248 C 
ATOM     30  O   UNL     1      33.068  -9.035  17.334  0.00  0.00    -0.270 OA
ATOM     31  H   UNL     1      36.206  -8.625  17.204  0.00  0.00    +0.155 HD
BRANCH  14  15
ATOM     15  C   UNL     1      34.669 -10.708  17.387  0.00  0.00    +0.037 A 
ATOM     16  C   UNL     1      35.615 -11.135  18.421  0.00  0.00    +0.013 A 
ATOM     17  C   UNL     1      36.003 -12.520  18.519  0.00  0.00    +0.005 A 
ATOM     18  C   UNL     1      35.443 -13.489  17.579  0.00  0.00    -0.033 A 
ATOM     28  C   UNL     1      34.503 -13.038  16.566  0.00  0.00    +0.005 A 
ATOM     29  C   UNL     1      34.121 -11.682  16.467  0.00  0.00    +0.013 A 
BRANCH  18  19
ATOM     19  C   UNL     1      35.817 -14.983  17.596  0.00  0.00    +0.119 C 
BRANCH  19  20
ATOM     20  N   UNL     1      37.098 -15.374  16.937  0.00  0.00    -0.302 NA
ATOM     21  C   UNL     1      36.865 -16.244  15.698  0.00  0.00    +0.066 C 
ATOM     22  C   UNL     1      38.214 -16.626  15.007  0.00  0.00    -0.064 C 
ATOM     23  N   UNL     1      39.112 -17.347  16.014  0.00  0.00    +0.379 N 
ATOM     24  C   UNL     1      40.359 -17.759  15.352  0.00  0.00    -0.096 C 
ATOM     25  H   UNL     1      38.581 -18.271  16.339  0.00  0.00    -0.082 HD
ATOM     26  C   UNL     1      39.348 -16.491  17.250  0.00  0.00    -0.064 C 
ATOM     27  C   UNL     1      37.999 -16.092  17.911  0.00  0.00    +0.066 C 
ENDBRANCH  19  20
ENDBRANCH  18  19
ENDBRANCH  14  15
ENDBRANCH  12  13
TORSDOF 6
ENDMDL
MODEL 2
REMARK VINA RESULT:      -9.0     13.726     19.043
REMARK  Name = C:\Users\Docking\Desktop\test protocol\1iep_ligandH.pdb
REMARK  8 active torsions:
REMARK  status: ('A' for Active; 'I' for Inactive)
REMARK    1  A    between atoms: _5  and  _11
REMARK    2  A    between atoms: _19  and  _21
REMARK    3  A    between atoms: _22  and  _66
REMARK    4  A    between atoms: _27  and  _30
REMARK    5  A    between atoms: _32  and  _33
REMARK    6  A    between atoms: _38  and  _43
REMARK    7  A    between atoms: _43  and  _46
REMARK    8  A    between atoms: _53  and  _55
REMARK                            x       y       z     vdW  Elec       q    Type
REMARK                         _______ _______ _______ _____ _____    ______ ____
ROOT
ATOM     10  C   UNL     1      29.963   4.982  20.188  0.00  0.00    +0.038 A 
ATOM     11  C   UNL     1      31.074   5.519  20.886  0.00  0.00    +0.047 A 
ATOM     12  C   UNL     1      30.891   6.354  22.064  0.00  0.00    +0.035 A 
ATOM     32  C   UNL     1      29.562   6.618  22.504  0.00  0.00    +0.024 A 
ATOM     33  C   UNL     1      28.421   6.081  21.806  0.00  0.00    +0.007 A 
ATOM     34  C   UNL     1      28.595   5.259  20.643  0.00  0.00    -0.029 A 
ATOM     35  C   UNL     1      27.335   4.715  19.930  0.00  0.00    +0.045 C 
ENDROOT
BRANCH  10   9
ATOM      4  C   UNL     1      30.752   4.427  15.487  0.00  0.00    +0.077 A 
ATOM      5  C   UNL     1      30.665   5.839  15.245  0.00  0.00    +0.048 A 
ATOM      6  C   UNL     1      30.409   6.672  16.357  0.00  0.00    +0.116 A 
ATOM      7  N   UNL     1      30.254   6.124  17.612  0.00  0.00    -0.223 NA
ATOM      8  C   UNL     1      30.342   4.759  17.810  0.00  0.00    +0.220 A 
ATOM      9  N   UNL     1      30.196   4.187  19.064  0.00  0.00    -0.283 N 
ATOM     36  H   UNL     1      30.261   3.174  19.167  0.00  0.00    +0.155 HD
ATOM     37  N   UNL     1      30.584   3.941  16.764  0.00  0.00    -0.214 NA
BRANCH   4   3
ATOM      1  C   UNL     1      31.615   2.772  12.049  0.00  0.00    +0.020 A 
ATOM      2  C   UNL     1      31.364   3.786  13.047  0.00  0.00    +0.013 A 
ATOM      3  C   UNL     1      31.021   3.417  14.414  0.00  0.00    +0.019 A 
ATOM     38  C   UNL     1      30.940   2.002  14.743  0.00  0.00    +0.120 A 
ATOM     39  N   UNL     1      31.186   1.047  13.761  0.00  0.00    -0.263 NA
ATOM     40  C   UNL     1      31.515   1.390  12.441  0.00  0.00    +0.111 A 
ENDBRANCH   4   3
ENDBRANCH  10   9
BRANCH  12  13
ATOM     13  N   UNL     1      31.981   6.934  22.808  0.00  0.00    -0.281 N 
ATOM     14  C   UNL     1      31.922   7.934  23.765  0.00  0.00    +0.248 C 
ATOM     30  O   UNL     1      30.942   8.634  23.973  0.00  0.00    -0.270 OA
ATOM     31  H   UNL     1      32.909   6.562  22.606  0.00  0.00    +0.155 HD
BRANCH  14  15
ATOM     15  C   UNL     1      33.130   8.205  24.602  0.00  0.00    +0.037 A 
ATOM     16  C   UNL     1      34.012   7.119  25.037  0.00  0.00    +0.013 A 
ATOM     17  C   UNL     1      35.162   7.407  25.858  0.00  0.00    +0.005 A 
ATOM     18  C   UNL     1      35.436   8.788  26.248  0.00  0.00    -0.033 A 
ATOM     28  C   UNL     1      34.547   9.846  25.798  0.00  0.00    +0.005 A 
ATOM     29  C   UNL     1      33.419   9.568  24.994  0.00  0.00    +0.013 A 
BRANCH  18  19
ATOM     19  C   UNL     1      36.628   9.184  27.140  0.00  0.00    +0.119 C 
BRANCH  19  20
ATOM     20  N   UNL     1      36.321   9.646  28.526  0.00  0.00    -0.302 NA
ATOM     21  C   UNL     1      37.360   9.157  29.539  0.00  0.00    +0.066 C 
ATOM     22  C   UNL     1      37.036   9.668  30.980  0.00  0.00    -0.064 C 
ATOM     23  N   UNL     1      35.633   9.207  31.378  0.00  0.00    +0.379 N 
ATOM     24  C   UNL     1      35.347   9.637  32.755  0.00  0.00    -0.096 C 
ATOM     25  H   UNL     1      35.627   8.092  31.364  0.00  0.00    -0.082 HD
ATOM     26  C   UNL     1      34.593   9.687  30.375  0.00  0.00    -0.064 C 
ATOM     27  C   UNL     1      34.941   9.198  28.942  0.00  0.00    +0.066 C 
ENDBRANCH  19  20
ENDBRANCH  18  19
ENDBRANCH  14  15
ENDBRANCH  12  13
TORSDOF 6
ENDMDL
MODEL 3
REMARK VINA RESULT:      -8.8     18.831     23.681
REMARK  Name = C:\Users\Docking\Desktop\test protocol\1iep_ligandH.pdb
REMARK  8 active torsions:
REMARK  status: ('A' for Active; 'I' for Inactive)
REMARK    1  A    between atoms: _5  and  _11
REMARK    2  A    between atoms: _19  and  _21
REMARK    3  A    between atoms: _22  and  _66
REMARK    4  A    between atoms: _27  and  _30
REMARK    5  A    between atoms: _32  and  _33
REMARK    6  A    between atoms: _38  and  _43
REMARK    7  A    between atoms: _43  and  _46
REMARK    8  A    between atoms: _53  and  _55
REMARK                            x       y       z     vdW  Elec       q    Type
REMARK                         _______ _______ _______ _____ _____    ______ ____
ROOT
ATOM     10  C   UNL     1      55.442  -8.786  20.650  0.00  0.00    +0.038 A 
ATOM     11  C   UNL     1      54.984  -7.444  20.685  0.00  0.00    +0.047 A 
ATOM     12  C   UNL     1      55.897  -6.344  20.949  0.00  0.00    +0.035 A 
ATOM     32  C   UNL     1      57.272  -6.646  21.172  0.00  0.00    +0.024 A 
ATOM     33  C   UNL     1      57.755  -8.004  21.141  0.00  0.00    +0.007 A 
ATOM     34  C   UNL     1      56.858  -9.094  20.884  0.00  0.00    -0.029 A 
ATOM     35  C   UNL     1      57.430 -10.531  20.869  0.00  0.00    +0.045 C 
ENDROOT
BRANCH  10   9
ATOM      4  C   UNL     1      52.174 -12.000  22.075  0.00  0.00    +0.077 A 
ATOM      5  C   UNL     1      52.334 -11.639  23.454  0.00  0.00    +0.048 A 
ATOM      6  C   UNL     1      53.273 -10.627  23.756  0.00  0.00    +0.116 A 
ATOM      7  N   UNL     1      53.992 -10.027  22.745  0.00  0.00    -0.223 NA
ATOM      8  C   UNL     1      53.815 -10.399  21.425  0.00  0.00    +0.220 A 
ATOM      9  N   UNL     1      54.521  -9.804  20.392  0.00  0.00    -0.283 N 
ATOM     36  H   UNL     1      54.367 -10.112  19.432  0.00  0.00    +0.155 HD
ATOM     37  N   UNL     1      52.925 -11.365  21.112  0.00  0.00    -0.214 NA
BRANCH   4   3
ATOM      1  C   UNL     1      50.058 -15.279  21.809  0.00  0.00    +0.020 A 
ATOM      2  C   UNL     1      50.992 -14.298  22.313  0.00  0.00    +0.013 A 
ATOM      3  C   UNL     1      51.219 -13.049  21.598  0.00  0.00    +0.019 A 
ATOM     38  C   UNL     1      50.479 -12.821  20.366  0.00  0.00    +0.120 A 
ATOM     39  N   UNL     1      49.588 -13.784  19.904  0.00  0.00    -0.263 NA
ATOM     40  C   UNL     1      49.362 -14.990  20.583  0.00  0.00    +0.111 A 
ENDBRANCH   4   3
ENDBRANCH  10   9
BRANCH  12  13
ATOM     13  N   UNL     1      55.488  -4.962  21.005  0.00  0.00    -0.281 N 
ATOM     14  C   UNL     1      55.317  -4.169  22.127  0.00  0.00    +0.248 C 
ATOM     30  O   UNL     1      55.283  -4.592  23.273  0.00  0.00    -0.270 OA
ATOM     31  H   UNL     1      55.302  -4.515  20.107  0.00  0.00    +0.155 HD
BRANCH  14  15
ATOM     15  C   UNL     1      55.143  -2.695  21.950  0.00  0.00    +0.037 A 
ATOM     16  C   UNL     1      53.919  -2.138  21.369  0.00  0.00    +0.013 A 
ATOM     17  C   UNL     1      53.784  -0.714  21.194  0.00  0.00    +0.005 A 
ATOM     18  C   UNL     1      54.878   0.164  21.603  0.00  0.00    -0.033 A 
ATOM     28  C   UNL     1      56.079  -0.414  22.182  0.00  0.00    +0.005 A 
ATOM     29  C   UNL     1      56.215  -1.810  22.354  0.00  0.00    +0.013 A 
BRANCH  18  19
ATOM     19  C   UNL     1      54.829   1.695  21.433  0.00  0.00    +0.119 C 
BRANCH  19  20
ATOM     20  N   UNL     1      54.349   2.496  22.598  0.00  0.00    -0.302 NA
ATOM     21  C   UNL     1      53.317   3.549  22.185  0.00  0.00    +0.066 C 
ATOM     22  C   UNL     1      52.809   4.364  23.419  0.00  0.00    -0.064 C 
ATOM     23  N   UNL     1      54.001   5.019  24.119  0.00  0.00    +0.379 N 
ATOM     24  C   UNL     1      53.520   5.833  25.246  0.00  0.00    -0.096 C 
ATOM     25  H   UNL     1      54.486   5.706  23.388  0.00  0.00    -0.082 HD
ATOM     26  C   UNL     1      55.033   3.979  24.532  0.00  0.00    -0.064 C 
ATOM     27  C   UNL     1      55.509   3.156  23.303  0.00  0.00    +0.066 C 
ENDBRANCH  19  20
ENDBRANCH  18  19
ENDBRANCH  14  15
ENDBRANCH  12  13
TORSDOF 6
ENDMDL
MODEL 4
REMARK VINA RESULT:      -8.7      0.914      1.620
REMARK  Name = C:\Users\Docking\Desktop\test protocol\1iep_ligandH.pdb
REMARK  8 active torsions:
REMARK  status: ('A' for Active; 'I' for Inactive)
REMARK    1  A    between atoms: _5  and  _11
REMARK    2  A    between atoms: _19  and  _21
REMARK    3  A    between atoms: _22  and  _66
REMARK    4  A    between atoms: _27  and  _30
REMARK    5  A    between atoms: _32  and  _33
REMARK    6  A    between atoms: _38  and  _43
REMARK    7  A    between atoms: _43  and  _46
REMARK    8  A    between atoms: _53  and  _55
REMARK                            x       y       z     vdW  Elec       q    Type
REMARK                         _______ _______ _______ _____ _____    ______ ____
ROOT
ATOM     10  C   UNL     1      34.442  -5.187  15.168  0.00  0.00    +0.038 A 
ATOM     11  C   UNL     1      34.491  -6.580  15.434  0.00  0.00    +0.047 A 
ATOM     12  C   UNL     1      35.060  -7.090  16.671  0.00  0.00    +0.035 A 
ATOM     32  C   UNL     1      35.567  -6.153  17.619  0.00  0.00    +0.024 A 
ATOM     33  C   UNL     1      35.526  -4.735  17.364  0.00  0.00    +0.007 A 
ATOM     34  C   UNL     1      34.969  -4.226  16.144  0.00  0.00    -0.029 A 
ATOM     35  C   UNL     1      34.957  -2.695  15.922  0.00  0.00    +0.045 C 
ENDROOT
BRANCH  10   9
ATOM      4  C   UNL     1      34.830  -3.526  10.682  0.00  0.00    +0.077 A 
ATOM      5  C   UNL     1      36.263  -3.497  10.753  0.00  0.00    +0.048 A 
ATOM      6  C   UNL     1      36.860  -3.910  11.965  0.00  0.00    +0.116 A 
ATOM      7  N   UNL     1      36.074  -4.321  13.020  0.00  0.00    -0.223 NA
ATOM      8  C   UNL     1      34.695  -4.336  12.918  0.00  0.00    +0.220 A 
ATOM      9  N   UNL     1      33.885  -4.753  13.963  0.00  0.00    -0.283 N 
ATOM     36  H   UNL     1      32.872  -4.742  13.851  0.00  0.00    +0.155 HD
ATOM     37  N   UNL     1      34.100  -3.944  11.772  0.00  0.00    -0.214 NA
BRANCH   4   3
ATOM      1  C   UNL     1      32.073  -2.039   8.339  0.00  0.00    +0.020 A 
ATOM      2  C   UNL     1      32.785  -2.406   9.542  0.00  0.00    +0.013 A 
ATOM      3  C   UNL     1      34.052  -3.123   9.468  0.00  0.00    +0.019 A 
ATOM     38  C   UNL     1      34.576  -3.455   8.152  0.00  0.00    +0.120 A 
ATOM     39  N   UNL     1      33.867  -3.090   7.011  0.00  0.00    -0.263 NA
ATOM     40  C   UNL     1      32.646  -2.402   7.070  0.00  0.00    +0.111 A 
ENDBRANCH   4   3
ENDBRANCH  10   9
BRANCH  12  13
ATOM     13  N   UNL     1      35.144  -8.493  16.992  0.00  0.00    -0.281 N 
ATOM     14  C   UNL     1      34.331  -9.222  17.845  0.00  0.00    +0.248 C 
ATOM     30  O   UNL     1      33.534  -8.730  18.629  0.00  0.00    -0.270 OA
ATOM     31  H   UNL     1      35.894  -9.012  16.536  0.00  0.00    +0.155 HD
BRANCH  14  15
ATOM     15  C   UNL     1      34.427 -10.714  17.834  0.00  0.00    +0.037 A 
ATOM     16  C   UNL     1      34.236 -11.479  16.599  0.00  0.00    +0.013 A 
ATOM     17  C   UNL     1      34.317 -12.918  16.620  0.00  0.00    +0.005 A 
ATOM     18  C   UNL     1      34.592 -13.601  17.881  0.00  0.00    -0.033 A 
ATOM     28  C   UNL     1      34.782 -12.818  19.091  0.00  0.00    +0.005 A 
ATOM     29  C   UNL     1      34.702 -11.407  19.074  0.00  0.00    +0.013 A 
BRANCH  18  19
ATOM     19  C   UNL     1      34.675 -15.135  18.001  0.00  0.00    +0.119 C 
BRANCH  19  20
ATOM     20  N   UNL     1      35.816 -15.813  17.316  0.00  0.00    -0.302 NA
ATOM     21  C   UNL     1      37.119 -15.021  17.451  0.00  0.00    +0.066 C 
ATOM     22  C   UNL     1      38.307 -15.757  16.748  0.00  0.00    -0.064 C 
ATOM     23  N   UNL     1      37.961 -15.986  15.275  0.00  0.00    +0.379 N 
ATOM     24  C   UNL     1      39.099 -16.625  14.598  0.00  0.00    -0.096 C 
ATOM     25  H   UNL     1      37.806 -14.987  14.806  0.00  0.00    -0.082 HD
ATOM     26  C   UNL     1      36.665 -16.770  15.133  0.00  0.00    -0.064 C 
ATOM     27  C   UNL     1      35.498 -16.045  15.860  0.00  0.00    +0.066 C 
ENDBRANCH  19  20
ENDBRANCH  18  19
ENDBRANCH  14  15
ENDBRANCH  12  13
TORSDOF 6
ENDMDL
MODEL 5
REMARK VINA RESULT:      -8.6      5.698      8.486
REMARK  Name = C:\Users\Docking\Desktop\test protocol\1iep_ligandH.pdb
REMARK  8 active torsions:
REMARK  status: ('A' for Active; 'I' for Inactive)
REMARK    1  A    between atoms: _5  and  _11
REMARK    2  A    between atoms: _19  and  _21
REMARK    3  A    between atoms: _22  and  _66
REMARK    4  A    between atoms: _27  and  _30
REMARK    5  A    between atoms: _32  and  _33
REMARK    6  A    between atoms: _38  and  _43
REMARK    7  A    between atoms: _43  and  _46
REMARK    8  A    between atoms: _53  and  _55
REMARK                            x       y       z     vdW  Elec       q    Type
REMARK                         _______ _______ _______ _____ _____    ______ ____
ROOT
ATOM     10  C   UNL     1      32.870   0.359  13.913  0.00  0.00    +0.038 A 
ATOM     11  C   UNL     1      33.067  -0.847  14.631  0.00  0.00    +0.047 A 
ATOM     12  C   UNL     1      33.365  -2.093  13.942  0.00  0.00    +0.035 A 
ATOM     32  C   UNL     1      33.457  -2.074  12.520  0.00  0.00    +0.024 A 
ATOM     33  C   UNL     1      33.258  -0.856  11.774  0.00  0.00    +0.007 A 
ATOM     34  C   UNL     1      32.961   0.375  12.448  0.00  0.00    -0.029 A 
ATOM     35  C   UNL     1      32.751   1.649  11.596  0.00  0.00    +0.045 C 
ENDROOT
BRANCH  10   9
ATOM      4  C   UNL     1      29.814   3.356  16.084  0.00  0.00    +0.077 A 
ATOM      5  C   UNL     1      28.682   2.541  15.747  0.00  0.00    +0.048 A 
ATOM      6  C   UNL     1      28.929   1.362  15.009  0.00  0.00    +0.116 A 
ATOM      7  N   UNL     1      30.215   1.033  14.640  0.00  0.00    -0.223 NA
ATOM      8  C   UNL     1      31.284   1.842  14.979  0.00  0.00    +0.220 A 
ATOM      9  N   UNL     1      32.586   1.527  14.625  0.00  0.00    -0.283 N 
ATOM     36  H   UNL     1      33.346   2.154  14.888  0.00  0.00    +0.155 HD
ATOM     37  N   UNL     1      31.074   2.974  15.683  0.00  0.00    -0.214 NA
BRANCH   4   3
ATOM      1  C   UNL     1      30.563   6.271  18.583  0.00  0.00    +0.020 A 
ATOM      2  C   UNL     1      30.705   5.030  17.857  0.00  0.00    +0.013 A 
ATOM      3  C   UNL     1      29.715   4.630  16.864  0.00  0.00    +0.019 A 
ATOM     38  C   UNL     1      28.586   5.517  16.627  0.00  0.00    +0.120 A 
ATOM     39  N   UNL     1      28.475   6.705  17.342  0.00  0.00    -0.263 NA
ATOM     40  C   UNL     1      29.420   7.099  18.301  0.00  0.00    +0.111 A 
ENDBRANCH   4   3
ENDBRANCH  10   9
BRANCH  12  13
ATOM     13  N   UNL     1      33.568  -3.351  14.618  0.00  0.00    -0.281 N 
ATOM     14  C   UNL     1      34.531  -3.664  15.563  0.00  0.00    +0.248 C 
ATOM     30  O   UNL     1      35.504  -2.969  15.815  0.00  0.00    -0.270 OA
ATOM     31  H   UNL     1      32.923  -4.101  14.370  0.00  0.00    +0.155 HD
BRANCH  14  15
ATOM     15  C   UNL     1      34.403  -4.942  16.329  0.00  0.00    +0.037 A 
ATOM     16  C   UNL     1      35.447  -5.968  16.275  0.00  0.00    +0.013 A 
ATOM     17  C   UNL     1      35.290  -7.198  17.010  0.00  0.00    +0.005 A 
ATOM     18  C   UNL     1      34.083  -7.408  17.806  0.00  0.00    -0.033 A 
ATOM     28  C   UNL     1      33.065  -6.371  17.845  0.00  0.00    +0.005 A 
ATOM     29  C   UNL     1      33.215  -5.165  17.126  0.00  0.00    +0.013 A 
BRANCH  18  19
ATOM     19  C   UNL     1      33.823  -8.699  18.605  0.00  0.00    +0.119 C 
BRANCH  19  20
ATOM     20  N   UNL     1      34.566  -9.924  18.186  0.00  0.00    -0.302 NA
ATOM     21  C   UNL     1      33.825 -10.701  17.094  0.00  0.00    +0.066 C 
ATOM     22  C   UNL     1      34.628 -11.968  16.652  0.00  0.00    -0.064 C 
ATOM     23  N   UNL     1      34.884 -12.857  17.870  0.00  0.00    +0.379 N 
ATOM     24  C   UNL     1      35.588 -14.076  17.448  0.00  0.00    -0.096 C 
ATOM     25  H   UNL     1      33.893 -13.162  18.279  0.00  0.00    -0.082 HD
ATOM     26  C   UNL     1      35.618 -12.091  18.962  0.00  0.00    -0.064 C 
ATOM     27  C   UNL     1      34.826 -10.819  19.373  0.00  0.00    +0.066 C 
ENDBRANCH  19  20
ENDBRANCH  18  19
ENDBRANCH  14  15
ENDBRANCH  12  13
TORSDOF 6
ENDMDL
