MODEL 1
REMARK VINA RESULT:      -9.0      0.000      0.000
REMARK  Name = C:\Users\Docking\Desktop\test protocol\1iep_ligandH.pdb
REMARK  8 active torsions:
REMARK  status: ('A' for Active; 'I' for Inactive)
REMARK    1  A    between atoms: _5  and  _11
REMARK    2  A    between atoms: _19  and  _21
REMARK    3  A    between atoms: _22  and  _66
REMARK    4  A    between atoms: _27  and  _30
REMARK    5  A    between atoms: _32  and  _33
REMARK    6  A    between atoms: _38  and  _43
REMARK    7  A    between atoms: _43  and  _46
REMARK    8  A    between atoms: _53  and  _55
REMARK                            x       y       z     vdW  Elec       q    Type
REMARK                         _______ _______ _______ _____ _____    ______ ____
ROOT
ATOM     10  C   UNL     1      18.621  21.934  14.130  0.00  0.00    +0.038 A 
ATOM     11  C   UNL     1      17.361  22.137  14.749  0.00  0.00    +0.047 A 
ATOM     12  C   UNL     1      16.225  21.283  14.441  0.00  0.00    +0.035 A 
ATOM     32  C   UNL     1      16.408  20.228  13.500  0.00  0.00    +0.024 A 
ATOM     33  C   UNL     1      17.681  20.008  12.861  0.00  0.00    +0.007 A 
ATOM     34  C   UNL     1      18.805  20.849  13.158  0.00  0.00    -0.029 A 
ATOM     35  C   UNL     1      20.145  20.571  12.438  0.00  0.00    +0.045 C 
ENDROOT
BRANCH  10   9
ATOM      4  C   UNL     1      20.639  26.282  14.375  0.00  0.00    +0.077 A 
ATOM      5  C   UNL     1      19.503  26.909  13.764  0.00  0.00    +0.048 A 
ATOM      6  C   UNL     1      18.423  26.076  13.395  0.00  0.00    +0.116 A 
ATOM      7  N   UNL     1      18.485  24.719  13.625  0.00  0.00    -0.223 NA
ATOM      8  C   UNL     1      19.597  24.146  14.215  0.00  0.00    +0.220 A 
ATOM      9  N   UNL     1      19.678  22.784  14.463  0.00  0.00    -0.283 N 
ATOM     36  H   UNL     1      20.518  22.399  14.894  0.00  0.00    +0.155 HD
ATOM     37  N   UNL     1      20.642  24.919  14.575  0.00  0.00    -0.214 NA
BRANCH   4   3
ATOM      1  C   UNL     1      23.334  29.072  14.874  0.00  0.00    +0.020 A 
ATOM      2  C   UNL     1      22.144  28.396  14.412  0.00  0.00    +0.013 A 
ATOM      3  C   UNL     1      21.857  27.028  14.824  0.00  0.00    +0.019 A 
ATOM     38  C   UNL     1      22.802  26.367  15.711  0.00  0.00    +0.120 A 
ATOM     39  N   UNL     1      23.940  27.043  16.139  0.00  0.00    -0.263 NA
ATOM     40  C   UNL     1      24.228  28.359  15.748  0.00  0.00    +0.111 A 
ENDBRANCH   4   3
ENDBRANCH  10   9
BRANCH  12  13
ATOM     13  N   UNL     1      14.920  21.446  15.032  0.00  0.00    -0.281 N 
ATOM     14  C   UNL     1      13.693  21.482  14.390  0.00  0.00    +0.248 C 
ATOM     30  O   UNL     1      13.548  21.593  13.182  0.00  0.00    -0.270 OA
ATOM     31  H   UNL     1      14.898  21.548  16.047  0.00  0.00    +0.155 HD
BRANCH  14  15
ATOM     15  C   UNL     1      12.446  21.396  15.210  0.00  0.00    +0.037 A 
ATOM     16  C   UNL     1      11.178  20.958  14.621  0.00  0.00    +0.013 A 
ATOM     17  C   UNL     1       9.986  20.901  15.431  0.00  0.00    +0.005 A 
ATOM     18  C   UNL     1      10.058  21.281  16.839  0.00  0.00    -0.033 A 
ATOM     28  C   UNL     1      11.330  21.707  17.399  0.00  0.00    +0.005 A 
ATOM     29  C   UNL     1      12.500  21.766  16.608  0.00  0.00    +0.013 A 
BRANCH  18  19
ATOM     19  C   UNL     1       8.833  21.271  17.772  0.00  0.00    +0.119 C 
BRANCH  19  20
ATOM     20  N   UNL     1       8.793  22.293  18.861  0.00  0.00    -0.302 NA
ATOM     21  C   UNL     1       7.937  21.837  20.045  0.00  0.00    +0.066 C 
ATOM     22  C   UNL     1       7.925  22.908  21.184  0.00  0.00    -0.064 C 
ATOM     23  N   UNL     1       7.414  24.237  20.626  0.00  0.00    +0.379 N 
ATOM     24  C   UNL     1       7.346  25.230  21.707  0.00  0.00    -0.096 C 
ATOM     25  H   UNL     1       6.376  24.071  20.254  0.00  0.00    -0.082 HD
ATOM     26  C   UNL     1       8.258  24.696  19.446  0.00  0.00    -0.064 C 
ATOM     27  C   UNL     1       8.288  23.612  18.332  0.00  0.00    +0.066 C 
ENDBRANCH  19  20
ENDBRANCH  18  19
ENDBRANCH  14  15
ENDBRANCH  12  13
TORSDOF 6
ENDMDL
MODEL 2
REMARK VINA RESULT:      -8.9      2.027      2.713
REMARK  Name = C:\Users\Docking\Desktop\test protocol\1iep_ligandH.pdb
REMARK  8 active torsions:
REMARK  status: ('A' for Active; 'I' for Inactive)
REMARK    1  A    between atoms: _5  and  _11
REMARK    2  A    between atoms: _19  and  _21
REMARK    3  A    between atoms: _22  and  _66
REMARK    4  A    between atoms: _27  and  _30
REMARK    5  A    between atoms: _32  and  _33
REMARK    6  A    between atoms: _38  and  _43
REMARK    7  A    between atoms: _43  and  _46
REMARK    8  A    between atoms: _53  and  _55
REMARK                            x       y       z     vdW  Elec       q    Type
REMARK                         _______ _______ _______ _____ _____    ______ ____
ROOT
ATOM     10  C   UNL     1      19.505  23.464  14.946  0.00  0.00    +0.038 A 
ATOM     11  C   UNL     1      18.313  23.668  15.687  0.00  0.00    +0.047 A 
ATOM     12  C   UNL     1      17.087  22.962  15.350  0.00  0.00    +0.035 A 
ATOM     32  C   UNL     1      17.111  22.051  14.253  0.00  0.00    +0.024 A 
ATOM     33  C   UNL     1      18.314  21.832  13.489  0.00  0.00    +0.007 A 
ATOM     34  C   UNL     1      19.526  22.528  13.815  0.00  0.00    -0.029 A 
ATOM     35  C   UNL     1      20.784  22.259  12.957  0.00  0.00    +0.045 C 
ENDROOT
BRANCH  10   9
ATOM      4  C   UNL     1      22.243  27.406  14.915  0.00  0.00    +0.077 A 
ATOM      5  C   UNL     1      21.320  28.112  14.074  0.00  0.00    +0.048 A 
ATOM      6  C   UNL     1      20.156  27.423  13.666  0.00  0.00    +0.116 A 
ATOM      7  N   UNL     1      19.941  26.124  14.074  0.00  0.00    -0.223 NA
ATOM      8  C   UNL     1      20.853  25.472  14.884  0.00  0.00    +0.220 A 
ATOM      9  N   UNL     1      20.653  24.169  15.313  0.00  0.00    -0.283 N 
ATOM     36  H   UNL     1      21.353  23.720  15.904  0.00  0.00    +0.155 HD
ATOM     37  N   UNL     1      21.972  26.108  15.287  0.00  0.00    -0.214 NA
BRANCH   4   3
ATOM      1  C   UNL     1      25.311  29.772  15.449  0.00  0.00    +0.020 A 
ATOM      2  C   UNL     1      24.079  29.241  14.914  0.00  0.00    +0.013 A 
ATOM      3  C   UNL     1      23.516  28.000  15.432  0.00  0.00    +0.019 A 
ATOM     38  C   UNL     1      24.229  27.318  16.501  0.00  0.00    +0.120 A 
ATOM     39  N   UNL     1      25.415  27.853  16.995  0.00  0.00    -0.263 NA
ATOM     40  C   UNL     1      25.967  29.045  16.503  0.00  0.00    +0.111 A 
ENDBRANCH   4   3
ENDBRANCH  10   9
BRANCH  12  13
ATOM     13  N   UNL     1      15.844  23.135  16.061  0.00  0.00    -0.281 N 
ATOM     14  C   UNL     1      15.314  22.331  17.056  0.00  0.00    +0.248 C 
ATOM     30  O   UNL     1      15.728  21.217  17.339  0.00  0.00    -0.270 OA
ATOM     31  H   UNL     1      15.288  23.949  15.798  0.00  0.00    +0.155 HD
BRANCH  14  15
ATOM     15  C   UNL     1      14.145  22.831  17.842  0.00  0.00    +0.037 A 
ATOM     16  C   UNL     1      12.799  22.868  17.262  0.00  0.00    +0.013 A 
ATOM     17  C   UNL     1      11.692  23.371  18.035  0.00  0.00    +0.005 A 
ATOM     18  C   UNL     1      11.926  23.841  19.399  0.00  0.00    -0.033 A 
ATOM     28  C   UNL     1      13.269  23.788  19.951  0.00  0.00    +0.005 A 
ATOM     29  C   UNL     1      14.357  23.297  19.195  0.00  0.00    +0.013 A 
BRANCH  18  19
ATOM     19  C   UNL     1      10.807  24.413  20.289  0.00  0.00    +0.119 C 
BRANCH  19  20
ATOM     20  N   UNL     1       9.481  23.728  20.247  0.00  0.00    -0.302 NA
ATOM     21  C   UNL     1       8.555  24.333  19.188  0.00  0.00    +0.066 C 
ATOM     22  C   UNL     1       7.181  23.590  19.141  0.00  0.00    -0.064 C 
ATOM     23  N   UNL     1       6.529  23.642  20.524  0.00  0.00    +0.379 N 
ATOM     24  C   UNL     1       5.210  22.995  20.469  0.00  0.00    -0.096 C 
ATOM     25  H   UNL     1       6.368  24.715  20.782  0.00  0.00    -0.082 HD
ATOM     26  C   UNL     1       7.443  23.045  21.584  0.00  0.00    -0.064 C 
ATOM     27  C   UNL     1       8.817  23.771  21.601  0.00  0.00    +0.066 C 
ENDBRANCH  19  20
ENDBRANCH  18  19
ENDBRANCH  14  15
ENDBRANCH  12  13
TORSDOF 6
ENDMDL
MODEL 3
REMARK VINA RESULT:      -8.8      1.996      2.580
REMARK  Name = C:\Users\Docking\Desktop\test protocol\1iep_ligandH.pdb
REMARK  8 active torsions:
REMARK  status: ('A' for Active; 'I' for Inactive)
REMARK    1  A    between atoms: _5  and  _11
REMARK    2  A    between atoms: _19  and  _21
REMARK    3  A    between atoms: _22  and  _66
REMARK    4  A    between atoms: _27  and  _30
REMARK    5  A    between atoms: _32  and  _33
REMARK    6  A    between atoms: _38  and  _43
REMARK    7  A    between atoms: _43  and  _46
REMARK    8  A    between atoms: _53  and  _55
REMARK                            x       y       z     vdW  Elec       q    Type
REMARK                         _______ _______ _______ _____ _____    ______ ____
ROOT
ATOM     10  C   UNL     1      18.927  22.824  14.428  0.00  0.00    +0.038 A 
ATOM     11  C   UNL     1      17.771  22.970  15.237  0.00  0.00    +0.047 A 
ATOM     12  C   UNL     1      16.549  22.236  14.943  0.00  0.00    +0.035 A 
ATOM     32  C   UNL     1      16.541  21.360  13.819  0.00  0.00    +0.024 A 
ATOM     33  C   UNL     1      17.707  21.201  12.986  0.00  0.00    +0.007 A 
ATOM     34  C   UNL     1      18.914  21.924  13.269  0.00  0.00    -0.029 A 
ATOM     35  C   UNL     1      20.131  21.719  12.338  0.00  0.00    +0.045 C 
ENDROOT
BRANCH  10   9
ATOM      4  C   UNL     1      21.430  26.914  14.622  0.00  0.00    +0.077 A 
ATOM      5  C   UNL     1      20.378  27.658  13.992  0.00  0.00    +0.048 A 
ATOM      6  C   UNL     1      19.211  26.949  13.627  0.00  0.00    +0.116 A 
ATOM      7  N   UNL     1      19.115  25.597  13.879  0.00  0.00    -0.223 NA
ATOM      8  C   UNL     1      20.150  24.910  14.487  0.00  0.00    +0.220 A 
ATOM      9  N   UNL     1      20.072  23.553  14.757  0.00  0.00    -0.283 N 
ATOM     36  H   UNL     1      20.860  23.081  15.200  0.00  0.00    +0.155 HD
ATOM     37  N   UNL     1      21.275  25.564  14.843  0.00  0.00    -0.214 NA
BRANCH   4   3
ATOM      1  C   UNL     1      24.352  29.442  15.233  0.00  0.00    +0.020 A 
ATOM      2  C   UNL     1      23.092  28.903  14.778  0.00  0.00    +0.013 A 
ATOM      3  C   UNL     1      22.723  27.523  15.069  0.00  0.00    +0.019 A 
ATOM     38  C   UNL     1      23.660  26.709  15.829  0.00  0.00    +0.120 A 
ATOM     39  N   UNL     1      24.867  27.255  16.253  0.00  0.00    -0.263 NA
ATOM     40  C   UNL     1      25.234  28.581  15.978  0.00  0.00    +0.111 A 
ENDBRANCH   4   3
ENDBRANCH  10   9
BRANCH  12  13
ATOM     13  N   UNL     1      15.342  22.350  15.724  0.00  0.00    -0.281 N 
ATOM     14  C   UNL     1      15.179  22.113  17.079  0.00  0.00    +0.248 C 
ATOM     30  O   UNL     1      16.005  21.558  17.788  0.00  0.00    -0.270 OA
ATOM     31  H   UNL     1      14.507  22.640  15.216  0.00  0.00    +0.155 HD
BRANCH  14  15
ATOM     15  C   UNL     1      13.908  22.542  17.739  0.00  0.00    +0.037 A 
ATOM     16  C   UNL     1      13.920  23.259  19.017  0.00  0.00    +0.013 A 
ATOM     17  C   UNL     1      12.679  23.646  19.640  0.00  0.00    +0.005 A 
ATOM     18  C   UNL     1      11.415  23.318  18.985  0.00  0.00    -0.033 A 
ATOM     28  C   UNL     1      11.433  22.611  17.715  0.00  0.00    +0.005 A 
ATOM     29  C   UNL     1      12.647  22.229  17.101  0.00  0.00    +0.013 A 
BRANCH  18  19
ATOM     19  C   UNL     1      10.043  23.673  19.588  0.00  0.00    +0.119 C 
BRANCH  19  20
ATOM     20  N   UNL     1       9.956  24.926  20.397  0.00  0.00    -0.302 NA
ATOM     21  C   UNL     1       8.589  25.080  21.070  0.00  0.00    +0.066 C 
ATOM     22  C   UNL     1       8.523  26.384  21.930  0.00  0.00    -0.064 C 
ATOM     23  N   UNL     1       8.830  27.593  21.044  0.00  0.00    +0.379 N 
ATOM     24  C   UNL     1       8.712  28.825  21.837  0.00  0.00    -0.096 C 
ATOM     25  H   UNL     1       8.056  27.630  20.243  0.00  0.00    -0.082 HD
ATOM     26  C   UNL     1      10.186  27.446  20.369  0.00  0.00    -0.064 C 
ATOM     27  C   UNL     1      10.252  26.132  19.541  0.00  0.00    +0.066 C 
ENDBRANCH  19  20
ENDBRANCH  18  19
ENDBRANCH  14  15
ENDBRANCH  12  13
TORSDOF 6
ENDMDL
MODEL 4
REMARK VINA RESULT:      -8.7      2.066      2.858
REMARK  Name = C:\Users\Docking\Desktop\test protocol\1iep_ligandH.pdb
REMARK  8 active torsions:
REMARK  status: ('A' for Active; 'I' for Inactive)
REMARK    1  A    between atoms: _5  and  _11
REMARK    2  A    between atoms: _19  and  _21
REMARK    3  A    between atoms: _22  and  _66
REMARK    4  A    between atoms: _27  and  _30
REMARK    5  A    between atoms: _32  and  _33
REMARK    6  A    between atoms: _38  and  _43
REMARK    7  A    between atoms: _43  and  _46
REMARK    8  A    between atoms: _53  and  _55
REMARK                            x       y       z     vdW  Elec       q    Type
REMARK                         _______ _______ _______ _____ _____    ______ ____
ROOT
ATOM     10  C   UNL     1      18.184  23.061  15.138  0.00  0.00    +0.038 A 
ATOM     11  C   UNL     1      17.080  23.329  15.986  0.00  0.00    +0.047 A 
ATOM     12  C   UNL     1      15.807  22.649  15.802  0.00  0.00    +0.035 A 
ATOM     32  C   UNL     1      15.696  21.699  14.745  0.00  0.00    +0.024 A 
ATOM     33  C   UNL     1      16.808  21.416  13.873  0.00  0.00    +0.007 A 
ATOM     34  C   UNL     1      18.065  22.085  14.048  0.00  0.00    -0.029 A 
ATOM     35  C   UNL     1      19.222  21.747  13.079  0.00  0.00    +0.045 C 
ENDROOT
BRANCH  10   9
ATOM      4  C   UNL     1      21.059  26.863  14.570  0.00  0.00    +0.077 A 
ATOM      5  C   UNL     1      20.104  27.535  13.738  0.00  0.00    +0.048 A 
ATOM      6  C   UNL     1      18.887  26.866  13.474  0.00  0.00    +0.116 A 
ATOM      7  N   UNL     1      18.655  25.617  14.009  0.00  0.00    -0.223 NA
ATOM      8  C   UNL     1      19.599  24.996  14.806  0.00  0.00    +0.220 A 
ATOM      9  N   UNL     1      19.383  23.743  15.360  0.00  0.00    -0.283 N 
ATOM     36  H   UNL     1      20.107  23.315  15.937  0.00  0.00    +0.155 HD
ATOM     37  N   UNL     1      20.769  25.613  15.071  0.00  0.00    -0.214 NA
BRANCH   4   3
ATOM      1  C   UNL     1      24.091  29.303  14.957  0.00  0.00    +0.020 A 
ATOM      2  C   UNL     1      22.796  28.792  14.572  0.00  0.00    +0.013 A 
ATOM      3  C   UNL     1      22.389  27.442  14.942  0.00  0.00    +0.019 A 
ATOM     38  C   UNL     1      23.322  26.630  15.707  0.00  0.00    +0.120 A 
ATOM     39  N   UNL     1      24.564  27.148  16.062  0.00  0.00    -0.263 NA
ATOM     40  C   UNL     1      24.967  28.445  15.710  0.00  0.00    +0.111 A 
ENDBRANCH   4   3
ENDBRANCH  10   9
BRANCH  12  13
ATOM     13  N   UNL     1      14.649  22.885  16.627  0.00  0.00    -0.281 N 
ATOM     14  C   UNL     1      14.505  22.643  17.984  0.00  0.00    +0.248 C 
ATOM     30  O   UNL     1      15.285  21.983  18.654  0.00  0.00    -0.270 OA
ATOM     31  H   UNL     1      13.836  23.279  16.154  0.00  0.00    +0.155 HD
BRANCH  14  15
ATOM     15  C   UNL     1      13.315  23.202  18.695  0.00  0.00    +0.037 A 
ATOM     16  C   UNL     1      13.325  23.408  20.145  0.00  0.00    +0.013 A 
ATOM     17  C   UNL     1      12.158  23.934  20.809  0.00  0.00    +0.005 A 
ATOM     18  C   UNL     1      10.971  24.258  20.021  0.00  0.00    -0.033 A 
ATOM     28  C   UNL     1      10.991  24.048  18.583  0.00  0.00    +0.005 A 
ATOM     29  C   UNL     1      12.133  23.533  17.929  0.00  0.00    +0.013 A 
BRANCH  18  19
ATOM     19  C   UNL     1       9.674  24.803  20.648  0.00  0.00    +0.119 C 
BRANCH  19  20
ATOM     20  N   UNL     1       8.513  23.868  20.739  0.00  0.00    -0.302 NA
ATOM     21  C   UNL     1       7.645  23.907  19.478  0.00  0.00    +0.066 C 
ATOM     22  C   UNL     1       6.448  22.906  19.581  0.00  0.00    -0.064 C 
ATOM     23  N   UNL     1       5.616  23.236  20.822  0.00  0.00    +0.379 N 
ATOM     24  C   UNL     1       4.457  22.334  20.889  0.00  0.00    -0.096 C 
ATOM     25  H   UNL     1       5.230  24.275  20.704  0.00  0.00    -0.082 HD
ATOM     26  C   UNL     1       6.473  23.202  22.080  0.00  0.00    -0.064 C 
ATOM     27  C   UNL     1       7.676  24.178  21.955  0.00  0.00    +0.066 C 
ENDBRANCH  19  20
ENDBRANCH  18  19
ENDBRANCH  14  15
ENDBRANCH  12  13
TORSDOF 6
ENDMDL
MODEL 5
REMARK VINA RESULT:      -8.7      3.372      4.664
REMARK  Name = C:\Users\Docking\Desktop\test protocol\1iep_ligandH.pdb
REMARK  8 active torsions:
REMARK  status: ('A' for Active; 'I' for Inactive)
REMARK    1  A    between atoms: _5  and  _11
REMARK    2  A    between atoms: _19  and  _21
REMARK    3  A    between atoms: _22  and  _66
REMARK    4  A    between atoms: _27  and  _30
REMARK    5  A    between atoms: _32  and  _33
REMARK    6  A    between atoms: _38  and  _43
REMARK    7  A    between atoms: _43  and  _46
REMARK    8  A    between atoms: _53  and  _55
REMARK                            x       y       z     vdW  Elec       q    Type
REMARK                         _______ _______ _______ _____ _____    ______ ____
ROOT
ATOM     10  C   UNL     1      16.778  23.563  19.245  0.00  0.00    +0.038 A 
ATOM     11  C   UNL     1      15.394  23.876  19.223  0.00  0.00    +0.047 A 
ATOM     12  C   UNL     1      14.411  22.979  19.810  0.00  0.00    +0.035 A 
ATOM     32  C   UNL     1      14.871  21.773  20.414  0.00  0.00    +0.024 A 
ATOM     33  C   UNL     1      16.274  21.439  20.444  0.00  0.00    +0.007 A 
ATOM     34  C   UNL     1      17.248  22.318  19.864  0.00  0.00    -0.029 A 
ATOM     35  C   UNL     1      18.738  21.906  19.920  0.00  0.00    +0.045 C 
ENDROOT
BRANCH  10   9
ATOM      4  C   UNL     1      19.076  25.400  15.452  0.00  0.00    +0.077 A 
ATOM      5  C   UNL     1      18.449  24.477  14.551  0.00  0.00    +0.048 A 
ATOM      6  C   UNL     1      17.547  23.540  15.104  0.00  0.00    +0.116 A 
ATOM      7  N   UNL     1      17.298  23.537  16.459  0.00  0.00    -0.223 NA
ATOM      8  C   UNL     1      17.920  24.440  17.301  0.00  0.00    +0.220 A 
ATOM      9  N   UNL     1      17.678  24.460  18.666  0.00  0.00    -0.283 N 
ATOM     36  H   UNL     1      18.163  25.138  19.254  0.00  0.00    +0.155 HD
ATOM     37  N   UNL     1      18.787  25.344  16.798  0.00  0.00    -0.214 NA
BRANCH   4   3
ATOM      1  C   UNL     1      20.984  28.073  13.328  0.00  0.00    +0.020 A 
ATOM      2  C   UNL     1      20.020  27.062  13.696  0.00  0.00    +0.013 A 
ATOM      3  C   UNL     1      20.050  26.451  15.019  0.00  0.00    +0.019 A 
ATOM     38  C   UNL     1      21.075  26.891  15.954  0.00  0.00    +0.120 A 
ATOM     39  N   UNL     1      21.991  27.866  15.570  0.00  0.00    -0.263 NA
ATOM     40  C   UNL     1      21.973  28.459  14.299  0.00  0.00    +0.111 A 
ENDBRANCH   4   3
ENDBRANCH  10   9
BRANCH  12  13
ATOM     13  N   UNL     1      12.993  23.240  19.811  0.00  0.00    -0.281 N 
ATOM     14  C   UNL     1      12.121  23.209  18.735  0.00  0.00    +0.248 C 
ATOM     30  O   UNL     1      12.469  23.161  17.564  0.00  0.00    -0.270 OA
ATOM     31  H   UNL     1      12.582  23.476  20.714  0.00  0.00    +0.155 HD
BRANCH  14  15
ATOM     15  C   UNL     1      10.650  23.253  18.996  0.00  0.00    +0.037 A 
ATOM     16  C   UNL     1       9.687  22.762  18.006  0.00  0.00    +0.013 A 
ATOM     17  C   UNL     1       8.273  22.831  18.277  0.00  0.00    +0.005 A 
ATOM     18  C   UNL     1       7.813  23.393  19.544  0.00  0.00    -0.033 A 
ATOM     28  C   UNL     1       8.789  23.868  20.510  0.00  0.00    +0.005 A 
ATOM     29  C   UNL     1      10.176  23.803  20.248  0.00  0.00    +0.013 A 
BRANCH  18  19
ATOM     19  C   UNL     1       6.322  23.525  19.908  0.00  0.00    +0.119 C 
BRANCH  19  20
ATOM     20  N   UNL     1       5.766  22.541  20.884  0.00  0.00    -0.302 NA
ATOM     21  C   UNL     1       4.384  22.034  20.463  0.00  0.00    +0.066 C 
ATOM     22  C   UNL     1       3.827  20.988  21.483  0.00  0.00    -0.064 C 
ATOM     23  N   UNL     1       3.773  21.617  22.877  0.00  0.00    +0.379 N 
ATOM     24  C   UNL     1       3.195  20.655  23.827  0.00  0.00    -0.096 C 
ATOM     25  H   UNL     1       3.087  22.494  22.825  0.00  0.00    -0.082 HD
ATOM     26  C   UNL     1       5.143  22.126  23.301  0.00  0.00    -0.064 C 
ATOM     27  C   UNL     1       5.700  23.143  22.266  0.00  0.00    +0.066 C 
ENDBRANCH  19  20
ENDBRANCH  18  19
ENDBRANCH  14  15
ENDBRANCH  12  13
TORSDOF 6
ENDMDL
