MODEL 1
REMARK VINA RESULT:      -8.6      0.000      0.000
REMARK  Name = C:\Users\Docking\Desktop\test protocol\1iep_ligandH.pdb
REMARK  8 active torsions:
REMARK  status: ('A' for Active; 'I' for Inactive)
REMARK    1  A    between atoms: _5  and  _11
REMARK    2  A    between atoms: _19  and  _21
REMARK    3  A    between atoms: _22  and  _66
REMARK    4  A    between atoms: _27  and  _30
REMARK    5  A    between atoms: _32  and  _33
REMARK    6  A    between atoms: _38  and  _43
REMARK    7  A    between atoms: _43  and  _46
REMARK    8  A    between atoms: _53  and  _55
REMARK                            x       y       z     vdW  Elec       q    Type
REMARK                         _______ _______ _______ _____ _____    ______ ____
ROOT
ATOM     10  C   UNL     1      19.683  23.322  14.496  0.00  0.00    +0.038 A 
ATOM     11  C   UNL     1      18.458  23.459  15.198  0.00  0.00    +0.047 A 
ATOM     12  C   UNL     1      17.291  22.668  14.838  0.00  0.00    +0.035 A 
ATOM     32  C   UNL     1      17.408  21.745  13.758  0.00  0.00    +0.024 A 
ATOM     33  C   UNL     1      18.645  21.593  13.033  0.00  0.00    +0.007 A 
ATOM     34  C   UNL     1      19.799  22.372  13.382  0.00  0.00    -0.029 A 
ATOM     35  C   UNL     1      21.097  22.173  12.566  0.00  0.00    +0.045 C 
ENDROOT
BRANCH  10   9
ATOM      4  C   UNL     1      21.899  27.553  14.959  0.00  0.00    +0.077 A 
ATOM      5  C   UNL     1      20.808  28.258  14.351  0.00  0.00    +0.048 A 
ATOM      6  C   UNL     1      19.698  27.494  13.926  0.00  0.00    +0.116 A 
ATOM      7  N   UNL     1      19.691  26.127  14.102  0.00  0.00    -0.223 NA
ATOM      8  C   UNL     1      20.760  25.478  14.691  0.00  0.00    +0.220 A 
ATOM      9  N   UNL     1      20.771  24.106  14.885  0.00  0.00    -0.283 N 
ATOM     36  H   UNL     1      21.582  23.664  15.316  0.00  0.00    +0.155 HD
ATOM     37  N   UNL     1      21.833  26.186  15.103  0.00  0.00    -0.214 NA
BRANCH   4   3
ATOM      1  C   UNL     1      24.827  30.098  15.463  0.00  0.00    +0.020 A 
ATOM      2  C   UNL     1      23.622  29.495  14.942  0.00  0.00    +0.013 A 
ATOM      3  C   UNL     1      23.141  28.222  15.462  0.00  0.00    +0.019 A 
ATOM     38  C   UNL     1      23.908  27.579  16.519  0.00  0.00    +0.120 A 
ATOM     39  N   UNL     1      25.066  28.183  17.000  0.00  0.00    -0.263 NA
ATOM     40  C   UNL     1      25.539  29.408  16.505  0.00  0.00    +0.111 A 
ENDBRANCH   4   3
ENDBRANCH  10   9
BRANCH  12  13
ATOM     13  N   UNL     1      16.019  22.770  15.509  0.00  0.00    -0.281 N 
ATOM     14  C   UNL     1      15.762  22.670  16.867  0.00  0.00    +0.248 C 
ATOM     30  O   UNL     1      16.565  22.262  17.694  0.00  0.00    -0.270 OA
ATOM     31  H   UNL     1      15.210  22.936  14.911  0.00  0.00    +0.155 HD
BRANCH  14  15
ATOM     15  C   UNL     1      14.415  23.066  17.378  0.00  0.00    +0.037 A 
ATOM     16  C   UNL     1      14.252  23.675  18.700  0.00  0.00    +0.013 A 
ATOM     17  C   UNL     1      12.939  24.032  19.176  0.00  0.00    +0.005 A 
ATOM     18  C   UNL     1      11.777  23.781  18.326  0.00  0.00    -0.033 A 
ATOM     28  C   UNL     1      11.968  23.180  17.016  0.00  0.00    +0.005 A 
ATOM     29  C   UNL     1      13.253  22.828  16.547  0.00  0.00    +0.013 A 
BRANCH  18  19
ATOM     19  C   UNL     1      10.337  24.110  18.761  0.00  0.00    +0.119 C 
BRANCH  19  20
ATOM     20  N   UNL     1      10.156  25.217  19.748  0.00  0.00    -0.302 NA
ATOM     21  C   UNL     1       8.913  25.013  20.618  0.00  0.00    +0.066 C 
ATOM     22  C   UNL     1       8.752  26.168  21.660  0.00  0.00    -0.064 C 
ATOM     23  N   UNL     1       8.685  27.508  20.925  0.00  0.00    +0.379 N 
ATOM     24  C   UNL     1       8.476  28.591  21.897  0.00  0.00    -0.096 C 
ATOM     25  H   UNL     1       7.796  27.480  20.252  0.00  0.00    -0.082 HD
ATOM     26  C   UNL     1       9.916  27.717  20.054  0.00  0.00    -0.064 C 
ATOM     27  C   UNL     1      10.083  26.549  19.043  0.00  0.00    +0.066 C 
ENDBRANCH  19  20
ENDBRANCH  18  19
ENDBRANCH  14  15
ENDBRANCH  12  13
TORSDOF 6
ENDMDL
MODEL 2
REMARK VINA RESULT:      -8.4      6.612     10.100
REMARK  Name = C:\Users\Docking\Desktop\test protocol\1iep_ligandH.pdb
REMARK  8 active torsions:
REMARK  status: ('A' for Active; 'I' for Inactive)
REMARK    1  A    between atoms: _5  and  _11
REMARK    2  A    between atoms: _19  and  _21
REMARK    3  A    between atoms: _22  and  _66
REMARK    4  A    between atoms: _27  and  _30
REMARK    5  A    between atoms: _32  and  _33
REMARK    6  A    between atoms: _38  and  _43
REMARK    7  A    between atoms: _43  and  _46
REMARK    8  A    between atoms: _53  and  _55
REMARK                            x       y       z     vdW  Elec       q    Type
REMARK                         _______ _______ _______ _____ _____    ______ ____
ROOT
ATOM     10  C   UNL     1      26.216  27.942  16.053  0.00  0.00    +0.038 A 
ATOM     11  C   UNL     1      25.103  27.264  15.493  0.00  0.00    +0.047 A 
ATOM     12  C   UNL     1      24.064  26.697  16.338  0.00  0.00    +0.035 A 
ATOM     32  C   UNL     1      24.187  26.842  17.750  0.00  0.00    +0.024 A 
ATOM     33  C   UNL     1      25.312  27.528  18.337  0.00  0.00    +0.007 A 
ATOM     34  C   UNL     1      26.342  28.086  17.508  0.00  0.00    -0.029 A 
ATOM     35  C   UNL     1      27.528  28.805  18.192  0.00  0.00    +0.045 C 
ENDROOT
BRANCH  10   9
ATOM      4  C   UNL     1      30.371  27.638  13.670  0.00  0.00    +0.077 A 
ATOM      5  C   UNL     1      30.648  26.334  14.202  0.00  0.00    +0.048 A 
ATOM      6  C   UNL     1      29.699  25.780  15.090  0.00  0.00    +0.116 A 
ATOM      7  N   UNL     1      28.562  26.486  15.416  0.00  0.00    -0.223 NA
ATOM      8  C   UNL     1      28.326  27.742  14.887  0.00  0.00    +0.220 A 
ATOM      9  N   UNL     1      27.185  28.467  15.195  0.00  0.00    -0.283 N 
ATOM     36  H   UNL     1      27.051  29.393  14.790  0.00  0.00    +0.155 HD
ATOM     37  N   UNL     1      29.217  28.293  14.037  0.00  0.00    -0.214 NA
BRANCH   4   3
ATOM      1  C   UNL     1      32.012  29.004  10.393  0.00  0.00    +0.020 A 
ATOM      2  C   UNL     1      31.111  28.293  11.270  0.00  0.00    +0.013 A 
ATOM      3  C   UNL     1      31.276  28.354  12.717  0.00  0.00    +0.019 A 
ATOM     38  C   UNL     1      32.371  29.152  13.248  0.00  0.00    +0.120 A 
ATOM     39  N   UNL     1      33.224  29.825  12.379  0.00  0.00    -0.263 NA
ATOM     40  C   UNL     1      33.076  29.772  10.985  0.00  0.00    +0.111 A 
ENDBRANCH   4   3
ENDBRANCH  10   9
BRANCH  12  13
ATOM     13  N   UNL     1      22.915  25.991  15.826  0.00  0.00    -0.281 N 
ATOM     14  C   UNL     1      21.706  26.522  15.408  0.00  0.00    +0.248 C 
ATOM     30  O   UNL     1      21.348  27.672  15.612  0.00  0.00    -0.270 OA
ATOM     31  H   UNL     1      23.005  24.977  15.764  0.00  0.00    +0.155 HD
BRANCH  14  15
ATOM     15  C   UNL     1      20.749  25.643  14.669  0.00  0.00    +0.037 A 
ATOM     16  C   UNL     1      19.472  26.160  14.171  0.00  0.00    +0.013 A 
ATOM     17  C   UNL     1      18.559  25.287  13.476  0.00  0.00    +0.005 A 
ATOM     18  C   UNL     1      18.922  23.887  13.274  0.00  0.00    -0.033 A 
ATOM     28  C   UNL     1      20.198  23.401  13.774  0.00  0.00    +0.005 A 
ATOM     29  C   UNL     1      21.094  24.254  14.456  0.00  0.00    +0.013 A 
BRANCH  18  19
ATOM     19  C   UNL     1      18.001  22.878  12.562  0.00  0.00    +0.119 C 
BRANCH  19  20
ATOM     20  N   UNL     1      18.379  21.436  12.637  0.00  0.00    -0.302 NA
ATOM     21  C   UNL     1      19.001  20.937  11.329  0.00  0.00    +0.066 C 
ATOM     22  C   UNL     1      19.412  19.432  11.432  0.00  0.00    -0.064 C 
ATOM     23  N   UNL     1      18.186  18.595  11.802  0.00  0.00    +0.379 N 
ATOM     24  C   UNL     1      18.556  17.173  11.843  0.00  0.00    -0.096 C 
ATOM     25  H   UNL     1      17.431  18.726  10.992  0.00  0.00    -0.082 HD
ATOM     26  C   UNL     1      17.559  19.087  13.100  0.00  0.00    -0.064 C 
ATOM     27  C   UNL     1      17.182  20.591  12.997  0.00  0.00    +0.066 C 
ENDBRANCH  19  20
ENDBRANCH  18  19
ENDBRANCH  14  15
ENDBRANCH  12  13
TORSDOF 6
ENDMDL
MODEL 3
REMARK VINA RESULT:      -8.4      6.755     12.205
REMARK  Name = C:\Users\Docking\Desktop\test protocol\1iep_ligandH.pdb
REMARK  8 active torsions:
REMARK  status: ('A' for Active; 'I' for Inactive)
REMARK    1  A    between atoms: _5  and  _11
REMARK    2  A    between atoms: _19  and  _21
REMARK    3  A    between atoms: _22  and  _66
REMARK    4  A    between atoms: _27  and  _30
REMARK    5  A    between atoms: _32  and  _33
REMARK    6  A    between atoms: _38  and  _43
REMARK    7  A    between atoms: _43  and  _46
REMARK    8  A    between atoms: _53  and  _55
REMARK                            x       y       z     vdW  Elec       q    Type
REMARK                         _______ _______ _______ _____ _____    ______ ____
ROOT
ATOM     10  C   UNL     1      10.178  26.113  20.215  0.00  0.00    +0.038 A 
ATOM     11  C   UNL     1       9.547  27.325  19.834  0.00  0.00    +0.047 A 
ATOM     12  C   UNL     1       8.586  27.981  20.708  0.00  0.00    +0.035 A 
ATOM     32  C   UNL     1       8.294  27.375  21.965  0.00  0.00    +0.024 A 
ATOM     33  C   UNL     1       8.925  26.143  22.367  0.00  0.00    +0.007 A 
ATOM     34  C   UNL     1       9.871  25.491  21.509  0.00  0.00    -0.029 A 
ATOM     35  C   UNL     1      10.512  24.168  21.989  0.00  0.00    +0.045 C 
ENDROOT
BRANCH  10   9
ATOM      4  C   UNL     1      11.367  22.860  16.892  0.00  0.00    +0.077 A 
ATOM      5  C   UNL     1      10.064  22.261  16.928  0.00  0.00    +0.048 A 
ATOM      6  C   UNL     1       9.119  22.815  17.820  0.00  0.00    +0.116 A 
ATOM      7  N   UNL     1       9.462  23.889  18.613  0.00  0.00    -0.223 NA
ATOM      8  C   UNL     1      10.728  24.442  18.555  0.00  0.00    +0.220 A 
ATOM      9  N   UNL     1      11.092  25.527  19.337  0.00  0.00    -0.283 N 
ATOM     36  H   UNL     1      12.038  25.902  19.271  0.00  0.00    +0.155 HD
ATOM     37  N   UNL     1      11.649  23.930  17.712  0.00  0.00    -0.214 NA
BRANCH   4   3
ATOM      1  C   UNL     1      14.815  22.535  15.075  0.00  0.00    +0.020 A 
ATOM      2  C   UNL     1      13.781  23.029  15.955  0.00  0.00    +0.013 A 
ATOM      3  C   UNL     1      12.473  22.390  15.999  0.00  0.00    +0.019 A 
ATOM     38  C   UNL     1      12.241  21.242  15.135  0.00  0.00    +0.120 A 
ATOM     39  N   UNL     1      13.255  20.790  14.297  0.00  0.00    -0.263 NA
ATOM     40  C   UNL     1      14.518  21.398  14.244  0.00  0.00    +0.111 A 
ENDBRANCH   4   3
ENDBRANCH  10   9
BRANCH  12  13
ATOM     13  N   UNL     1       7.908  29.208  20.371  0.00  0.00    -0.281 N 
ATOM     14  C   UNL     1       7.885  30.393  21.089  0.00  0.00    +0.248 C 
ATOM     30  O   UNL     1       8.272  30.510  22.242  0.00  0.00    -0.270 OA
ATOM     31  H   UNL     1       7.381  29.202  19.498  0.00  0.00    +0.155 HD
BRANCH  14  15
ATOM     15  C   UNL     1       7.341  31.622  20.436  0.00  0.00    +0.037 A 
ATOM     16  C   UNL     1       5.900  31.803  20.239  0.00  0.00    +0.013 A 
ATOM     17  C   UNL     1       5.403  32.991  19.591  0.00  0.00    +0.005 A 
ATOM     18  C   UNL     1       6.348  34.007  19.136  0.00  0.00    -0.033 A 
ATOM     28  C   UNL     1       7.771  33.804  19.348  0.00  0.00    +0.005 A 
ATOM     29  C   UNL     1       8.263  32.641  19.982  0.00  0.00    +0.013 A 
BRANCH  18  19
ATOM     19  C   UNL     1       5.908  35.296  18.416  0.00  0.00    +0.119 C 
BRANCH  19  20
ATOM     20  N   UNL     1       5.698  36.512  19.257  0.00  0.00    -0.302 NA
ATOM     21  C   UNL     1       4.589  36.309  20.293  0.00  0.00    +0.066 C 
ATOM     22  C   UNL     1       4.399  37.583  21.179  0.00  0.00    -0.064 C 
ATOM     23  N   UNL     1       4.089  38.783  20.283  0.00  0.00    +0.379 N 
ATOM     24  C   UNL     1       3.852  39.970  21.117  0.00  0.00    -0.096 C 
ATOM     25  H   UNL     1       3.144  38.561  19.735  0.00  0.00    -0.082 HD
ATOM     26  C   UNL     1       5.186  38.990  19.248  0.00  0.00    -0.064 C 
ATOM     27  C   UNL     1       5.387  37.708  18.392  0.00  0.00    +0.066 C 
ENDBRANCH  19  20
ENDBRANCH  18  19
ENDBRANCH  14  15
ENDBRANCH  12  13
TORSDOF 6
ENDMDL
MODEL 4
REMARK VINA RESULT:      -8.3      1.351      2.081
REMARK  Name = C:\Users\Docking\Desktop\test protocol\1iep_ligandH.pdb
REMARK  8 active torsions:
REMARK  status: ('A' for Active; 'I' for Inactive)
REMARK    1  A    between atoms: _5  and  _11
REMARK    2  A    between atoms: _19  and  _21
REMARK    3  A    between atoms: _22  and  _66
REMARK    4  A    between atoms: _27  and  _30
REMARK    5  A    between atoms: _32  and  _33
REMARK    6  A    between atoms: _38  and  _43
REMARK    7  A    between atoms: _43  and  _46
REMARK    8  A    between atoms: _53  and  _55
REMARK                            x       y       z     vdW  Elec       q    Type
REMARK                         _______ _______ _______ _____ _____    ______ ____
ROOT
ATOM     10  C   UNL     1      19.652  23.741  14.855  0.00  0.00    +0.038 A 
ATOM     11  C   UNL     1      18.433  23.943  15.553  0.00  0.00    +0.047 A 
ATOM     12  C   UNL     1      17.223  23.230  15.175  0.00  0.00    +0.035 A 
ATOM     32  C   UNL     1      17.290  22.316  14.082  0.00  0.00    +0.024 A 
ATOM     33  C   UNL     1      18.520  22.100  13.362  0.00  0.00    +0.007 A 
ATOM     34  C   UNL     1      19.717  22.802  13.729  0.00  0.00    -0.029 A 
ATOM     35  C   UNL     1      21.005  22.535  12.917  0.00  0.00    +0.045 C 
ENDROOT
BRANCH  10   9
ATOM      4  C   UNL     1      22.291  27.745  15.049  0.00  0.00    +0.077 A 
ATOM      5  C   UNL     1      21.348  28.476  14.251  0.00  0.00    +0.048 A 
ATOM      6  C   UNL     1      20.200  27.782  13.806  0.00  0.00    +0.116 A 
ATOM      7  N   UNL     1      20.019  26.457  14.139  0.00  0.00    -0.223 NA
ATOM      8  C   UNL     1      20.949  25.782  14.908  0.00  0.00    +0.220 A 
ATOM      9  N   UNL     1      20.784  24.452  15.261  0.00  0.00    -0.283 N 
ATOM     36  H   UNL     1      21.496  23.987  15.824  0.00  0.00    +0.155 HD
ATOM     37  N   UNL     1      22.054  26.422  15.344  0.00  0.00    -0.214 NA
BRANCH   4   3
ATOM      1  C   UNL     1      25.348  30.109  15.652  0.00  0.00    +0.020 A 
ATOM      2  C   UNL     1      24.130  29.576  15.087  0.00  0.00    +0.013 A 
ATOM      3  C   UNL     1      23.550  28.341  15.597  0.00  0.00    +0.019 A 
ATOM     38  C   UNL     1      24.233  27.663  16.689  0.00  0.00    +0.120 A 
ATOM     39  N   UNL     1      25.405  28.199  17.213  0.00  0.00    -0.263 NA
ATOM     40  C   UNL     1      25.974  29.386  16.729  0.00  0.00    +0.111 A 
ENDBRANCH   4   3
ENDBRANCH  10   9
BRANCH  12  13
ATOM     13  N   UNL     1      15.955  23.400  15.840  0.00  0.00    -0.281 N 
ATOM     14  C   UNL     1      15.461  22.693  16.924  0.00  0.00    +0.248 C 
ATOM     30  O   UNL     1      15.948  21.657  17.354  0.00  0.00    -0.270 OA
ATOM     31  H   UNL     1      15.349  24.130  15.467  0.00  0.00    +0.155 HD
BRANCH  14  15
ATOM     15  C   UNL     1      14.241  23.201  17.623  0.00  0.00    +0.037 A 
ATOM     16  C   UNL     1      12.928  23.178  16.973  0.00  0.00    +0.013 A 
ATOM     17  C   UNL     1      11.771  23.690  17.662  0.00  0.00    +0.005 A 
ATOM     18  C   UNL     1      11.922  24.229  19.012  0.00  0.00    -0.033 A 
ATOM     28  C   UNL     1      13.235  24.235  19.635  0.00  0.00    +0.005 A 
ATOM     29  C   UNL     1      14.372  23.735  18.961  0.00  0.00    +0.013 A 
BRANCH  18  19
ATOM     19  C   UNL     1      10.745  24.816  19.814  0.00  0.00    +0.119 C 
BRANCH  19  20
ATOM     20  N   UNL     1       9.456  24.063  19.787  0.00  0.00    -0.302 NA
ATOM     21  C   UNL     1       8.462  24.664  18.789  0.00  0.00    +0.066 C 
ATOM     22  C   UNL     1       7.126  23.851  18.756  0.00  0.00    -0.064 C 
ATOM     23  N   UNL     1       6.524  23.808  20.162  0.00  0.00    +0.379 N 
ATOM     24  C   UNL     1       5.240  23.094  20.124  0.00  0.00    -0.096 C 
ATOM     25  H   UNL     1       6.318  24.859  20.473  0.00  0.00    -0.082 HD
ATOM     26  C   UNL     1       7.507  23.215  21.161  0.00  0.00    -0.064 C 
ATOM     27  C   UNL     1       8.841  24.013  21.164  0.00  0.00    +0.066 C 
ENDBRANCH  19  20
ENDBRANCH  18  19
ENDBRANCH  14  15
ENDBRANCH  12  13
TORSDOF 6
ENDMDL
MODEL 5
REMARK VINA RESULT:      -8.3      5.692     14.007
REMARK  Name = C:\Users\Docking\Desktop\test protocol\1iep_ligandH.pdb
REMARK  8 active torsions:
REMARK  status: ('A' for Active; 'I' for Inactive)
REMARK    1  A    between atoms: _5  and  _11
REMARK    2  A    between atoms: _19  and  _21
REMARK    3  A    between atoms: _22  and  _66
REMARK    4  A    between atoms: _27  and  _30
REMARK    5  A    between atoms: _32  and  _33
REMARK    6  A    between atoms: _38  and  _43
REMARK    7  A    between atoms: _43  and  _46
REMARK    8  A    between atoms: _53  and  _55
REMARK                            x       y       z     vdW  Elec       q    Type
REMARK                         _______ _______ _______ _____ _____    ______ ____
ROOT
ATOM     10  C   UNL     1      19.985  24.681  15.144  0.00  0.00    +0.038 A 
ATOM     11  C   UNL     1      21.355  25.047  15.124  0.00  0.00    +0.047 A 
ATOM     12  C   UNL     1      21.772  26.418  15.370  0.00  0.00    +0.035 A 
ATOM     32  C   UNL     1      20.766  27.393  15.635  0.00  0.00    +0.024 A 
ATOM     33  C   UNL     1      19.368  27.039  15.658  0.00  0.00    +0.007 A 
ATOM     34  C   UNL     1      18.951  25.688  15.414  0.00  0.00    -0.029 A 
ATOM     35  C   UNL     1      17.439  25.367  15.444  0.00  0.00    +0.045 C 
ENDROOT
BRANCH  10   9
ATOM      4  C   UNL     1      18.587  21.135  12.227  0.00  0.00    +0.077 A 
ATOM      5  C   UNL     1      18.509  22.015  11.097  0.00  0.00    +0.048 A 
ATOM      6  C   UNL     1      18.830  23.374  11.310  0.00  0.00    +0.116 A 
ATOM      7  N   UNL     1      19.200  23.810  12.564  0.00  0.00    -0.223 NA
ATOM      8  C   UNL     1      19.264  22.935  13.633  0.00  0.00    +0.220 A 
ATOM      9  N   UNL     1      19.641  23.350  14.901  0.00  0.00    -0.283 N 
ATOM     36  H   UNL     1      19.669  22.675  15.665  0.00  0.00    +0.155 HD
ATOM     37  N   UNL     1      18.961  21.632  13.456  0.00  0.00    -0.214 NA
BRANCH   4   3
ATOM      1  C   UNL     1      18.542  17.376  11.145  0.00  0.00    +0.020 A 
ATOM      2  C   UNL     1      18.870  18.783  11.165  0.00  0.00    +0.013 A 
ATOM      3  C   UNL     1      18.282  19.670  12.161  0.00  0.00    +0.019 A 
ATOM     38  C   UNL     1      17.360  19.098  13.130  0.00  0.00    +0.120 A 
ATOM     39  N   UNL     1      17.062  17.740  13.085  0.00  0.00    -0.263 NA
ATOM     40  C   UNL     1      17.620  16.876  12.131  0.00  0.00    +0.111 A 
ENDBRANCH   4   3
ENDBRANCH  10   9
BRANCH  12  13
ATOM     13  N   UNL     1      23.148  26.850  15.354  0.00  0.00    -0.281 N 
ATOM     14  C   UNL     1      24.167  26.477  16.216  0.00  0.00    +0.248 C 
ATOM     30  O   UNL     1      23.998  25.877  17.266  0.00  0.00    -0.270 OA
ATOM     31  H   UNL     1      23.401  27.510  14.619  0.00  0.00    +0.155 HD
BRANCH  14  15
ATOM     15  C   UNL     1      25.575  26.836  15.866  0.00  0.00    +0.037 A 
ATOM     16  C   UNL     1      26.643  25.834  15.890  0.00  0.00    +0.013 A 
ATOM     17  C   UNL     1      27.996  26.210  15.565  0.00  0.00    +0.005 A 
ATOM     18  C   UNL     1      28.288  27.598  15.212  0.00  0.00    -0.033 A 
ATOM     28  C   UNL     1      27.208  28.571  15.192  0.00  0.00    +0.005 A 
ATOM     29  C   UNL     1      25.881  28.206  15.511  0.00  0.00    +0.013 A 
BRANCH  18  19
ATOM     19  C   UNL     1      29.706  28.094  14.872  0.00  0.00    +0.119 C 
BRANCH  19  20
ATOM     20  N   UNL     1      30.001  28.390  13.438  0.00  0.00    -0.302 NA
ATOM     21  C   UNL     1      30.862  27.302  12.792  0.00  0.00    +0.066 C 
ATOM     22  C   UNL     1      31.142  27.617  11.286  0.00  0.00    -0.064 C 
ATOM     23  N   UNL     1      31.821  28.983  11.172  0.00  0.00    +0.379 N 
ATOM     24  C   UNL     1      32.138  29.256   9.763  0.00  0.00    -0.096 C 
ATOM     25  H   UNL     1      32.783  28.930  11.732  0.00  0.00    -0.082 HD
ATOM     26  C   UNL     1      30.972  30.071  11.815  0.00  0.00    -0.064 C 
ATOM     27  C   UNL     1      30.675  29.733  13.303  0.00  0.00    +0.066 C 
ENDBRANCH  19  20
ENDBRANCH  18  19
ENDBRANCH  14  15
ENDBRANCH  12  13
TORSDOF 6
ENDMDL
