MODEL 1
REMARK VINA RESULT:      -9.1      0.000      0.000
REMARK  Name = C:\Users\Docking\Desktop\test protocol\1iep_ligandH.pdb
REMARK  8 active torsions:
REMARK  status: ('A' for Active; 'I' for Inactive)
REMARK    1  A    between atoms: _5  and  _11
REMARK    2  A    between atoms: _19  and  _21
REMARK    3  A    between atoms: _22  and  _66
REMARK    4  A    between atoms: _27  and  _30
REMARK    5  A    between atoms: _32  and  _33
REMARK    6  A    between atoms: _38  and  _43
REMARK    7  A    between atoms: _43  and  _46
REMARK    8  A    between atoms: _53  and  _55
REMARK                            x       y       z     vdW  Elec       q    Type
REMARK                         _______ _______ _______ _____ _____    ______ ____
ROOT
ATOM     10  C   UNL     1     -10.165 -16.826 -20.029  0.00  0.00    +0.038 A 
ATOM     11  C   UNL     1      -9.603 -15.556 -19.740  0.00  0.00    +0.047 A 
ATOM     12  C   UNL     1      -8.546 -14.995 -20.568  0.00  0.00    +0.035 A 
ATOM     32  C   UNL     1      -8.088 -15.754 -21.684  0.00  0.00    +0.024 A 
ATOM     33  C   UNL     1      -8.648 -17.047 -21.991  0.00  0.00    +0.007 A 
ATOM     34  C   UNL     1      -9.688 -17.606 -21.177  0.00  0.00    -0.029 A 
ATOM     35  C   UNL     1     -10.247 -19.000 -21.549  0.00  0.00    +0.045 C 
ENDROOT
BRANCH  10   9
ATOM      4  C   UNL     1     -11.783 -19.806 -16.632  0.00  0.00    +0.077 A 
ATOM      5  C   UNL     1     -10.511 -20.460 -16.517  0.00  0.00    +0.048 A 
ATOM      6  C   UNL     1      -9.469 -20.004 -17.355  0.00  0.00    +0.116 A 
ATOM      7  N   UNL     1      -9.693 -18.970 -18.238  0.00  0.00    -0.223 NA
ATOM      8  C   UNL     1     -10.932 -18.362 -18.325  0.00  0.00    +0.220 A 
ATOM      9  N   UNL     1     -11.177 -17.316 -19.200  0.00  0.00    -0.283 N 
ATOM     36  H   UNL     1     -12.107 -16.899 -19.240  0.00  0.00    +0.155 HD
ATOM     37  N   UNL     1     -11.944 -18.780 -17.537  0.00  0.00    -0.214 NA
BRANCH   4   3
ATOM      1  C   UNL     1     -14.080 -21.261 -13.819  0.00  0.00    +0.020 A 
ATOM      2  C   UNL     1     -12.891 -20.934 -14.573  0.00  0.00    +0.013 A 
ATOM      3  C   UNL     1     -12.981 -20.172 -15.813  0.00  0.00    +0.019 A 
ATOM     38  C   UNL     1     -14.299 -19.752 -16.264  0.00  0.00    +0.120 A 
ATOM     39  N   UNL     1     -15.426 -20.082 -15.518  0.00  0.00    -0.263 NA
ATOM     40  C   UNL     1     -15.352 -20.817 -14.325  0.00  0.00    +0.111 A 
ENDBRANCH   4   3
ENDBRANCH  10   9
BRANCH  12  13
ATOM     13  N   UNL     1      -7.932 -13.715 -20.320  0.00  0.00    -0.281 N 
ATOM     14  C   UNL     1      -8.141 -12.524 -20.997  0.00  0.00    +0.248 C 
ATOM     30  O   UNL     1      -8.733 -12.429 -22.061  0.00  0.00    -0.270 OA
ATOM     31  H   UNL     1      -7.261 -13.682 -19.552  0.00  0.00    +0.155 HD
BRANCH  14  15
ATOM     15  C   UNL     1      -7.602 -11.258 -20.413  0.00  0.00    +0.037 A 
ATOM     16  C   UNL     1      -8.252  -9.969 -20.664  0.00  0.00    +0.013 A 
ATOM     17  C   UNL     1      -7.702  -8.760 -20.103  0.00  0.00    +0.005 A 
ATOM     18  C   UNL     1      -6.494  -8.836 -19.285  0.00  0.00    -0.033 A 
ATOM     28  C   UNL     1      -5.872 -10.128 -19.048  0.00  0.00    +0.005 A 
ATOM     29  C   UNL     1      -6.408 -11.315 -19.597  0.00  0.00    +0.013 A 
BRANCH  18  19
ATOM     19  C   UNL     1      -5.825  -7.595 -18.664  0.00  0.00    +0.119 C 
BRANCH  19  20
ATOM     20  N   UNL     1      -5.083  -6.685 -19.587  0.00  0.00    -0.302 NA
ATOM     21  C   UNL     1      -5.968  -5.549 -20.107  0.00  0.00    +0.066 C 
ATOM     22  C   UNL     1      -5.170  -4.593 -21.053  0.00  0.00    -0.064 C 
ATOM     23  N   UNL     1      -4.586  -5.400 -22.214  0.00  0.00    +0.379 N 
ATOM     24  C   UNL     1      -3.884  -4.495 -23.136  0.00  0.00    -0.096 C 
ATOM     25  H   UNL     1      -5.438  -5.856 -22.770  0.00  0.00    -0.082 HD
ATOM     26  C   UNL     1      -3.707  -6.533 -21.705  0.00  0.00    -0.064 C 
ATOM     27  C   UNL     1      -4.501  -7.460 -20.743  0.00  0.00    +0.066 C 
ENDBRANCH  19  20
ENDBRANCH  18  19
ENDBRANCH  14  15
ENDBRANCH  12  13
TORSDOF 6
ENDMDL
MODEL 2
REMARK VINA RESULT:      -8.8      3.706     12.789
REMARK  Name = C:\Users\Docking\Desktop\test protocol\1iep_ligandH.pdb
REMARK  8 active torsions:
REMARK  status: ('A' for Active; 'I' for Inactive)
REMARK    1  A    between atoms: _5  and  _11
REMARK    2  A    between atoms: _19  and  _21
REMARK    3  A    between atoms: _22  and  _66
REMARK    4  A    between atoms: _27  and  _30
REMARK    5  A    between atoms: _32  and  _33
REMARK    6  A    between atoms: _38  and  _43
REMARK    7  A    between atoms: _43  and  _46
REMARK    8  A    between atoms: _53  and  _55
REMARK                            x       y       z     vdW  Elec       q    Type
REMARK                         _______ _______ _______ _____ _____    ______ ____
ROOT
ATOM     10  C   UNL     1      -9.223 -17.077 -18.943  0.00  0.00    +0.038 A 
ATOM     11  C   UNL     1     -10.543 -17.275 -18.464  0.00  0.00    +0.047 A 
ATOM     12  C   UNL     1     -11.148 -18.598 -18.448  0.00  0.00    +0.035 A 
ATOM     32  C   UNL     1     -10.377 -19.698 -18.925  0.00  0.00    +0.024 A 
ATOM     33  C   UNL     1      -9.034 -19.515 -19.416  0.00  0.00    +0.007 A 
ATOM     34  C   UNL     1      -8.434 -18.212 -19.436  0.00  0.00    -0.029 A 
ATOM     35  C   UNL     1      -6.992 -18.074 -19.980  0.00  0.00    +0.045 C 
ENDROOT
BRANCH  10   9
ATOM      4  C   UNL     1      -8.178 -12.917 -21.098  0.00  0.00    +0.077 A 
ATOM      5  C   UNL     1      -8.711 -13.365 -22.352  0.00  0.00    +0.048 A 
ATOM      6  C   UNL     1      -9.238 -14.675 -22.402  0.00  0.00    +0.116 A 
ATOM      7  N   UNL     1      -9.228 -15.469 -21.276  0.00  0.00    -0.223 NA
ATOM      8  C   UNL     1      -8.705 -15.007 -20.082  0.00  0.00    +0.220 A 
ATOM      9  N   UNL     1      -8.692 -15.785 -18.935  0.00  0.00    -0.283 N 
ATOM     36  H   UNL     1      -8.290 -15.410 -18.076  0.00  0.00    +0.155 HD
ATOM     37  N   UNL     1      -8.194 -13.760 -20.009  0.00  0.00    -0.214 NA
BRANCH   4   3
ATOM      1  C   UNL     1      -5.937  -9.728 -21.419  0.00  0.00    +0.020 A 
ATOM      2  C   UNL     1      -6.468 -11.049 -21.664  0.00  0.00    +0.013 A 
ATOM      3  C   UNL     1      -7.589 -11.558 -20.885  0.00  0.00    +0.019 A 
ATOM     38  C   UNL     1      -8.155 -10.697 -19.856  0.00  0.00    +0.120 A 
ATOM     39  N   UNL     1      -7.621  -9.430 -19.641  0.00  0.00    -0.263 NA
ATOM     40  C   UNL     1      -6.541  -8.931 -20.385  0.00  0.00    +0.111 A 
ENDBRANCH   4   3
ENDBRANCH  10   9
BRANCH  12  13
ATOM     13  N   UNL     1     -12.487 -18.858 -17.982  0.00  0.00    -0.281 N 
ATOM     14  C   UNL     1     -12.878 -19.647 -16.913  0.00  0.00    +0.248 C 
ATOM     30  O   UNL     1     -12.143 -20.425 -16.322  0.00  0.00    -0.270 OA
ATOM     31  H   UNL     1     -13.238 -18.406 -18.503  0.00  0.00    +0.155 HD
BRANCH  14  15
ATOM     15  C   UNL     1     -14.294 -19.573 -16.440  0.00  0.00    +0.037 A 
ATOM     16  C   UNL     1     -14.674 -20.033 -15.102  0.00  0.00    +0.013 A 
ATOM     17  C   UNL     1     -16.049 -19.966 -14.677  0.00  0.00    +0.005 A 
ATOM     18  C   UNL     1     -17.056 -19.435 -15.593  0.00  0.00    -0.033 A 
ATOM     28  C   UNL     1     -16.651 -18.981 -16.913  0.00  0.00    +0.005 A 
ATOM     29  C   UNL     1     -15.304 -19.046 -17.333  0.00  0.00    +0.013 A 
BRANCH  18  19
ATOM     19  C   UNL     1     -18.551 -19.346 -15.232  0.00  0.00    +0.119 C 
BRANCH  19  20
ATOM     20  N   UNL     1     -19.178 -17.990 -15.244  0.00  0.00    -0.302 NA
ATOM     21  C   UNL     1     -18.518 -17.043 -14.238  0.00  0.00    +0.066 C 
ATOM     22  C   UNL     1     -19.171 -15.624 -14.279  0.00  0.00    -0.064 C 
ATOM     23  N   UNL     1     -20.670 -15.747 -14.004  0.00  0.00    +0.379 N 
ATOM     24  C   UNL     1     -21.277 -14.408 -13.985  0.00  0.00    -0.096 C 
ATOM     25  H   UNL     1     -20.792 -16.188 -12.987  0.00  0.00    -0.082 HD
ATOM     26  C   UNL     1     -21.334 -16.689 -14.998  0.00  0.00    -0.064 C 
ATOM     27  C   UNL     1     -20.658 -18.088 -14.970  0.00  0.00    +0.066 C 
ENDBRANCH  19  20
ENDBRANCH  18  19
ENDBRANCH  14  15
ENDBRANCH  12  13
TORSDOF 6
ENDMDL
MODEL 3
REMARK VINA RESULT:      -8.8     13.510     20.780
REMARK  Name = C:\Users\Docking\Desktop\test protocol\1iep_ligandH.pdb
REMARK  8 active torsions:
REMARK  status: ('A' for Active; 'I' for Inactive)
REMARK    1  A    between atoms: _5  and  _11
REMARK    2  A    between atoms: _19  and  _21
REMARK    3  A    between atoms: _22  and  _66
REMARK    4  A    between atoms: _27  and  _30
REMARK    5  A    between atoms: _32  and  _33
REMARK    6  A    between atoms: _38  and  _43
REMARK    7  A    between atoms: _43  and  _46
REMARK    8  A    between atoms: _53  and  _55
REMARK                            x       y       z     vdW  Elec       q    Type
REMARK                         _______ _______ _______ _____ _____    ______ ____
ROOT
ATOM     10  C   UNL     1     -19.702 -22.890 -13.151  0.00  0.00    +0.038 A 
ATOM     11  C   UNL     1     -20.487 -23.326 -12.054  0.00  0.00    +0.047 A 
ATOM     12  C   UNL     1     -20.055 -24.428 -11.209  0.00  0.00    +0.035 A 
ATOM     32  C   UNL     1     -18.814 -25.062 -11.509  0.00  0.00    +0.024 A 
ATOM     33  C   UNL     1     -18.003 -24.632 -12.621  0.00  0.00    +0.007 A 
ATOM     34  C   UNL     1     -18.426 -23.547 -13.459  0.00  0.00    -0.029 A 
ATOM     35  C   UNL     1     -17.519 -23.133 -14.641  0.00  0.00    +0.045 C 
ENDROOT
BRANCH  10   9
ATOM      4  C   UNL     1     -19.742 -18.252 -14.386  0.00  0.00    +0.077 A 
ATOM      5  C   UNL     1     -18.777 -17.914 -13.380  0.00  0.00    +0.048 A 
ATOM      6  C   UNL     1     -18.301 -18.962 -12.560  0.00  0.00    +0.116 A 
ATOM      7  N   UNL     1     -18.762 -20.248 -12.743  0.00  0.00    -0.223 NA
ATOM      8  C   UNL     1     -19.694 -20.539 -13.722  0.00  0.00    +0.220 A 
ATOM      9  N   UNL     1     -20.165 -21.826 -13.928  0.00  0.00    -0.283 N 
ATOM     36  H   UNL     1     -20.858 -21.998 -14.656  0.00  0.00    +0.155 HD
ATOM     37  N   UNL     1     -20.165 -19.556 -14.516  0.00  0.00    -0.214 NA
BRANCH   4   3
ATOM      1  C   UNL     1     -21.888 -15.344 -15.882  0.00  0.00    +0.020 A 
ATOM      2  C   UNL     1     -21.346 -16.284 -14.929  0.00  0.00    +0.013 A 
ATOM      3  C   UNL     1     -20.337 -17.256 -15.332  0.00  0.00    +0.019 A 
ATOM     38  C   UNL     1     -19.894 -17.248 -16.718  0.00  0.00    +0.120 A 
ATOM     39  N   UNL     1     -20.435 -16.331 -17.614  0.00  0.00    -0.263 NA
ATOM     40  C   UNL     1     -21.408 -15.393 -17.238  0.00  0.00    +0.111 A 
ENDBRANCH   4   3
ENDBRANCH  10   9
BRANCH  12  13
ATOM     13  N   UNL     1     -20.814 -24.920 -10.087  0.00  0.00    -0.281 N 
ATOM     14  C   UNL     1     -20.348 -25.264  -8.828  0.00  0.00    +0.248 C 
ATOM     30  O   UNL     1     -19.168 -25.404  -8.542  0.00  0.00    -0.270 OA
ATOM     31  H   UNL     1     -21.817 -25.028 -10.238  0.00  0.00    +0.155 HD
BRANCH  14  15
ATOM     15  C   UNL     1     -21.336 -25.502  -7.732  0.00  0.00    +0.037 A 
ATOM     16  C   UNL     1     -22.779 -25.446  -7.984  0.00  0.00    +0.013 A 
ATOM     17  C   UNL     1     -23.710 -25.662  -6.906  0.00  0.00    +0.005 A 
ATOM     18  C   UNL     1     -23.201 -25.937  -5.564  0.00  0.00    -0.033 A 
ATOM     28  C   UNL     1     -21.766 -25.992  -5.343  0.00  0.00    +0.005 A 
ATOM     29  C   UNL     1     -20.850 -25.780  -6.398  0.00  0.00    +0.013 A 
BRANCH  18  19
ATOM     19  C   UNL     1     -24.122 -26.159  -4.350  0.00  0.00    +0.119 C 
BRANCH  19  20
ATOM     20  N   UNL     1     -24.345 -24.996  -3.439  0.00  0.00    -0.302 NA
ATOM     21  C   UNL     1     -24.352 -23.666  -4.198  0.00  0.00    +0.066 C 
ATOM     22  C   UNL     1     -24.609 -22.462  -3.234  0.00  0.00    -0.064 C 
ATOM     23  N   UNL     1     -23.543 -22.455  -2.136  0.00  0.00    +0.379 N 
ATOM     24  C   UNL     1     -23.748 -21.291  -1.262  0.00  0.00    -0.096 C 
ATOM     25  H   UNL     1     -22.551 -22.337  -2.630  0.00  0.00    -0.082 HD
ATOM     26  C   UNL     1     -23.528 -23.775  -1.379  0.00  0.00    -0.064 C 
ATOM     27  C   UNL     1     -23.301 -24.967  -2.350  0.00  0.00    +0.066 C 
ENDBRANCH  19  20
ENDBRANCH  18  19
ENDBRANCH  14  15
ENDBRANCH  12  13
TORSDOF 6
ENDMDL
MODEL 4
REMARK VINA RESULT:      -8.7      7.200     11.736
REMARK  Name = C:\Users\Docking\Desktop\test protocol\1iep_ligandH.pdb
REMARK  8 active torsions:
REMARK  status: ('A' for Active; 'I' for Inactive)
REMARK    1  A    between atoms: _5  and  _11
REMARK    2  A    between atoms: _19  and  _21
REMARK    3  A    between atoms: _22  and  _66
REMARK    4  A    between atoms: _27  and  _30
REMARK    5  A    between atoms: _32  and  _33
REMARK    6  A    between atoms: _38  and  _43
REMARK    7  A    between atoms: _43  and  _46
REMARK    8  A    between atoms: _53  and  _55
REMARK                            x       y       z     vdW  Elec       q    Type
REMARK                         _______ _______ _______ _____ _____    ______ ____
ROOT
ATOM     10  C   UNL     1      -6.359  -9.933 -21.223  0.00  0.00    +0.038 A 
ATOM     11  C   UNL     1      -6.123  -8.559 -20.964  0.00  0.00    +0.047 A 
ATOM     12  C   UNL     1      -6.988  -7.803 -20.071  0.00  0.00    +0.035 A 
ATOM     32  C   UNL     1      -8.083  -8.479 -19.458  0.00  0.00    +0.024 A 
ATOM     33  C   UNL     1      -8.338  -9.875 -19.711  0.00  0.00    +0.007 A 
ATOM     34  C   UNL     1      -7.490 -10.626 -20.593  0.00  0.00    -0.029 A 
ATOM     35  C   UNL     1      -7.815 -12.118 -20.833  0.00  0.00    +0.045 C 
ENDROOT
BRANCH  10   9
ATOM      4  C   UNL     1      -3.460 -10.090 -25.046  0.00  0.00    +0.077 A 
ATOM      5  C   UNL     1      -3.704  -8.711 -25.361  0.00  0.00    +0.048 A 
ATOM      6  C   UNL     1      -4.588  -8.000 -24.519  0.00  0.00    +0.116 A 
ATOM      7  N   UNL     1      -5.177  -8.629 -23.444  0.00  0.00    -0.223 NA
ATOM      8  C   UNL     1      -4.922  -9.960 -23.169  0.00  0.00    +0.220 A 
ATOM      9  N   UNL     1      -5.498 -10.611 -22.089  0.00  0.00    -0.283 N 
ATOM     36  H   UNL     1      -5.290 -11.596 -21.924  0.00  0.00    +0.155 HD
ATOM     37  N   UNL     1      -4.083 -10.662 -23.959  0.00  0.00    -0.214 NA
BRANCH   4   3
ATOM      1  C   UNL     1      -1.271 -13.118 -26.201  0.00  0.00    +0.020 A 
ATOM      2  C   UNL     1      -2.154 -12.305 -25.397  0.00  0.00    +0.013 A 
ATOM      3  C   UNL     1      -2.549 -10.974 -25.839  0.00  0.00    +0.019 A 
ATOM     38  C   UNL     1      -2.031 -10.492 -27.111  0.00  0.00    +0.120 A 
ATOM     39  N   UNL     1      -1.182 -11.297 -27.864  0.00  0.00    -0.263 NA
ATOM     40  C   UNL     1      -0.793 -12.579 -27.447  0.00  0.00    +0.111 A 
ENDBRANCH   4   3
ENDBRANCH  10   9
BRANCH  12  13
ATOM     13  N   UNL     1      -6.802  -6.404 -19.776  0.00  0.00    -0.281 N 
ATOM     14  C   UNL     1      -5.897  -5.831 -18.897  0.00  0.00    +0.248 C 
ATOM     30  O   UNL     1      -5.250  -6.454 -18.069  0.00  0.00    -0.270 OA
ATOM     31  H   UNL     1      -7.413  -5.757 -20.275  0.00  0.00    +0.155 HD
BRANCH  14  15
ATOM     15  C   UNL     1      -5.691  -4.352 -18.935  0.00  0.00    +0.037 A 
ATOM     16  C   UNL     1      -5.938  -3.519 -17.755  0.00  0.00    +0.013 A 
ATOM     17  C   UNL     1      -5.748  -2.092 -17.824  0.00  0.00    +0.005 A 
ATOM     18  C   UNL     1      -5.306  -1.488 -19.078  0.00  0.00    -0.033 A 
ATOM     28  C   UNL     1      -5.063  -2.338 -20.232  0.00  0.00    +0.005 A 
ATOM     29  C   UNL     1      -5.249  -3.737 -20.169  0.00  0.00    +0.013 A 
BRANCH  18  19
ATOM     19  C   UNL     1      -5.097   0.028 -19.249  0.00  0.00    +0.119 C 
BRANCH  19  20
ATOM     20  N   UNL     1      -5.939   0.933 -18.409  0.00  0.00    -0.302 NA
ATOM     21  C   UNL     1      -6.682   1.972 -19.253  0.00  0.00    +0.066 C 
ATOM     22  C   UNL     1      -7.575   2.896 -18.361  0.00  0.00    -0.064 C 
ATOM     23  N   UNL     1      -6.703   3.578 -17.305  0.00  0.00    +0.379 N 
ATOM     24  C   UNL     1      -7.529   4.491 -16.502  0.00  0.00    -0.096 C 
ATOM     25  H   UNL     1      -5.942   4.192 -17.841  0.00  0.00    -0.082 HD
ATOM     26  C   UNL     1      -5.958   2.551 -16.464  0.00  0.00    -0.064 C 
ATOM     27  C   UNL     1      -5.097   1.620 -17.362  0.00  0.00    +0.066 C 
ENDBRANCH  19  20
ENDBRANCH  18  19
ENDBRANCH  14  15
ENDBRANCH  12  13
TORSDOF 6
ENDMDL
MODEL 5
REMARK VINA RESULT:      -8.7      3.271     13.899
REMARK  Name = C:\Users\Docking\Desktop\test protocol\1iep_ligandH.pdb
REMARK  8 active torsions:
REMARK  status: ('A' for Active; 'I' for Inactive)
REMARK    1  A    between atoms: _5  and  _11
REMARK    2  A    between atoms: _19  and  _21
REMARK    3  A    between atoms: _22  and  _66
REMARK    4  A    between atoms: _27  and  _30
REMARK    5  A    between atoms: _32  and  _33
REMARK    6  A    between atoms: _38  and  _43
REMARK    7  A    between atoms: _43  and  _46
REMARK    8  A    between atoms: _53  and  _55
REMARK                            x       y       z     vdW  Elec       q    Type
REMARK                         _______ _______ _______ _____ _____    ______ ____
ROOT
ATOM     10  C   UNL     1      -9.191 -17.068 -18.983  0.00  0.00    +0.038 A 
ATOM     11  C   UNL     1     -10.509 -17.300 -18.514  0.00  0.00    +0.047 A 
ATOM     12  C   UNL     1     -11.085 -18.635 -18.518  0.00  0.00    +0.035 A 
ATOM     32  C   UNL     1     -10.289 -19.713 -19.006  0.00  0.00    +0.024 A 
ATOM     33  C   UNL     1      -8.948 -19.495 -19.488  0.00  0.00    +0.007 A 
ATOM     34  C   UNL     1      -8.375 -18.179 -19.488  0.00  0.00    -0.029 A 
ATOM     35  C   UNL     1      -6.935 -18.003 -20.023  0.00  0.00    +0.045 C 
ENDROOT
BRANCH  10   9
ATOM      4  C   UNL     1      -8.190 -12.872 -21.089  0.00  0.00    +0.077 A 
ATOM      5  C   UNL     1      -8.688 -13.322 -22.357  0.00  0.00    +0.048 A 
ATOM      6  C   UNL     1      -9.186 -14.643 -22.427  0.00  0.00    +0.116 A 
ATOM      7  N   UNL     1      -9.182 -15.444 -21.306  0.00  0.00    -0.223 NA
ATOM      8  C   UNL     1      -8.694 -14.979 -20.098  0.00  0.00    +0.220 A 
ATOM      9  N   UNL     1      -8.687 -15.765 -18.956  0.00  0.00    -0.283 N 
ATOM     36  H   UNL     1      -8.312 -15.388 -18.087  0.00  0.00    +0.155 HD
ATOM     37  N   UNL     1      -8.211 -13.723 -20.006  0.00  0.00    -0.214 NA
BRANCH   4   3
ATOM      1  C   UNL     1      -6.004  -9.638 -21.336  0.00  0.00    +0.020 A 
ATOM      2  C   UNL     1      -6.502 -10.968 -21.601  0.00  0.00    +0.013 A 
ATOM      3  C   UNL     1      -7.634 -11.502 -20.855  0.00  0.00    +0.019 A 
ATOM     38  C   UNL     1      -8.246 -10.657 -19.841  0.00  0.00    +0.120 A 
ATOM     39  N   UNL     1      -7.744  -9.380 -19.607  0.00  0.00    -0.263 NA
ATOM     40  C   UNL     1      -6.654  -8.857 -20.317  0.00  0.00    +0.111 A 
ENDBRANCH   4   3
ENDBRANCH  10   9
BRANCH  12  13
ATOM     13  N   UNL     1     -12.420 -18.930 -18.061  0.00  0.00    -0.281 N 
ATOM     14  C   UNL     1     -12.798 -19.601 -16.909  0.00  0.00    +0.248 C 
ATOM     30  O   UNL     1     -12.034 -20.240 -16.200  0.00  0.00    -0.270 OA
ATOM     31  H   UNL     1     -13.180 -18.605 -18.659  0.00  0.00    +0.155 HD
BRANCH  14  15
ATOM     15  C   UNL     1     -14.233 -19.570 -16.492  0.00  0.00    +0.037 A 
ATOM     16  C   UNL     1     -15.279 -19.103 -17.406  0.00  0.00    +0.013 A 
ATOM     17  C   UNL     1     -16.654 -19.067 -16.973  0.00  0.00    +0.005 A 
ATOM     18  C   UNL     1     -16.989 -19.501 -15.619  0.00  0.00    -0.033 A 
ATOM     28  C   UNL     1     -15.932 -19.964 -14.735  0.00  0.00    +0.005 A 
ATOM     29  C   UNL     1     -14.584 -20.000 -15.156  0.00  0.00    +0.013 A 
BRANCH  18  19
ATOM     19  C   UNL     1     -18.426 -19.477 -15.065  0.00  0.00    +0.119 C 
BRANCH  19  20
ATOM     20  N   UNL     1     -18.815 -20.570 -14.124  0.00  0.00    -0.302 NA
ATOM     21  C   UNL     1     -19.124 -21.877 -14.859  0.00  0.00    +0.066 C 
ATOM     22  C   UNL     1     -19.507 -23.016 -13.859  0.00  0.00    -0.064 C 
ATOM     23  N   UNL     1     -20.706 -22.571 -13.019  0.00  0.00    +0.379 N 
ATOM     24  C   UNL     1     -21.105 -23.661 -12.117  0.00  0.00    -0.096 C 
ATOM     25  H   UNL     1     -21.555 -22.380 -13.716  0.00  0.00    -0.082 HD
ATOM     26  C   UNL     1     -20.409 -21.270 -12.287  0.00  0.00    -0.064 C 
ATOM     27  C   UNL     1     -20.000 -20.153 -13.288  0.00  0.00    +0.066 C 
ENDBRANCH  19  20
ENDBRANCH  18  19
ENDBRANCH  14  15
ENDBRANCH  12  13
TORSDOF 6
ENDMDL
