MODEL 1
REMARK VINA RESULT:      -8.9      0.000      0.000
REMARK  Name = C:\Users\Docking\Desktop\test protocol\1iep_ligandH.pdb
REMARK  8 active torsions:
REMARK  status: ('A' for Active; 'I' for Inactive)
REMARK    1  A    between atoms: _5  and  _11
REMARK    2  A    between atoms: _19  and  _21
REMARK    3  A    between atoms: _22  and  _66
REMARK    4  A    between atoms: _27  and  _30
REMARK    5  A    between atoms: _32  and  _33
REMARK    6  A    between atoms: _38  and  _43
REMARK    7  A    between atoms: _43  and  _46
REMARK    8  A    between atoms: _53  and  _55
REMARK                            x       y       z     vdW  Elec       q    Type
REMARK                         _______ _______ _______ _____ _____    ______ ____
ROOT
ATOM     10  C   UNL     1      10.587  25.150   9.375  0.00  0.00    +0.038 A 
ATOM     11  C   UNL     1      10.108  23.946   9.953  0.00  0.00    +0.047 A 
ATOM     12  C   UNL     1      10.336  23.643  11.357  0.00  0.00    +0.035 A 
ATOM     32  C   UNL     1      11.053  24.590  12.145  0.00  0.00    +0.024 A 
ATOM     33  C   UNL     1      11.547  25.818  11.574  0.00  0.00    +0.007 A 
ATOM     34  C   UNL     1      11.328  26.121  10.189  0.00  0.00    -0.029 A 
ATOM     35  C   UNL     1      11.887  27.450   9.629  0.00  0.00    +0.045 C 
ENDROOT
BRANCH  10   9
ATOM      4  C   UNL     1       7.978  27.043   5.820  0.00  0.00    +0.077 A 
ATOM      5  C   UNL     1       7.010  27.576   6.734  0.00  0.00    +0.048 A 
ATOM      6  C   UNL     1       7.216  27.335   8.111  0.00  0.00    +0.116 A 
ATOM      7  N   UNL     1       8.313  26.613   8.530  0.00  0.00    -0.223 NA
ATOM      8  C   UNL     1       9.226  26.112   7.622  0.00  0.00    +0.220 A 
ATOM      9  N   UNL     1      10.340  25.390   8.022  0.00  0.00    -0.283 N 
ATOM     36  H   UNL     1      10.987  25.031   7.320  0.00  0.00    +0.155 HD
ATOM     37  N   UNL     1       9.051  26.328   6.301  0.00  0.00    -0.214 NA
BRANCH   4   3
ATOM      1  C   UNL     1       7.145  26.501   2.036  0.00  0.00    +0.020 A 
ATOM      2  C   UNL     1       7.191  26.287   3.464  0.00  0.00    +0.013 A 
ATOM      3  C   UNL     1       7.900  27.217   4.335  0.00  0.00    +0.019 A 
ATOM     38  C   UNL     1       8.557  28.363   3.723  0.00  0.00    +0.120 A 
ATOM     39  N   UNL     1       8.497  28.542   2.345  0.00  0.00    -0.263 NA
ATOM     40  C   UNL     1       7.819  27.653   1.497  0.00  0.00    +0.111 A 
ENDBRANCH   4   3
ENDBRANCH  10   9
BRANCH  12  13
ATOM     13  N   UNL     1       9.881  22.434  11.997  0.00  0.00    -0.281 N 
ATOM     14  C   UNL     1       9.843  21.154  11.469  0.00  0.00    +0.248 C 
ATOM     30  O   UNL     1       9.997  20.889  10.286  0.00  0.00    -0.270 OA
ATOM     31  H   UNL     1       9.545  22.533  12.955  0.00  0.00    +0.155 HD
BRANCH  14  15
ATOM     15  C   UNL     1       9.582  20.002  12.385  0.00  0.00    +0.037 A 
ATOM     16  C   UNL     1      10.445  18.818  12.382  0.00  0.00    +0.013 A 
ATOM     17  C   UNL     1      10.161  17.714  13.265  0.00  0.00    +0.005 A 
ATOM     18  C   UNL     1       9.009  17.790  14.159  0.00  0.00    -0.033 A 
ATOM     28  C   UNL     1       8.172  18.979  14.145  0.00  0.00    +0.005 A 
ATOM     29  C   UNL     1       8.447  20.062  13.281  0.00  0.00    +0.013 A 
BRANCH  18  19
ATOM     19  C   UNL     1       8.618  16.650  15.119  0.00  0.00    +0.119 C 
BRANCH  19  20
ATOM     20  N   UNL     1       7.317  15.963  14.870  0.00  0.00    -0.302 NA
ATOM     21  C   UNL     1       6.273  16.303  15.938  0.00  0.00    +0.066 C 
ATOM     22  C   UNL     1       4.911  15.592  15.650  0.00  0.00    -0.064 C 
ATOM     23  N   UNL     1       5.133  14.081  15.572  0.00  0.00    +0.379 N 
ATOM     24  C   UNL     1       3.845  13.406  15.358  0.00  0.00    -0.096 C 
ATOM     25  H   UNL     1       5.531  13.747  16.558  0.00  0.00    -0.082 HD
ATOM     26  C   UNL     1       6.171  13.734  14.514  0.00  0.00    -0.064 C 
ATOM     27  C   UNL     1       7.512  14.468  14.793  0.00  0.00    +0.066 C 
ENDBRANCH  19  20
ENDBRANCH  18  19
ENDBRANCH  14  15
ENDBRANCH  12  13
TORSDOF 6
ENDMDL
MODEL 2
REMARK VINA RESULT:      -8.9      6.874     12.360
REMARK  Name = C:\Users\Docking\Desktop\test protocol\1iep_ligandH.pdb
REMARK  8 active torsions:
REMARK  status: ('A' for Active; 'I' for Inactive)
REMARK    1  A    between atoms: _5  and  _11
REMARK    2  A    between atoms: _19  and  _21
REMARK    3  A    between atoms: _22  and  _66
REMARK    4  A    between atoms: _27  and  _30
REMARK    5  A    between atoms: _32  and  _33
REMARK    6  A    between atoms: _38  and  _43
REMARK    7  A    between atoms: _43  and  _46
REMARK    8  A    between atoms: _53  and  _55
REMARK                            x       y       z     vdW  Elec       q    Type
REMARK                         _______ _______ _______ _____ _____    ______ ____
ROOT
ATOM     10  C   UNL     1       9.541  19.762  14.172  0.00  0.00    +0.038 A 
ATOM     11  C   UNL     1      10.732  19.600  14.924  0.00  0.00    +0.047 A 
ATOM     12  C   UNL     1      11.942  20.332  14.585  0.00  0.00    +0.035 A 
ATOM     32  C   UNL     1      11.903  21.223  13.473  0.00  0.00    +0.024 A 
ATOM     33  C   UNL     1      10.701  21.399  12.696  0.00  0.00    +0.007 A 
ATOM     34  C   UNL     1       9.505  20.677  13.025  0.00  0.00    -0.029 A 
ATOM     35  C   UNL     1       8.247  20.900  12.153  0.00  0.00    +0.045 C 
ENDROOT
BRANCH  10   9
ATOM      4  C   UNL     1       7.175  15.629  14.776  0.00  0.00    +0.077 A 
ATOM      5  C   UNL     1       8.281  14.856  14.287  0.00  0.00    +0.048 A 
ATOM      6  C   UNL     1       9.437  15.561  13.883  0.00  0.00    +0.116 A 
ATOM      7  N   UNL     1       9.474  16.936  13.967  0.00  0.00    -0.223 NA
ATOM      8  C   UNL     1       8.390  17.651  14.442  0.00  0.00    +0.220 A 
ATOM      9  N   UNL     1       8.408  19.034  14.542  0.00  0.00    -0.283 N 
ATOM     36  H   UNL     1       7.585  19.525  14.890  0.00  0.00    +0.155 HD
ATOM     37  N   UNL     1       7.273  17.001  14.832  0.00  0.00    -0.214 NA
BRANCH   4   3
ATOM      1  C   UNL     1       4.159  13.190  15.280  0.00  0.00    +0.020 A 
ATOM      2  C   UNL     1       5.412  13.724  14.798  0.00  0.00    +0.013 A 
ATOM      3  C   UNL     1       5.886  15.029  15.243  0.00  0.00    +0.019 A 
ATOM     38  C   UNL     1       5.063  15.772  16.185  0.00  0.00    +0.120 A 
ATOM     39  N   UNL     1       3.860  15.233  16.631  0.00  0.00    -0.263 NA
ATOM     40  C   UNL     1       3.393  13.979  16.208  0.00  0.00    +0.111 A 
ENDBRANCH   4   3
ENDBRANCH  10   9
BRANCH  12  13
ATOM     13  N   UNL     1      13.183  20.202  15.308  0.00  0.00    -0.281 N 
ATOM     14  C   UNL     1      13.388  20.307  16.674  0.00  0.00    +0.248 C 
ATOM     30  O   UNL     1      12.564  20.743  17.465  0.00  0.00    -0.270 OA
ATOM     31  H   UNL     1      14.011  20.010  14.744  0.00  0.00    +0.155 HD
BRANCH  14  15
ATOM     15  C   UNL     1      14.703  19.880  17.242  0.00  0.00    +0.037 A 
ATOM     16  C   UNL     1      14.806  19.349  18.603  0.00  0.00    +0.013 A 
ATOM     17  C   UNL     1      16.089  18.960  19.132  0.00  0.00    +0.005 A 
ATOM     18  C   UNL     1      17.280  19.101  18.298  0.00  0.00    -0.033 A 
ATOM     28  C   UNL     1      17.148  19.626  16.949  0.00  0.00    +0.005 A 
ATOM     29  C   UNL     1      15.892  20.009  16.427  0.00  0.00    +0.013 A 
BRANCH  18  19
ATOM     19  C   UNL     1      18.693  18.731  18.788  0.00  0.00    +0.119 C 
BRANCH  19  20
ATOM     20  N   UNL     1      18.806  17.599  19.756  0.00  0.00    -0.302 NA
ATOM     21  C   UNL     1      20.058  17.715  20.630  0.00  0.00    +0.066 C 
ATOM     22  C   UNL     1      20.149  16.535  21.652  0.00  0.00    -0.064 C 
ATOM     23  N   UNL     1      20.139  15.206  20.894  0.00  0.00    +0.379 N 
ATOM     24  C   UNL     1      20.283  14.096  21.848  0.00  0.00    -0.096 C 
ATOM     25  H   UNL     1      21.028  15.193  20.223  0.00  0.00    -0.082 HD
ATOM     26  C   UNL     1      18.899  15.084  20.020  0.00  0.00    -0.064 C 
ATOM     27  C   UNL     1      18.802  16.277  19.029  0.00  0.00    +0.066 C 
ENDBRANCH  19  20
ENDBRANCH  18  19
ENDBRANCH  14  15
ENDBRANCH  12  13
TORSDOF 6
ENDMDL
MODEL 3
REMARK VINA RESULT:      -8.9      2.796      5.568
REMARK  Name = C:\Users\Docking\Desktop\test protocol\1iep_ligandH.pdb
REMARK  8 active torsions:
REMARK  status: ('A' for Active; 'I' for Inactive)
REMARK    1  A    between atoms: _5  and  _11
REMARK    2  A    between atoms: _19  and  _21
REMARK    3  A    between atoms: _22  and  _66
REMARK    4  A    between atoms: _27  and  _30
REMARK    5  A    between atoms: _32  and  _33
REMARK    6  A    between atoms: _38  and  _43
REMARK    7  A    between atoms: _43  and  _46
REMARK    8  A    between atoms: _53  and  _55
REMARK                            x       y       z     vdW  Elec       q    Type
REMARK                         _______ _______ _______ _____ _____    ______ ____
ROOT
ATOM     10  C   UNL     1      11.160  20.808  12.733  0.00  0.00    +0.038 A 
ATOM     11  C   UNL     1      10.121  19.843  12.762  0.00  0.00    +0.047 A 
ATOM     12  C   UNL     1      10.039  18.857  13.828  0.00  0.00    +0.035 A 
ATOM     32  C   UNL     1      11.031  18.883  14.851  0.00  0.00    +0.024 A 
ATOM     33  C   UNL     1      12.095  19.856  14.836  0.00  0.00    +0.007 A 
ATOM     34  C   UNL     1      12.183  20.830  13.786  0.00  0.00    -0.029 A 
ATOM     35  C   UNL     1      13.349  21.845  13.818  0.00  0.00    +0.045 C 
ENDROOT
BRANCH  10   9
ATOM      4  C   UNL     1       9.746  24.895  10.653  0.00  0.00    +0.077 A 
ATOM      5  C   UNL     1       8.851  25.204  11.731  0.00  0.00    +0.048 A 
ATOM      6  C   UNL     1       8.779  24.281  12.798  0.00  0.00    +0.116 A 
ATOM      7  N   UNL     1       9.549  23.138  12.779  0.00  0.00    -0.223 NA
ATOM      8  C   UNL     1      10.401  22.870  11.723  0.00  0.00    +0.220 A 
ATOM      9  N   UNL     1      11.190  21.731  11.686  0.00  0.00    -0.283 N 
ATOM     36  H   UNL     1      11.800  21.566  10.885  0.00  0.00    +0.155 HD
ATOM     37  N   UNL     1      10.487  23.735  10.691  0.00  0.00    -0.214 NA
BRANCH   4   3
ATOM      1  C   UNL     1      11.237  26.557   7.441  0.00  0.00    +0.020 A 
ATOM      2  C   UNL     1      11.102  25.686   8.585  0.00  0.00    +0.013 A 
ATOM      3  C   UNL     1       9.936  25.773   9.455  0.00  0.00    +0.019 A 
ATOM     38  C   UNL     1       8.915  26.761   9.136  0.00  0.00    +0.120 A 
ATOM     39  N   UNL     1       9.073  27.587   8.028  0.00  0.00    -0.263 NA
ATOM     40  C   UNL     1      10.192  27.513   7.185  0.00  0.00    +0.111 A 
ENDBRANCH   4   3
ENDBRANCH  10   9
BRANCH  12  13
ATOM     13  N   UNL     1       9.011  17.848  13.906  0.00  0.00    -0.281 N 
ATOM     14  C   UNL     1       9.170  16.474  13.985  0.00  0.00    +0.248 C 
ATOM     30  O   UNL     1      10.224  15.888  13.785  0.00  0.00    -0.270 OA
ATOM     31  H   UNL     1       8.049  18.188  13.901  0.00  0.00    +0.155 HD
BRANCH  14  15
ATOM     15  C   UNL     1       7.985  15.628  14.321  0.00  0.00    +0.037 A 
ATOM     16  C   UNL     1       7.601  14.490  13.481  0.00  0.00    +0.013 A 
ATOM     17  C   UNL     1       6.443  13.701  13.818  0.00  0.00    +0.005 A 
ATOM     18  C   UNL     1       5.661  14.046  15.003  0.00  0.00    -0.033 A 
ATOM     28  C   UNL     1       6.067  15.177  15.821  0.00  0.00    +0.005 A 
ATOM     29  C   UNL     1       7.201  15.954  15.493  0.00  0.00    +0.013 A 
BRANCH  18  19
ATOM     19  C   UNL     1       4.399  13.272  15.426  0.00  0.00    +0.119 C 
BRANCH  19  20
ATOM     20  N   UNL     1       3.261  14.068  15.977  0.00  0.00    -0.302 NA
ATOM     21  C   UNL     1       2.160  13.174  16.553  0.00  0.00    +0.066 C 
ATOM     22  C   UNL     1       0.989  14.023  17.145  0.00  0.00    -0.064 C 
ATOM     23  N   UNL     1       0.427  14.940  16.058  0.00  0.00    +0.379 N 
ATOM     24  C   UNL     1      -0.712  15.698  16.595  0.00  0.00    -0.096 C 
ATOM     25  H   UNL     1       0.045  14.293  15.234  0.00  0.00    -0.082 HD
ATOM     26  C   UNL     1       1.516  15.831  15.477  0.00  0.00    -0.064 C 
ATOM     27  C   UNL     1       2.689  14.978  14.918  0.00  0.00    +0.066 C 
ENDBRANCH  19  20
ENDBRANCH  18  19
ENDBRANCH  14  15
ENDBRANCH  12  13
TORSDOF 6
ENDMDL
MODEL 4
REMARK VINA RESULT:      -8.8      7.087     12.092
REMARK  Name = C:\Users\Docking\Desktop\test protocol\1iep_ligandH.pdb
REMARK  8 active torsions:
REMARK  status: ('A' for Active; 'I' for Inactive)
REMARK    1  A    between atoms: _5  and  _11
REMARK    2  A    between atoms: _19  and  _21
REMARK    3  A    between atoms: _22  and  _66
REMARK    4  A    between atoms: _27  and  _30
REMARK    5  A    between atoms: _32  and  _33
REMARK    6  A    between atoms: _38  and  _43
REMARK    7  A    between atoms: _43  and  _46
REMARK    8  A    between atoms: _53  and  _55
REMARK                            x       y       z     vdW  Elec       q    Type
REMARK                         _______ _______ _______ _____ _____    ______ ____
ROOT
ATOM     10  C   UNL     1      10.433  20.490  13.675  0.00  0.00    +0.038 A 
ATOM     11  C   UNL     1      11.650  20.308  14.381  0.00  0.00    +0.047 A 
ATOM     12  C   UNL     1      12.837  21.079  14.045  0.00  0.00    +0.035 A 
ATOM     32  C   UNL     1      12.749  22.029  12.986  0.00  0.00    +0.024 A 
ATOM     33  C   UNL     1      11.520  22.226  12.258  0.00  0.00    +0.007 A 
ATOM     34  C   UNL     1      10.347  21.467  12.582  0.00  0.00    -0.029 A 
ATOM     35  C   UNL     1       9.059  21.715  11.763  0.00  0.00    +0.045 C 
ENDROOT
BRANCH  10   9
ATOM      4  C   UNL     1       8.267  16.274  14.432  0.00  0.00    +0.077 A 
ATOM      5  C   UNL     1       9.435  15.537  14.044  0.00  0.00    +0.048 A 
ATOM      6  C   UNL     1      10.570  16.281  13.650  0.00  0.00    +0.116 A 
ATOM      7  N   UNL     1      10.529  17.658  13.647  0.00  0.00    -0.223 NA
ATOM      8  C   UNL     1       9.386  18.338  14.026  0.00  0.00    +0.220 A 
ATOM      9  N   UNL     1       9.324  19.723  14.039  0.00  0.00    -0.283 N 
ATOM     36  H   UNL     1       8.460  20.187  14.317  0.00  0.00    +0.155 HD
ATOM     37  N   UNL     1       8.288  17.651  14.406  0.00  0.00    -0.214 NA
BRANCH   4   3
ATOM      1  C   UNL     1       5.427  13.661  15.069  0.00  0.00    +0.020 A 
ATOM      2  C   UNL     1       6.675  14.233  14.617  0.00  0.00    +0.013 A 
ATOM      3  C   UNL     1       6.990  15.632  14.877  0.00  0.00    +0.019 A 
ATOM     38  C   UNL     1       6.015  16.430  15.604  0.00  0.00    +0.120 A 
ATOM     39  N   UNL     1       4.821  15.853  16.026  0.00  0.00    -0.263 NA
ATOM     40  C   UNL     1       4.506  14.508  15.780  0.00  0.00    +0.111 A 
ENDBRANCH   4   3
ENDBRANCH  10   9
BRANCH  12  13
ATOM     13  N   UNL     1      14.102  20.931  14.721  0.00  0.00    -0.281 N 
ATOM     14  C   UNL     1      14.374  21.113  16.067  0.00  0.00    +0.248 C 
ATOM     30  O   UNL     1      13.610  21.640  16.862  0.00  0.00    -0.270 OA
ATOM     31  H   UNL     1      14.893  20.661  14.137  0.00  0.00    +0.155 HD
BRANCH  14  15
ATOM     15  C   UNL     1      15.692  20.656  16.606  0.00  0.00    +0.037 A 
ATOM     16  C   UNL     1      16.952  21.210  16.104  0.00  0.00    +0.013 A 
ATOM     17  C   UNL     1      18.209  20.739  16.628  0.00  0.00    +0.005 A 
ATOM     18  C   UNL     1      18.212  19.708  17.663  0.00  0.00    -0.033 A 
ATOM     28  C   UNL     1      16.947  19.179  18.146  0.00  0.00    +0.005 A 
ATOM     29  C   UNL     1      15.713  19.637  17.634  0.00  0.00    +0.013 A 
BRANCH  18  19
ATOM     19  C   UNL     1      19.507  19.131  18.265  0.00  0.00    +0.119 C 
BRANCH  19  20
ATOM     20  N   UNL     1      19.366  18.022  19.255  0.00  0.00    -0.302 NA
ATOM     21  C   UNL     1      20.180  18.279  20.526  0.00  0.00    +0.066 C 
ATOM     22  C   UNL     1      20.003  17.120  21.560  0.00  0.00    -0.064 C 
ATOM     23  N   UNL     1      20.413  15.796  20.913  0.00  0.00    +0.379 N 
ATOM     24  C   UNL     1      20.303  14.713  21.901  0.00  0.00    -0.096 C 
ATOM     25  H   UNL     1      21.486  15.880  20.621  0.00  0.00    -0.082 HD
ATOM     26  C   UNL     1      19.610  15.533  19.647  0.00  0.00    -0.064 C 
ATOM     27  C   UNL     1      19.769  16.705  18.638  0.00  0.00    +0.066 C 
ENDBRANCH  19  20
ENDBRANCH  18  19
ENDBRANCH  14  15
ENDBRANCH  12  13
TORSDOF 6
ENDMDL
MODEL 5
REMARK VINA RESULT:      -8.7      2.816     12.672
REMARK  Name = C:\Users\Docking\Desktop\test protocol\1iep_ligandH.pdb
REMARK  8 active torsions:
REMARK  status: ('A' for Active; 'I' for Inactive)
REMARK    1  A    between atoms: _5  and  _11
REMARK    2  A    between atoms: _19  and  _21
REMARK    3  A    between atoms: _22  and  _66
REMARK    4  A    between atoms: _27  and  _30
REMARK    5  A    between atoms: _32  and  _33
REMARK    6  A    between atoms: _38  and  _43
REMARK    7  A    between atoms: _43  and  _46
REMARK    8  A    between atoms: _53  and  _55
REMARK                            x       y       z     vdW  Elec       q    Type
REMARK                         _______ _______ _______ _____ _____    ______ ____
ROOT
ATOM     10  C   UNL     1       9.512  21.711  13.532  0.00  0.00    +0.038 A 
ATOM     11  C   UNL     1       9.407  22.255  12.226  0.00  0.00    +0.047 A 
ATOM     12  C   UNL     1      10.311  23.300  11.771  0.00  0.00    +0.035 A 
ATOM     32  C   UNL     1      11.313  23.766  12.671  0.00  0.00    +0.024 A 
ATOM     33  C   UNL     1      11.433  23.225  14.003  0.00  0.00    +0.007 A 
ATOM     34  C   UNL     1      10.543  22.196  14.458  0.00  0.00    -0.029 A 
ATOM     35  C   UNL     1      10.714  21.658  15.898  0.00  0.00    +0.045 C 
ENDROOT
BRANCH  10   9
ATOM      4  C   UNL     1       8.369  17.106  14.252  0.00  0.00    +0.077 A 
ATOM      5  C   UNL     1       9.653  16.655  13.798  0.00  0.00    +0.048 A 
ATOM      6  C   UNL     1      10.577  17.639  13.382  0.00  0.00    +0.116 A 
ATOM      7  N   UNL     1      10.231  18.973  13.420  0.00  0.00    -0.223 NA
ATOM      8  C   UNL     1       8.984  19.374  13.862  0.00  0.00    +0.220 A 
ATOM      9  N   UNL     1       8.618  20.710  13.916  0.00  0.00    -0.283 N 
ATOM     36  H   UNL     1       7.685  20.964  14.241  0.00  0.00    +0.155 HD
ATOM     37  N   UNL     1       8.083  18.453  14.264  0.00  0.00    -0.214 NA
BRANCH   4   3
ATOM      1  C   UNL     1       6.169  13.929  14.860  0.00  0.00    +0.020 A 
ATOM      2  C   UNL     1       7.235  14.774  14.373  0.00  0.00    +0.013 A 
ATOM      3  C   UNL     1       7.287  16.186  14.728  0.00  0.00    +0.019 A 
ATOM     38  C   UNL     1       6.237  16.717  15.583  0.00  0.00    +0.120 A 
ATOM     39  N   UNL     1       5.221  15.880  16.035  0.00  0.00    -0.263 NA
ATOM     40  C   UNL     1       5.160  14.520  15.700  0.00  0.00    +0.111 A 
ENDBRANCH   4   3
ENDBRANCH  10   9
BRANCH  12  13
ATOM     13  N   UNL     1      10.247  23.895  10.459  0.00  0.00    -0.281 N 
ATOM     14  C   UNL     1       9.886  25.192  10.129  0.00  0.00    +0.248 C 
ATOM     30  O   UNL     1       9.355  25.978  10.899  0.00  0.00    -0.270 OA
ATOM     31  H   UNL     1      10.499  23.288   9.680  0.00  0.00    +0.155 HD
BRANCH  14  15
ATOM     15  C   UNL     1      10.139  25.680   8.740  0.00  0.00    +0.037 A 
ATOM     16  C   UNL     1       9.035  25.940   7.813  0.00  0.00    +0.013 A 
ATOM     17  C   UNL     1       9.307  26.394   6.472  0.00  0.00    +0.005 A 
ATOM     18  C   UNL     1      10.692  26.592   6.051  0.00  0.00    -0.033 A 
ATOM     28  C   UNL     1      11.768  26.332   6.992  0.00  0.00    +0.005 A 
ATOM     29  C   UNL     1      11.505  25.886   8.307  0.00  0.00    +0.013 A 
BRANCH  18  19
ATOM     19  C   UNL     1      11.076  27.055   4.633  0.00  0.00    +0.119 C 
BRANCH  19  20
ATOM     20  N   UNL     1      11.093  26.019   3.557  0.00  0.00    -0.302 NA
ATOM     21  C   UNL     1      12.426  25.267   3.504  0.00  0.00    +0.066 C 
ATOM     22  C   UNL     1      12.417  24.172   2.388  0.00  0.00    -0.064 C 
ATOM     23  N   UNL     1      12.109  24.825   1.039  0.00  0.00    +0.379 N 
ATOM     24  C   UNL     1      12.158  23.807  -0.021  0.00  0.00    -0.096 C 
ATOM     25  H   UNL     1      12.914  25.568   0.832  0.00  0.00    -0.082 HD
ATOM     26  C   UNL     1      10.787  25.577   1.084  0.00  0.00    -0.064 C 
ATOM     27  C   UNL     1      10.795  26.642   2.216  0.00  0.00    +0.066 C 
ENDBRANCH  19  20
ENDBRANCH  18  19
ENDBRANCH  14  15
ENDBRANCH  12  13
TORSDOF 6
ENDMDL
