MODEL 1
REMARK VINA RESULT:      -8.7      0.000      0.000
REMARK  Name = C:\Users\Docking\Desktop\test protocol\1iep_ligandH.pdb
REMARK  8 active torsions:
REMARK  status: ('A' for Active; 'I' for Inactive)
REMARK    1  A    between atoms: _5  and  _11
REMARK    2  A    between atoms: _19  and  _21
REMARK    3  A    between atoms: _22  and  _66
REMARK    4  A    between atoms: _27  and  _30
REMARK    5  A    between atoms: _32  and  _33
REMARK    6  A    between atoms: _38  and  _43
REMARK    7  A    between atoms: _43  and  _46
REMARK    8  A    between atoms: _53  and  _55
REMARK                            x       y       z     vdW  Elec       q    Type
REMARK                         _______ _______ _______ _____ _____    ______ ____
ROOT
ATOM     10  C   UNL     1      20.013  30.092  21.929  0.00  0.00    +0.038 A 
ATOM     11  C   UNL     1      20.560  30.223  20.628  0.00  0.00    +0.047 A 
ATOM     12  C   UNL     1      19.963  31.115  19.646  0.00  0.00    +0.035 A 
ATOM     32  C   UNL     1      18.810  31.862  20.026  0.00  0.00    +0.024 A 
ATOM     33  C   UNL     1      18.240  31.741  21.344  0.00  0.00    +0.007 A 
ATOM     34  C   UNL     1      18.823  30.860  22.316  0.00  0.00    -0.029 A 
ATOM     35  C   UNL     1      18.165  30.765  23.712  0.00  0.00    +0.045 C 
ENDROOT
BRANCH  10   9
ATOM      4  C   UNL     1      20.115  26.035  24.492  0.00  0.00    +0.077 A 
ATOM      5  C   UNL     1      18.825  25.630  24.013  0.00  0.00    +0.048 A 
ATOM      6  C   UNL     1      18.165  26.498  23.114  0.00  0.00    +0.116 A 
ATOM      7  N   UNL     1      18.761  27.680  22.729  0.00  0.00    -0.223 NA
ATOM      8  C   UNL     1      20.005  28.041  23.212  0.00  0.00    +0.220 A 
ATOM      9  N   UNL     1      20.626  29.221  22.832  0.00  0.00    -0.283 N 
ATOM     36  H   UNL     1      21.542  29.455  23.216  0.00  0.00    +0.155 HD
ATOM     37  N   UNL     1      20.655  27.230  24.072  0.00  0.00    -0.214 NA
BRANCH   4   3
ATOM      1  C   UNL     1      23.138  24.325  26.292  0.00  0.00    +0.020 A 
ATOM      2  C   UNL     1      22.389  25.121  25.347  0.00  0.00    +0.013 A 
ATOM      3  C   UNL     1      20.939  25.225  25.444  0.00  0.00    +0.019 A 
ATOM     38  C   UNL     1      20.271  24.506  26.519  0.00  0.00    +0.120 A 
ATOM     39  N   UNL     1      21.017  23.746  27.413  0.00  0.00    -0.263 NA
ATOM     40  C   UNL     1      22.413  23.637  27.329  0.00  0.00    +0.111 A 
ENDBRANCH   4   3
ENDBRANCH  10   9
BRANCH  12  13
ATOM     13  N   UNL     1      20.470  31.283  18.307  0.00  0.00    -0.281 N 
ATOM     14  C   UNL     1      21.089  32.397  17.764  0.00  0.00    +0.248 C 
ATOM     30  O   UNL     1      21.109  33.501  18.288  0.00  0.00    -0.270 OA
ATOM     31  H   UNL     1      20.360  30.483  17.683  0.00  0.00    +0.155 HD
BRANCH  14  15
ATOM     15  C   UNL     1      21.772  32.271  16.440  0.00  0.00    +0.037 A 
ATOM     16  C   UNL     1      21.335  31.282  15.451  0.00  0.00    +0.013 A 
ATOM     17  C   UNL     1      22.022  31.170  14.189  0.00  0.00    +0.005 A 
ATOM     18  C   UNL     1      23.154  32.050  13.909  0.00  0.00    -0.033 A 
ATOM     28  C   UNL     1      23.563  33.025  14.906  0.00  0.00    +0.005 A 
ATOM     29  C   UNL     1      22.893  33.138  16.145  0.00  0.00    +0.013 A 
BRANCH  18  19
ATOM     19  C   UNL     1      23.959  31.985  12.598  0.00  0.00    +0.119 C 
BRANCH  19  20
ATOM     20  N   UNL     1      23.598  32.959  11.524  0.00  0.00    -0.302 NA
ATOM     21  C   UNL     1      22.211  32.678  10.937  0.00  0.00    +0.066 C 
ATOM     22  C   UNL     1      21.840  33.719   9.832  0.00  0.00    -0.064 C 
ATOM     23  N   UNL     1      22.906  33.698   8.736  0.00  0.00    +0.379 N 
ATOM     24  C   UNL     1      22.530  34.634   7.667  0.00  0.00    -0.096 C 
ATOM     25  H   UNL     1      22.921  32.672   8.298  0.00  0.00    -0.082 HD
ATOM     26  C   UNL     1      24.288  33.973   9.311  0.00  0.00    -0.064 C 
ATOM     27  C   UNL     1      24.636  32.951  10.429  0.00  0.00    +0.066 C 
ENDBRANCH  19  20
ENDBRANCH  18  19
ENDBRANCH  14  15
ENDBRANCH  12  13
TORSDOF 6
ENDMDL
MODEL 2
REMARK VINA RESULT:      -8.3      2.572      3.333
REMARK  Name = C:\Users\Docking\Desktop\test protocol\1iep_ligandH.pdb
REMARK  8 active torsions:
REMARK  status: ('A' for Active; 'I' for Inactive)
REMARK    1  A    between atoms: _5  and  _11
REMARK    2  A    between atoms: _19  and  _21
REMARK    3  A    between atoms: _22  and  _66
REMARK    4  A    between atoms: _27  and  _30
REMARK    5  A    between atoms: _32  and  _33
REMARK    6  A    between atoms: _38  and  _43
REMARK    7  A    between atoms: _43  and  _46
REMARK    8  A    between atoms: _53  and  _55
REMARK                            x       y       z     vdW  Elec       q    Type
REMARK                         _______ _______ _______ _____ _____    ______ ____
ROOT
ATOM     10  C   UNL     1      19.735  29.699  22.060  0.00  0.00    +0.038 A 
ATOM     11  C   UNL     1      20.077  29.651  20.684  0.00  0.00    +0.047 A 
ATOM     12  C   UNL     1      19.382  30.476  19.707  0.00  0.00    +0.035 A 
ATOM     32  C   UNL     1      18.346  31.339  20.167  0.00  0.00    +0.024 A 
ATOM     33  C   UNL     1      17.985  31.399  21.562  0.00  0.00    +0.007 A 
ATOM     34  C   UNL     1      18.665  30.587  22.529  0.00  0.00    -0.029 A 
ATOM     35  C   UNL     1      18.232  30.687  24.011  0.00  0.00    +0.045 C 
ENDROOT
BRANCH  10   9
ATOM      4  C   UNL     1      20.136  25.764  24.779  0.00  0.00    +0.077 A 
ATOM      5  C   UNL     1      18.830  25.302  24.407  0.00  0.00    +0.048 A 
ATOM      6  C   UNL     1      18.084  26.110  23.520  0.00  0.00    +0.116 A 
ATOM      7  N   UNL     1      18.616  27.290  23.045  0.00  0.00    -0.223 NA
ATOM      8  C   UNL     1      19.878  27.707  23.425  0.00  0.00    +0.220 A 
ATOM      9  N   UNL     1      20.435  28.886  22.954  0.00  0.00    -0.283 N 
ATOM     36  H   UNL     1      21.367  29.162  23.264  0.00  0.00    +0.155 HD
ATOM     37  N   UNL     1      20.610  26.954  24.273  0.00  0.00    -0.214 NA
BRANCH   4   3
ATOM      1  C   UNL     1      23.324  24.212  26.432  0.00  0.00    +0.020 A 
ATOM      2  C   UNL     1      22.489  24.944  25.508  0.00  0.00    +0.013 A 
ATOM      3  C   UNL     1      21.047  25.020  25.706  0.00  0.00    +0.019 A 
ATOM     38  C   UNL     1      20.477  24.340  26.859  0.00  0.00    +0.120 A 
ATOM     39  N   UNL     1      21.306  23.642  27.732  0.00  0.00    -0.263 NA
ATOM     40  C   UNL     1      22.694  23.560  27.550  0.00  0.00    +0.111 A 
ENDBRANCH   4   3
ENDBRANCH  10   9
BRANCH  12  13
ATOM     13  N   UNL     1      19.680  30.464  18.297  0.00  0.00    -0.281 N 
ATOM     14  C   UNL     1      20.329  31.438  17.555  0.00  0.00    +0.248 C 
ATOM     30  O   UNL     1      20.564  32.569  17.955  0.00  0.00    -0.270 OA
ATOM     31  H   UNL     1      19.375  29.638  17.782  0.00  0.00    +0.155 HD
BRANCH  14  15
ATOM     15  C   UNL     1      20.767  31.114  16.163  0.00  0.00    +0.037 A 
ATOM     16  C   UNL     1      21.887  31.819  15.535  0.00  0.00    +0.013 A 
ATOM     17  C   UNL     1      22.278  31.499  14.186  0.00  0.00    +0.005 A 
ATOM     18  C   UNL     1      21.549  30.465  13.455  0.00  0.00    -0.033 A 
ATOM     28  C   UNL     1      20.445  29.777  14.104  0.00  0.00    +0.005 A 
ATOM     29  C   UNL     1      20.058  30.089  15.426  0.00  0.00    +0.013 A 
BRANCH  18  19
ATOM     19  C   UNL     1      21.884  30.073  12.004  0.00  0.00    +0.119 C 
BRANCH  19  20
ATOM     20  N   UNL     1      22.362  28.678  11.765  0.00  0.00    -0.302 NA
ATOM     21  C   UNL     1      23.592  28.640  10.855  0.00  0.00    +0.066 C 
ATOM     22  C   UNL     1      24.093  27.176  10.635  0.00  0.00    -0.064 C 
ATOM     23  N   UNL     1      22.958  26.335  10.046  0.00  0.00    +0.379 N 
ATOM     24  C   UNL     1      23.443  24.972   9.784  0.00  0.00    -0.096 C 
ATOM     25  H   UNL     1      22.675  26.788   9.068  0.00  0.00    -0.082 HD
ATOM     26  C   UNL     1      21.729  26.369  10.944  0.00  0.00    -0.064 C 
ATOM     27  C   UNL     1      21.258  27.831  11.180  0.00  0.00    +0.066 C 
ENDBRANCH  19  20
ENDBRANCH  18  19
ENDBRANCH  14  15
ENDBRANCH  12  13
TORSDOF 6
ENDMDL
MODEL 3
REMARK VINA RESULT:      -8.2      4.502     12.578
REMARK  Name = C:\Users\Docking\Desktop\test protocol\1iep_ligandH.pdb
REMARK  8 active torsions:
REMARK  status: ('A' for Active; 'I' for Inactive)
REMARK    1  A    between atoms: _5  and  _11
REMARK    2  A    between atoms: _19  and  _21
REMARK    3  A    between atoms: _22  and  _66
REMARK    4  A    between atoms: _27  and  _30
REMARK    5  A    between atoms: _32  and  _33
REMARK    6  A    between atoms: _38  and  _43
REMARK    7  A    between atoms: _43  and  _46
REMARK    8  A    between atoms: _53  and  _55
REMARK                            x       y       z     vdW  Elec       q    Type
REMARK                         _______ _______ _______ _____ _____    ______ ____
ROOT
ATOM     10  C   UNL     1      22.676  30.371  12.300  0.00  0.00    +0.038 A 
ATOM     11  C   UNL     1      22.106  30.371  13.598  0.00  0.00    +0.047 A 
ATOM     12  C   UNL     1      22.442  31.401  14.569  0.00  0.00    +0.035 A 
ATOM     32  C   UNL     1      23.362  32.418  14.182  0.00  0.00    +0.024 A 
ATOM     33  C   UNL     1      23.952  32.434  12.866  0.00  0.00    +0.007 A 
ATOM     34  C   UNL     1      23.626  31.419  11.906  0.00  0.00    -0.029 A 
ATOM     35  C   UNL     1      24.294  31.481  10.513  0.00  0.00    +0.045 C 
ENDROOT
BRANCH  10   9
ATOM      4  C   UNL     1      23.355  26.066  10.290  0.00  0.00    +0.077 A 
ATOM      5  C   UNL     1      24.540  25.826  11.062  0.00  0.00    +0.048 A 
ATOM      6  C   UNL     1      24.945  26.839  11.960  0.00  0.00    +0.116 A 
ATOM      7  N   UNL     1      24.211  28.001  12.070  0.00  0.00    -0.223 NA
ATOM      8  C   UNL     1      23.074  28.201  11.309  0.00  0.00    +0.220 A 
ATOM      9  N   UNL     1      22.317  29.358  11.408  0.00  0.00    -0.283 N 
ATOM     36  H   UNL     1      21.489  29.470  10.824  0.00  0.00    +0.155 HD
ATOM     37  N   UNL     1      22.668  27.249  10.443  0.00  0.00    -0.214 NA
BRANCH   4   3
ATOM      1  C   UNL     1      23.039  23.448   7.400  0.00  0.00    +0.020 A 
ATOM      2  C   UNL     1      23.627  24.381   8.334  0.00  0.00    +0.013 A 
ATOM      3  C   UNL     1      22.798  25.089   9.301  0.00  0.00    +0.019 A 
ATOM     38  C   UNL     1      21.366  24.828   9.298  0.00  0.00    +0.120 A 
ATOM     39  N   UNL     1      20.828  23.925   8.386  0.00  0.00    -0.263 NA
ATOM     40  C   UNL     1      21.616  23.239   7.450  0.00  0.00    +0.111 A 
ENDBRANCH   4   3
ENDBRANCH  10   9
BRANCH  12  13
ATOM     13  N   UNL     1      21.901  31.447  15.904  0.00  0.00    -0.281 N 
ATOM     14  C   UNL     1      20.776  32.126  16.344  0.00  0.00    +0.248 C 
ATOM     30  O   UNL     1      20.182  32.973  15.694  0.00  0.00    -0.270 OA
ATOM     31  H   UNL     1      22.409  30.915  16.611  0.00  0.00    +0.155 HD
BRANCH  14  15
ATOM     15  C   UNL     1      20.242  31.830  17.708  0.00  0.00    +0.037 A 
ATOM     16  C   UNL     1      20.326  32.817  18.788  0.00  0.00    +0.013 A 
ATOM     17  C   UNL     1      19.819  32.500  20.099  0.00  0.00    +0.005 A 
ATOM     18  C   UNL     1      19.220  31.188  20.338  0.00  0.00    -0.033 A 
ATOM     28  C   UNL     1      19.144  30.230  19.247  0.00  0.00    +0.005 A 
ATOM     29  C   UNL     1      19.642  30.537  17.961  0.00  0.00    +0.013 A 
BRANCH  18  19
ATOM     19  C   UNL     1      18.672  30.756  21.711  0.00  0.00    +0.119 C 
BRANCH  19  20
ATOM     20  N   UNL     1      18.806  29.315  22.077  0.00  0.00    -0.302 NA
ATOM     21  C   UNL     1      17.456  28.686  22.435  0.00  0.00    +0.066 C 
ATOM     22  C   UNL     1      17.612  27.172  22.794  0.00  0.00    -0.064 C 
ATOM     23  N   UNL     1      18.601  27.024  23.951  0.00  0.00    +0.379 N 
ATOM     24  C   UNL     1      18.706  25.607  24.329  0.00  0.00    -0.096 C 
ATOM     25  H   UNL     1      18.186  27.578  24.824  0.00  0.00    -0.082 HD
ATOM     26  C   UNL     1      19.945  27.650  23.605  0.00  0.00    -0.064 C 
ATOM     27  C   UNL     1      19.776  29.146  23.221  0.00  0.00    +0.066 C 
ENDBRANCH  19  20
ENDBRANCH  18  19
ENDBRANCH  14  15
ENDBRANCH  12  13
TORSDOF 6
ENDMDL
MODEL 4
REMARK VINA RESULT:      -8.0      1.863     13.111
REMARK  Name = C:\Users\Docking\Desktop\test protocol\1iep_ligandH.pdb
REMARK  8 active torsions:
REMARK  status: ('A' for Active; 'I' for Inactive)
REMARK    1  A    between atoms: _5  and  _11
REMARK    2  A    between atoms: _19  and  _21
REMARK    3  A    between atoms: _22  and  _66
REMARK    4  A    between atoms: _27  and  _30
REMARK    5  A    between atoms: _32  and  _33
REMARK    6  A    between atoms: _38  and  _43
REMARK    7  A    between atoms: _43  and  _46
REMARK    8  A    between atoms: _53  and  _55
REMARK                            x       y       z     vdW  Elec       q    Type
REMARK                         _______ _______ _______ _____ _____    ______ ____
ROOT
ATOM     10  C   UNL     1      20.163  32.680  17.123  0.00  0.00    +0.038 A 
ATOM     11  C   UNL     1      20.405  31.634  18.050  0.00  0.00    +0.047 A 
ATOM     12  C   UNL     1      19.450  31.326  19.103  0.00  0.00    +0.035 A 
ATOM     32  C   UNL     1      18.258  32.102  19.182  0.00  0.00    +0.024 A 
ATOM     33  C   UNL     1      17.996  33.170  18.250  0.00  0.00    +0.007 A 
ATOM     34  C   UNL     1      18.935  33.480  17.210  0.00  0.00    -0.029 A 
ATOM     35  C   UNL     1      18.606  34.640  16.242  0.00  0.00    +0.045 C 
ENDROOT
BRANCH  10   9
ATOM      4  C   UNL     1      22.165  31.786  12.854  0.00  0.00    +0.077 A 
ATOM      5  C   UNL     1      21.257  30.708  12.588  0.00  0.00    +0.048 A 
ATOM      6  C   UNL     1      20.295  30.410  13.578  0.00  0.00    +0.116 A 
ATOM      7  N   UNL     1      20.252  31.144  14.744  0.00  0.00    -0.223 NA
ATOM      8  C   UNL     1      21.143  32.176  14.970  0.00  0.00    +0.220 A 
ATOM      9  N   UNL     1      21.114  32.932  16.132  0.00  0.00    -0.283 N 
ATOM     36  H   UNL     1      21.793  33.681  16.264  0.00  0.00    +0.155 HD
ATOM     37  N   UNL     1      22.073  32.479  14.040  0.00  0.00    -0.214 NA
BRANCH   4   3
ATOM      1  C   UNL     1      25.547  32.050  10.905  0.00  0.00    +0.020 A 
ATOM      2  C   UNL     1      24.548  31.590  11.842  0.00  0.00    +0.013 A 
ATOM      3  C   UNL     1      23.236  32.223  11.903  0.00  0.00    +0.019 A 
ATOM     38  C   UNL     1      22.965  33.326  10.994  0.00  0.00    +0.120 A 
ATOM     39  N   UNL     1      23.947  33.748  10.104  0.00  0.00    -0.263 NA
ATOM     40  C   UNL     1      25.213  33.148  10.037  0.00  0.00    +0.111 A 
ENDBRANCH   4   3
ENDBRANCH  10   9
BRANCH  12  13
ATOM     13  N   UNL     1      19.645  30.281  20.077  0.00  0.00    -0.281 N 
ATOM     14  C   UNL     1      19.892  30.416  21.434  0.00  0.00    +0.248 C 
ATOM     30  O   UNL     1      20.196  31.466  21.979  0.00  0.00    -0.270 OA
ATOM     31  H   UNL     1      19.596  29.325  19.724  0.00  0.00    +0.155 HD
BRANCH  14  15
ATOM     15  C   UNL     1      19.802  29.207  22.308  0.00  0.00    +0.037 A 
ATOM     16  C   UNL     1      19.329  29.303  23.691  0.00  0.00    +0.013 A 
ATOM     17  C   UNL     1      19.268  28.124  24.518  0.00  0.00    +0.005 A 
ATOM     18  C   UNL     1      19.681  26.837  23.963  0.00  0.00    -0.033 A 
ATOM     28  C   UNL     1      20.142  26.770  22.586  0.00  0.00    +0.005 A 
ATOM     29  C   UNL     1      20.204  27.924  21.773  0.00  0.00    +0.013 A 
BRANCH  18  19
ATOM     19  C   UNL     1      19.670  25.531  24.779  0.00  0.00    +0.119 C 
BRANCH  19  20
ATOM     20  N   UNL     1      20.715  25.375  25.834  0.00  0.00    -0.302 NA
ATOM     21  C   UNL     1      22.094  25.076  25.237  0.00  0.00    +0.066 C 
ATOM     22  C   UNL     1      23.179  24.938  26.353  0.00  0.00    -0.064 C 
ATOM     23  N   UNL     1      22.763  23.839  27.333  0.00  0.00    +0.379 N 
ATOM     24  C   UNL     1      23.810  23.667  28.350  0.00  0.00    -0.096 C 
ATOM     25  H   UNL     1      22.689  22.886  26.759  0.00  0.00    -0.082 HD
ATOM     26  C   UNL     1      21.393  24.127  27.929  0.00  0.00    -0.064 C 
ATOM     27  C   UNL     1      20.327  24.292  26.810  0.00  0.00    +0.066 C 
ENDBRANCH  19  20
ENDBRANCH  18  19
ENDBRANCH  14  15
ENDBRANCH  12  13
TORSDOF 6
ENDMDL
MODEL 5
REMARK VINA RESULT:      -7.9      9.624     12.551
REMARK  Name = C:\Users\Docking\Desktop\test protocol\1iep_ligandH.pdb
REMARK  8 active torsions:
REMARK  status: ('A' for Active; 'I' for Inactive)
REMARK    1  A    between atoms: _5  and  _11
REMARK    2  A    between atoms: _19  and  _21
REMARK    3  A    between atoms: _22  and  _66
REMARK    4  A    between atoms: _27  and  _30
REMARK    5  A    between atoms: _32  and  _33
REMARK    6  A    between atoms: _38  and  _43
REMARK    7  A    between atoms: _43  and  _46
REMARK    8  A    between atoms: _53  and  _55
REMARK                            x       y       z     vdW  Elec       q    Type
REMARK                         _______ _______ _______ _____ _____    ______ ____
ROOT
ATOM     10  C   UNL     1      21.547  34.346  10.708  0.00  0.00    +0.038 A 
ATOM     11  C   UNL     1      22.151  34.970   9.586  0.00  0.00    +0.047 A 
ATOM     12  C   UNL     1      22.136  36.416   9.431  0.00  0.00    +0.035 A 
ATOM     32  C   UNL     1      21.500  37.197  10.439  0.00  0.00    +0.024 A 
ATOM     33  C   UNL     1      20.880  36.580  11.585  0.00  0.00    +0.007 A 
ATOM     34  C   UNL     1      20.890  35.153  11.742  0.00  0.00    -0.029 A 
ATOM     35  C   UNL     1      20.204  34.545  12.988  0.00  0.00    +0.045 C 
ENDROOT
BRANCH  10   9
ATOM      4  C   UNL     1      23.933  30.211  11.207  0.00  0.00    +0.077 A 
ATOM      5  C   UNL     1      25.201  30.880  11.249  0.00  0.00    +0.048 A 
ATOM      6  C   UNL     1      25.197  32.288  11.131  0.00  0.00    +0.116 A 
ATOM      7  N   UNL     1      24.007  32.966  10.984  0.00  0.00    -0.223 NA
ATOM      8  C   UNL     1      22.801  32.291  10.946  0.00  0.00    +0.220 A 
ATOM      9  N   UNL     1      21.591  32.954  10.806  0.00  0.00    -0.283 N 
ATOM     36  H   UNL     1      20.724  32.419  10.776  0.00  0.00    +0.155 HD
ATOM     37  N   UNL     1      22.778  30.946  11.055  0.00  0.00    -0.214 NA
BRANCH   4   3
ATOM      1  C   UNL     1      24.672  26.407  11.738  0.00  0.00    +0.020 A 
ATOM      2  C   UNL     1      24.880  27.833  11.638  0.00  0.00    +0.013 A 
ATOM      3  C   UNL     1      23.773  28.727  11.322  0.00  0.00    +0.019 A 
ATOM     38  C   UNL     1      22.457  28.141  11.112  0.00  0.00    +0.120 A 
ATOM     39  N   UNL     1      22.287  26.764  11.213  0.00  0.00    -0.263 NA
ATOM     40  C   UNL     1      23.345  25.894  11.515  0.00  0.00    +0.111 A 
ENDBRANCH   4   3
ENDBRANCH  10   9
BRANCH  12  13
ATOM     13  N   UNL     1      22.726  37.105   8.310  0.00  0.00    -0.281 N 
ATOM     14  C   UNL     1      23.927  37.794   8.270  0.00  0.00    +0.248 C 
ATOM     30  O   UNL     1      24.578  38.106   9.255  0.00  0.00    -0.270 OA
ATOM     31  H   UNL     1      22.193  37.082   7.440  0.00  0.00    +0.155 HD
BRANCH  14  15
ATOM     15  C   UNL     1      24.476  38.211   6.943  0.00  0.00    +0.037 A 
ATOM     16  C   UNL     1      25.840  38.732   6.815  0.00  0.00    +0.013 A 
ATOM     17  C   UNL     1      26.339  39.142   5.527  0.00  0.00    +0.005 A 
ATOM     18  C   UNL     1      25.474  39.031   4.355  0.00  0.00    -0.033 A 
ATOM     28  C   UNL     1      24.127  38.506   4.510  0.00  0.00    +0.005 A 
ATOM     29  C   UNL     1      23.634  38.104   5.771  0.00  0.00    +0.013 A 
BRANCH  18  19
ATOM     19  C   UNL     1      25.916  39.465   2.945  0.00  0.00    +0.119 C 
BRANCH  19  20
ATOM     20  N   UNL     1      26.326  38.388   1.995  0.00  0.00    -0.302 NA
ATOM     21  C   UNL     1      25.128  37.789   1.253  0.00  0.00    +0.066 C 
ATOM     22  C   UNL     1      25.577  36.680   0.248  0.00  0.00    -0.064 C 
ATOM     23  N   UNL     1      26.345  35.593   1.002  0.00  0.00    +0.379 N 
ATOM     24  C   UNL     1      26.719  34.520   0.069  0.00  0.00    -0.096 C 
ATOM     25  H   UNL     1      25.655  35.156   1.761  0.00  0.00    -0.082 HD
ATOM     26  C   UNL     1      27.537  36.180   1.745  0.00  0.00    -0.064 C 
ATOM     27  C   UNL     1      27.083  37.302   2.720  0.00  0.00    +0.066 C 
ENDBRANCH  19  20
ENDBRANCH  18  19
ENDBRANCH  14  15
ENDBRANCH  12  13
TORSDOF 6
ENDMDL
