MODEL 1
REMARK VINA RESULT:      -8.8      0.000      0.000
REMARK  Name = C:\Users\Docking\Desktop\test protocol\1iep_ligandH.pdb
REMARK  8 active torsions:
REMARK  status: ('A' for Active; 'I' for Inactive)
REMARK    1  A    between atoms: _5  and  _11
REMARK    2  A    between atoms: _19  and  _21
REMARK    3  A    between atoms: _22  and  _66
REMARK    4  A    between atoms: _27  and  _30
REMARK    5  A    between atoms: _32  and  _33
REMARK    6  A    between atoms: _38  and  _43
REMARK    7  A    between atoms: _43  and  _46
REMARK    8  A    between atoms: _53  and  _55
REMARK                            x       y       z     vdW  Elec       q    Type
REMARK                         _______ _______ _______ _____ _____    ______ ____
ROOT
ATOM     10  C   UNL     1      20.148  30.007  22.203  0.00  0.00    +0.038 A 
ATOM     11  C   UNL     1      20.660  30.112  20.885  0.00  0.00    +0.047 A 
ATOM     12  C   UNL     1      20.065  31.021  19.917  0.00  0.00    +0.035 A 
ATOM     32  C   UNL     1      18.951  31.809  20.327  0.00  0.00    +0.024 A 
ATOM     33  C   UNL     1      18.417  31.714  21.663  0.00  0.00    +0.007 A 
ATOM     34  C   UNL     1      18.998  30.817  22.621  0.00  0.00    -0.029 A 
ATOM     35  C   UNL     1      18.381  30.752  24.037  0.00  0.00    +0.045 C 
ENDROOT
BRANCH  10   9
ATOM      4  C   UNL     1      20.220  25.922  24.723  0.00  0.00    +0.077 A 
ATOM      5  C   UNL     1      18.921  25.539  24.251  0.00  0.00    +0.048 A 
ATOM      6  C   UNL     1      18.264  26.424  23.367  0.00  0.00    +0.116 A 
ATOM      7  N   UNL     1      18.872  27.602  22.989  0.00  0.00    -0.223 NA
ATOM      8  C   UNL     1      20.125  27.942  23.464  0.00  0.00    +0.220 A 
ATOM      9  N   UNL     1      20.758  29.118  23.091  0.00  0.00    -0.283 N 
ATOM     36  H   UNL     1      21.680  29.336  23.469  0.00  0.00    +0.155 HD
ATOM     37  N   UNL     1      20.772  27.114  24.311  0.00  0.00    -0.214 NA
BRANCH   4   3
ATOM      1  C   UNL     1      21.320  23.651  27.712  0.00  0.00    +0.020 A 
ATOM      2  C   UNL     1      20.483  24.443  26.840  0.00  0.00    +0.013 A 
ATOM      3  C   UNL     1      21.041  25.091  25.659  0.00  0.00    +0.019 A 
ATOM     38  C   UNL     1      22.460  24.916  25.387  0.00  0.00    +0.120 A 
ATOM     39  N   UNL     1      23.241  24.148  26.245  0.00  0.00    -0.263 NA
ATOM     40  C   UNL     1      22.716  23.521  27.385  0.00  0.00    +0.111 A 
ENDBRANCH   4   3
ENDBRANCH  10   9
BRANCH  12  13
ATOM     13  N   UNL     1      20.537  31.165  18.562  0.00  0.00    -0.281 N 
ATOM     14  C   UNL     1      21.077  32.291  17.963  0.00  0.00    +0.248 C 
ATOM     30  O   UNL     1      21.040  33.414  18.444  0.00  0.00    -0.270 OA
ATOM     31  H   UNL     1      20.463  30.336  17.972  0.00  0.00    +0.155 HD
BRANCH  14  15
ATOM     15  C   UNL     1      21.742  32.153  16.632  0.00  0.00    +0.037 A 
ATOM     16  C   UNL     1      22.915  32.958  16.282  0.00  0.00    +0.013 A 
ATOM     17  C   UNL     1      23.528  32.817  14.984  0.00  0.00    +0.005 A 
ATOM     18  C   UNL     1      22.968  31.865  14.028  0.00  0.00    -0.033 A 
ATOM     28  C   UNL     1      21.807  31.075  14.404  0.00  0.00    +0.005 A 
ATOM     29  C   UNL     1      21.204  31.211  15.674  0.00  0.00    +0.013 A 
BRANCH  18  19
ATOM     19  C   UNL     1      23.544  31.664  12.614  0.00  0.00    +0.119 C 
BRANCH  19  20
ATOM     20  N   UNL     1      23.211  32.696  11.587  0.00  0.00    -0.302 NA
ATOM     21  C   UNL     1      21.739  32.640  11.172  0.00  0.00    +0.066 C 
ATOM     22  C   UNL     1      21.403  33.741  10.114  0.00  0.00    -0.064 C 
ATOM     23  N   UNL     1      22.315  33.571   8.898  0.00  0.00    +0.379 N 
ATOM     24  C   UNL     1      21.963  34.569   7.877  0.00  0.00    -0.096 C 
ATOM     25  H   UNL     1      22.120  32.562   8.467  0.00  0.00    -0.082 HD
ATOM     26  C   UNL     1      23.782  33.624   9.302  0.00  0.00    -0.064 C 
ATOM     27  C   UNL     1      24.098  32.544  10.376  0.00  0.00    +0.066 C 
ENDBRANCH  19  20
ENDBRANCH  18  19
ENDBRANCH  14  15
ENDBRANCH  12  13
TORSDOF 6
ENDMDL
MODEL 2
REMARK VINA RESULT:      -8.5      2.202      3.079
REMARK  Name = C:\Users\Docking\Desktop\test protocol\1iep_ligandH.pdb
REMARK  8 active torsions:
REMARK  status: ('A' for Active; 'I' for Inactive)
REMARK    1  A    between atoms: _5  and  _11
REMARK    2  A    between atoms: _19  and  _21
REMARK    3  A    between atoms: _22  and  _66
REMARK    4  A    between atoms: _27  and  _30
REMARK    5  A    between atoms: _32  and  _33
REMARK    6  A    between atoms: _38  and  _43
REMARK    7  A    between atoms: _43  and  _46
REMARK    8  A    between atoms: _53  and  _55
REMARK                            x       y       z     vdW  Elec       q    Type
REMARK                         _______ _______ _______ _____ _____    ______ ____
ROOT
ATOM     10  C   UNL     1      20.028  29.906  22.424  0.00  0.00    +0.038 A 
ATOM     11  C   UNL     1      20.358  29.872  21.045  0.00  0.00    +0.047 A 
ATOM     12  C   UNL     1      19.694  30.746  20.090  0.00  0.00    +0.035 A 
ATOM     32  C   UNL     1      18.700  31.645  20.575  0.00  0.00    +0.024 A 
ATOM     33  C   UNL     1      18.351  31.692  21.973  0.00  0.00    +0.007 A 
ATOM     34  C   UNL     1      19.000  30.831  22.919  0.00  0.00    -0.029 A 
ATOM     35  C   UNL     1      18.581  30.920  24.405  0.00  0.00    +0.045 C 
ENDROOT
BRANCH  10   9
ATOM      4  C   UNL     1      20.300  25.869  25.006  0.00  0.00    +0.077 A 
ATOM      5  C   UNL     1      18.988  25.453  24.603  0.00  0.00    +0.048 A 
ATOM      6  C   UNL     1      18.273  26.310  23.736  0.00  0.00    +0.116 A 
ATOM      7  N   UNL     1      18.838  27.492  23.310  0.00  0.00    -0.223 NA
ATOM      8  C   UNL     1      20.106  27.865  23.719  0.00  0.00    +0.220 A 
ATOM      9  N   UNL     1      20.697  29.045  23.297  0.00  0.00    -0.283 N 
ATOM     36  H   UNL     1      21.631  29.288  23.627  0.00  0.00    +0.155 HD
ATOM     37  N   UNL     1      20.808  27.064  24.547  0.00  0.00    -0.214 NA
BRANCH   4   3
ATOM      1  C   UNL     1      23.436  24.232  26.676  0.00  0.00    +0.020 A 
ATOM      2  C   UNL     1      22.631  25.019  25.770  0.00  0.00    +0.013 A 
ATOM      3  C   UNL     1      21.181  25.071  25.915  0.00  0.00    +0.019 A 
ATOM     38  C   UNL     1      20.573  24.310  26.997  0.00  0.00    +0.120 A 
ATOM     39  N   UNL     1      21.374  23.560  27.853  0.00  0.00    -0.263 NA
ATOM     40  C   UNL     1      22.770  23.501  27.722  0.00  0.00    +0.111 A 
ENDBRANCH   4   3
ENDBRANCH  10   9
BRANCH  12  13
ATOM     13  N   UNL     1      19.982  30.750  18.678  0.00  0.00    -0.281 N 
ATOM     14  C   UNL     1      20.595  31.747  17.936  0.00  0.00    +0.248 C 
ATOM     30  O   UNL     1      20.798  32.883  18.340  0.00  0.00    -0.270 OA
ATOM     31  H   UNL     1      19.700  29.917  18.161  0.00  0.00    +0.155 HD
BRANCH  14  15
ATOM     15  C   UNL     1      21.033  31.443  16.540  0.00  0.00    +0.037 A 
ATOM     16  C   UNL     1      20.270  30.529  15.686  0.00  0.00    +0.013 A 
ATOM     17  C   UNL     1      20.724  30.240  14.349  0.00  0.00    +0.005 A 
ATOM     18  C   UNL     1      21.949  30.867  13.857  0.00  0.00    -0.033 A 
ATOM     28  C   UNL     1      22.683  31.774  14.724  0.00  0.00    +0.005 A 
ATOM     29  C   UNL     1      22.242  32.059  16.035  0.00  0.00    +0.013 A 
BRANCH  18  19
ATOM     19  C   UNL     1      22.519  30.600  12.452  0.00  0.00    +0.119 C 
BRANCH  19  20
ATOM     20  N   UNL     1      22.900  29.193  12.124  0.00  0.00    -0.302 NA
ATOM     21  C   UNL     1      24.227  29.120  11.364  0.00  0.00    +0.066 C 
ATOM     22  C   UNL     1      24.621  27.640  11.049  0.00  0.00    -0.064 C 
ATOM     23  N   UNL     1      23.500  26.975  10.249  0.00  0.00    +0.379 N 
ATOM     24  C   UNL     1      23.893  25.601   9.902  0.00  0.00    -0.096 C 
ATOM     25  H   UNL     1      23.381  27.544   9.297  0.00  0.00    -0.082 HD
ATOM     26  C   UNL     1      22.176  27.046  10.997  0.00  0.00    -0.064 C 
ATOM     27  C   UNL     1      21.808  28.519  11.330  0.00  0.00    +0.066 C 
ENDBRANCH  19  20
ENDBRANCH  18  19
ENDBRANCH  14  15
ENDBRANCH  12  13
TORSDOF 6
ENDMDL
MODEL 3
REMARK VINA RESULT:      -8.2      4.366     12.458
REMARK  Name = C:\Users\Docking\Desktop\test protocol\1iep_ligandH.pdb
REMARK  8 active torsions:
REMARK  status: ('A' for Active; 'I' for Inactive)
REMARK    1  A    between atoms: _5  and  _11
REMARK    2  A    between atoms: _19  and  _21
REMARK    3  A    between atoms: _22  and  _66
REMARK    4  A    between atoms: _27  and  _30
REMARK    5  A    between atoms: _32  and  _33
REMARK    6  A    between atoms: _38  and  _43
REMARK    7  A    between atoms: _43  and  _46
REMARK    8  A    between atoms: _53  and  _55
REMARK                            x       y       z     vdW  Elec       q    Type
REMARK                         _______ _______ _______ _____ _____    ______ ____
ROOT
ATOM     10  C   UNL     1      22.656  30.355  12.456  0.00  0.00    +0.038 A 
ATOM     11  C   UNL     1      22.163  30.397  13.785  0.00  0.00    +0.047 A 
ATOM     12  C   UNL     1      22.581  31.439  14.710  0.00  0.00    +0.035 A 
ATOM     32  C   UNL     1      23.501  32.424  14.246  0.00  0.00    +0.024 A 
ATOM     33  C   UNL     1      24.013  32.396  12.899  0.00  0.00    +0.007 A 
ATOM     34  C   UNL     1      23.606  31.369  11.983  0.00  0.00    -0.029 A 
ATOM     35  C   UNL     1      24.192  31.384  10.552  0.00  0.00    +0.045 C 
ENDROOT
BRANCH  10   9
ATOM      4  C   UNL     1      23.104  25.986  10.518  0.00  0.00    +0.077 A 
ATOM      5  C   UNL     1      24.323  25.731  11.230  0.00  0.00    +0.048 A 
ATOM      6  C   UNL     1      24.805  26.752  12.079  0.00  0.00    +0.116 A 
ATOM      7  N   UNL     1      24.111  27.937  12.200  0.00  0.00    -0.223 NA
ATOM      8  C   UNL     1      22.939  28.152  11.498  0.00  0.00    +0.220 A 
ATOM      9  N   UNL     1      22.220  29.332  11.610  0.00  0.00    -0.283 N 
ATOM     36  H   UNL     1      21.364  29.455  11.070  0.00  0.00    +0.155 HD
ATOM     37  N   UNL     1      22.459  27.192  10.679  0.00  0.00    -0.214 NA
BRANCH   4   3
ATOM      1  C   UNL     1      22.544  23.365   7.669  0.00  0.00    +0.020 A 
ATOM      2  C   UNL     1      23.208  24.305   8.544  0.00  0.00    +0.013 A 
ATOM      3  C   UNL     1      22.466  25.004   9.586  0.00  0.00    +0.019 A 
ATOM     38  C   UNL     1      21.044  24.727   9.718  0.00  0.00    +0.120 A 
ATOM     39  N   UNL     1      20.431  23.818   8.861  0.00  0.00    -0.263 NA
ATOM     40  C   UNL     1      21.134  23.141   7.853  0.00  0.00    +0.111 A 
ENDBRANCH   4   3
ENDBRANCH  10   9
BRANCH  12  13
ATOM     13  N   UNL     1      22.121  31.529  16.073  0.00  0.00    -0.281 N 
ATOM     14  C   UNL     1      21.186  32.404  16.601  0.00  0.00    +0.248 C 
ATOM     30  O   UNL     1      20.757  33.390  16.020  0.00  0.00    -0.270 OA
ATOM     31  H   UNL     1      22.535  30.866  16.729  0.00  0.00    +0.155 HD
BRANCH  14  15
ATOM     15  C   UNL     1      20.662  32.156  17.978  0.00  0.00    +0.037 A 
ATOM     16  C   UNL     1      20.517  33.248  18.944  0.00  0.00    +0.013 A 
ATOM     17  C   UNL     1      20.025  32.979  20.272  0.00  0.00    +0.005 A 
ATOM     18  C   UNL     1      19.672  31.610  20.641  0.00  0.00    -0.033 A 
ATOM     28  C   UNL     1      19.820  30.547  19.661  0.00  0.00    +0.005 A 
ATOM     29  C   UNL     1      20.303  30.807  18.359  0.00  0.00    +0.013 A 
BRANCH  18  19
ATOM     19  C   UNL     1      19.159  31.228  22.042  0.00  0.00    +0.119 C 
BRANCH  19  20
ATOM     20  N   UNL     1      18.996  29.773  22.337  0.00  0.00    -0.302 NA
ATOM     21  C   UNL     1      17.650  29.468  23.000  0.00  0.00    +0.066 C 
ATOM     22  C   UNL     1      17.487  27.938  23.280  0.00  0.00    -0.064 C 
ATOM     23  N   UNL     1      18.644  27.458  24.158  0.00  0.00    +0.379 N 
ATOM     24  C   UNL     1      18.462  26.033  24.472  0.00  0.00    -0.096 C 
ATOM     25  H   UNL     1      18.598  28.024  25.117  0.00  0.00    -0.082 HD
ATOM     26  C   UNL     1      19.986  27.760  23.508  0.00  0.00    -0.064 C 
ATOM     27  C   UNL     1      20.126  29.278  23.206  0.00  0.00    +0.066 C 
ENDBRANCH  19  20
ENDBRANCH  18  19
ENDBRANCH  14  15
ENDBRANCH  12  13
TORSDOF 6
ENDMDL
MODEL 4
REMARK VINA RESULT:      -7.9      4.523     12.571
REMARK  Name = C:\Users\Docking\Desktop\test protocol\1iep_ligandH.pdb
REMARK  8 active torsions:
REMARK  status: ('A' for Active; 'I' for Inactive)
REMARK    1  A    between atoms: _5  and  _11
REMARK    2  A    between atoms: _19  and  _21
REMARK    3  A    between atoms: _22  and  _66
REMARK    4  A    between atoms: _27  and  _30
REMARK    5  A    between atoms: _32  and  _33
REMARK    6  A    between atoms: _38  and  _43
REMARK    7  A    between atoms: _43  and  _46
REMARK    8  A    between atoms: _53  and  _55
REMARK                            x       y       z     vdW  Elec       q    Type
REMARK                         _______ _______ _______ _____ _____    ______ ____
ROOT
ATOM     10  C   UNL     1      22.480  30.350  12.713  0.00  0.00    +0.038 A 
ATOM     11  C   UNL     1      21.985  30.343  14.042  0.00  0.00    +0.047 A 
ATOM     12  C   UNL     1      22.357  31.382  14.989  0.00  0.00    +0.035 A 
ATOM     32  C   UNL     1      23.235  32.415  14.549  0.00  0.00    +0.024 A 
ATOM     33  C   UNL     1      23.748  32.437  13.202  0.00  0.00    +0.007 A 
ATOM     34  C   UNL     1      23.387  31.414  12.263  0.00  0.00    -0.029 A 
ATOM     35  C   UNL     1      23.973  31.484  10.834  0.00  0.00    +0.045 C 
ENDROOT
BRANCH  10   9
ATOM      4  C   UNL     1      23.174  26.098  10.598  0.00  0.00    +0.077 A 
ATOM      5  C   UNL     1      24.434  25.908  11.258  0.00  0.00    +0.048 A 
ATOM      6  C   UNL     1      24.871  26.932  12.128  0.00  0.00    +0.116 A 
ATOM      7  N   UNL     1      24.097  28.057  12.317  0.00  0.00    -0.223 NA
ATOM      8  C   UNL     1      22.888  28.209  11.664  0.00  0.00    +0.220 A 
ATOM      9  N   UNL     1      22.090  29.328  11.845  0.00  0.00    -0.283 N 
ATOM     36  H   UNL     1      21.208  29.406  11.339  0.00  0.00    +0.155 HD
ATOM     37  N   UNL     1      22.449  27.246  10.827  0.00  0.00    -0.214 NA
BRANCH   4   3
ATOM      1  C   UNL     1      22.735  23.437   7.765  0.00  0.00    +0.020 A 
ATOM      2  C   UNL     1      23.361  24.387   8.655  0.00  0.00    +0.013 A 
ATOM      3  C   UNL     1      22.576  25.104   9.652  0.00  0.00    +0.019 A 
ATOM     38  C   UNL     1      21.148  24.834   9.723  0.00  0.00    +0.120 A 
ATOM     39  N   UNL     1      20.572  23.914   8.851  0.00  0.00    -0.263 NA
ATOM     40  C   UNL     1      21.317  23.220   7.887  0.00  0.00    +0.111 A 
ENDBRANCH   4   3
ENDBRANCH  10   9
BRANCH  12  13
ATOM     13  N   UNL     1      21.892  31.422  16.354  0.00  0.00    -0.281 N 
ATOM     14  C   UNL     1      20.878  32.202  16.885  0.00  0.00    +0.248 C 
ATOM     30  O   UNL     1      20.356  33.145  16.308  0.00  0.00    -0.270 OA
ATOM     31  H   UNL     1      22.368  30.800  17.007  0.00  0.00    +0.155 HD
BRANCH  14  15
ATOM     15  C   UNL     1      20.381  31.901  18.262  0.00  0.00    +0.037 A 
ATOM     16  C   UNL     1      20.291  32.948  19.283  0.00  0.00    +0.013 A 
ATOM     17  C   UNL     1      19.824  32.627  20.609  0.00  0.00    +0.005 A 
ATOM     18  C   UNL     1      19.443  31.251  20.920  0.00  0.00    -0.033 A 
ATOM     28  C   UNL     1      19.538  30.233  19.887  0.00  0.00    +0.005 A 
ATOM     29  C   UNL     1      19.996  30.544  18.587  0.00  0.00    +0.013 A 
BRANCH  18  19
ATOM     19  C   UNL     1      18.955  30.813  22.314  0.00  0.00    +0.119 C 
BRANCH  19  20
ATOM     20  N   UNL     1      18.537  31.890  23.261  0.00  0.00    -0.302 NA
ATOM     21  C   UNL     1      18.914  31.560  24.708  0.00  0.00    +0.066 C 
ATOM     22  C   UNL     1      18.489  32.707  25.682  0.00  0.00    -0.064 C 
ATOM     23  N   UNL     1      16.984  32.948  25.556  0.00  0.00    +0.379 N 
ATOM     24  C   UNL     1      16.572  33.986  26.513  0.00  0.00    -0.096 C 
ATOM     25  H   UNL     1      16.466  32.002  25.839  0.00  0.00    -0.082 HD
ATOM     26  C   UNL     1      16.600  33.274  24.120  0.00  0.00    -0.064 C 
ATOM     27  C   UNL     1      17.053  32.141  23.156  0.00  0.00    +0.066 C 
ENDBRANCH  19  20
ENDBRANCH  18  19
ENDBRANCH  14  15
ENDBRANCH  12  13
TORSDOF 6
ENDMDL
MODEL 5
REMARK VINA RESULT:      -7.9      1.892     13.045
REMARK  Name = C:\Users\Docking\Desktop\test protocol\1iep_ligandH.pdb
REMARK  8 active torsions:
REMARK  status: ('A' for Active; 'I' for Inactive)
REMARK    1  A    between atoms: _5  and  _11
REMARK    2  A    between atoms: _19  and  _21
REMARK    3  A    between atoms: _22  and  _66
REMARK    4  A    between atoms: _27  and  _30
REMARK    5  A    between atoms: _32  and  _33
REMARK    6  A    between atoms: _38  and  _43
REMARK    7  A    between atoms: _43  and  _46
REMARK    8  A    between atoms: _53  and  _55
REMARK                            x       y       z     vdW  Elec       q    Type
REMARK                         _______ _______ _______ _____ _____    ______ ____
ROOT
ATOM     10  C   UNL     1      20.675  32.548  17.329  0.00  0.00    +0.038 A 
ATOM     11  C   UNL     1      20.862  31.522  18.290  0.00  0.00    +0.047 A 
ATOM     12  C   UNL     1      19.973  31.392  19.435  0.00  0.00    +0.035 A 
ATOM     32  C   UNL     1      18.902  32.323  19.567  0.00  0.00    +0.024 A 
ATOM     33  C   UNL     1      18.698  33.372  18.600  0.00  0.00    +0.007 A 
ATOM     34  C   UNL     1      19.573  33.507  17.470  0.00  0.00    -0.029 A 
ATOM     35  C   UNL     1      19.311  34.655  16.468  0.00  0.00    +0.045 C 
ENDROOT
BRANCH  10   9
ATOM      4  C   UNL     1      22.160  31.198  12.969  0.00  0.00    +0.077 A 
ATOM      5  C   UNL     1      21.103  30.237  12.841  0.00  0.00    +0.048 A 
ATOM      6  C   UNL     1      20.202  30.116  13.923  0.00  0.00    +0.116 A 
ATOM      7  N   UNL     1      20.356  30.903  15.044  0.00  0.00    -0.223 NA
ATOM      8  C   UNL     1      21.388  31.819  15.135  0.00  0.00    +0.220 A 
ATOM      9  N   UNL     1      21.558  32.626  16.250  0.00  0.00    -0.283 N 
ATOM     36  H   UNL     1      22.336  33.284  16.282  0.00  0.00    +0.155 HD
ATOM     37  N   UNL     1      22.263  31.952  14.116  0.00  0.00    -0.214 NA
BRANCH   4   3
ATOM      1  C   UNL     1      25.462  31.090  10.874  0.00  0.00    +0.020 A 
ATOM      2  C   UNL     1      24.505  30.818  11.922  0.00  0.00    +0.013 A 
ATOM      3  C   UNL     1      23.189  31.445  11.910  0.00  0.00    +0.019 A 
ATOM     38  C   UNL     1      22.871  32.349  10.815  0.00  0.00    +0.120 A 
ATOM     39  N   UNL     1      23.814  32.593   9.821  0.00  0.00    -0.263 NA
ATOM     40  C   UNL     1      25.084  31.996   9.823  0.00  0.00    +0.111 A 
ENDBRANCH   4   3
ENDBRANCH  10   9
BRANCH  12  13
ATOM     13  N   UNL     1      20.118  30.376  20.447  0.00  0.00    -0.281 N 
ATOM     14  C   UNL     1      19.959  30.509  21.817  0.00  0.00    +0.248 C 
ATOM     30  O   UNL     1      19.876  31.579  22.402  0.00  0.00    -0.270 OA
ATOM     31  H   UNL     1      20.369  29.445  20.114  0.00  0.00    +0.155 HD
BRANCH  14  15
ATOM     15  C   UNL     1      19.898  29.277  22.660  0.00  0.00    +0.037 A 
ATOM     16  C   UNL     1      19.413  29.325  24.042  0.00  0.00    +0.013 A 
ATOM     17  C   UNL     1      19.380  28.125  24.839  0.00  0.00    +0.005 A 
ATOM     18  C   UNL     1      19.834  26.865  24.255  0.00  0.00    -0.033 A 
ATOM     28  C   UNL     1      20.306  26.845  22.881  0.00  0.00    +0.005 A 
ATOM     29  C   UNL     1      20.340  28.019  22.096  0.00  0.00    +0.013 A 
BRANCH  18  19
ATOM     19  C   UNL     1      19.854  25.539  25.039  0.00  0.00    +0.119 C 
BRANCH  19  20
ATOM     20  N   UNL     1      20.920  25.371  26.071  0.00  0.00    -0.302 NA
ATOM     21  C   UNL     1      22.282  25.060  25.444  0.00  0.00    +0.066 C 
ATOM     22  C   UNL     1      23.391  24.910  26.536  0.00  0.00    -0.064 C 
ATOM     23  N   UNL     1      22.986  23.813  27.522  0.00  0.00    +0.379 N 
ATOM     24  C   UNL     1      24.052  23.629  28.517  0.00  0.00    -0.096 C 
ATOM     25  H   UNL     1      22.890  22.861  26.949  0.00  0.00    -0.082 HD
ATOM     26  C   UNL     1      21.631  24.112  28.148  0.00  0.00    -0.064 C 
ATOM     27  C   UNL     1      20.543  24.289  27.053  0.00  0.00    +0.066 C 
ENDBRANCH  19  20
ENDBRANCH  18  19
ENDBRANCH  14  15
ENDBRANCH  12  13
TORSDOF 6
ENDMDL
