MODEL 1
REMARK VINA RESULT:      -8.9      0.000      0.000
REMARK  Name = C:\Users\Docking\Desktop\test protocol\1iep_ligandH.pdb
REMARK  8 active torsions:
REMARK  status: ('A' for Active; 'I' for Inactive)
REMARK    1  A    between atoms: _5  and  _11
REMARK    2  A    between atoms: _19  and  _21
REMARK    3  A    between atoms: _22  and  _66
REMARK    4  A    between atoms: _27  and  _30
REMARK    5  A    between atoms: _32  and  _33
REMARK    6  A    between atoms: _38  and  _43
REMARK    7  A    between atoms: _43  and  _46
REMARK    8  A    between atoms: _53  and  _55
REMARK                            x       y       z     vdW  Elec       q    Type
REMARK                         _______ _______ _______ _____ _____    ______ ____
ROOT
ATOM     10  C   UNL     1      20.109  30.061  22.226  0.00  0.00    +0.038 A 
ATOM     11  C   UNL     1      20.635  30.185  20.915  0.00  0.00    +0.047 A 
ATOM     12  C   UNL     1      20.031  31.083  19.943  0.00  0.00    +0.035 A 
ATOM     32  C   UNL     1      18.893  31.843  20.342  0.00  0.00    +0.024 A 
ATOM     33  C   UNL     1      18.344  31.728  21.671  0.00  0.00    +0.007 A 
ATOM     34  C   UNL     1      18.935  30.842  22.632  0.00  0.00    -0.029 A 
ATOM     35  C   UNL     1      18.301  30.755  24.040  0.00  0.00    +0.045 C 
ENDROOT
BRANCH  10   9
ATOM      4  C   UNL     1      20.248  25.968  24.729  0.00  0.00    +0.077 A 
ATOM      5  C   UNL     1      18.965  25.556  24.239  0.00  0.00    +0.048 A 
ATOM      6  C   UNL     1      18.298  26.429  23.350  0.00  0.00    +0.116 A 
ATOM      7  N   UNL     1      18.882  27.623  22.985  0.00  0.00    -0.223 NA
ATOM      8  C   UNL     1      20.120  27.991  23.478  0.00  0.00    +0.220 A 
ATOM      9  N   UNL     1      20.729  29.183  23.118  0.00  0.00    -0.283 N 
ATOM     36  H   UNL     1      21.640  29.422  23.509  0.00  0.00    +0.155 HD
ATOM     37  N   UNL     1      20.776  27.175  24.329  0.00  0.00    -0.214 NA
BRANCH   4   3
ATOM      1  C   UNL     1      23.281  24.255  26.509  0.00  0.00    +0.020 A 
ATOM      2  C   UNL     1      22.528  25.056  25.572  0.00  0.00    +0.013 A 
ATOM      3  C   UNL     1      21.077  25.153  25.673  0.00  0.00    +0.019 A 
ATOM     38  C   UNL     1      20.414  24.423  26.743  0.00  0.00    +0.120 A 
ATOM     39  N   UNL     1      21.166  23.658  27.630  0.00  0.00    -0.263 NA
ATOM     40  C   UNL     1      22.562  23.556  27.541  0.00  0.00    +0.111 A 
ENDBRANCH   4   3
ENDBRANCH  10   9
BRANCH  12  13
ATOM     13  N   UNL     1      20.516  31.245  18.595  0.00  0.00    -0.281 N 
ATOM     14  C   UNL     1      21.088  32.370  18.025  0.00  0.00    +0.248 C 
ATOM     30  O   UNL     1      21.074  33.483  18.529  0.00  0.00    -0.270 OA
ATOM     31  H   UNL     1      20.427  30.430  17.987  0.00  0.00    +0.155 HD
BRANCH  14  15
ATOM     15  C   UNL     1      21.760  32.244  16.696  0.00  0.00    +0.037 A 
ATOM     16  C   UNL     1      21.284  31.290  15.691  0.00  0.00    +0.013 A 
ATOM     17  C   UNL     1      21.961  31.176  14.423  0.00  0.00    +0.005 A 
ATOM     18  C   UNL     1      23.121  32.022  14.153  0.00  0.00    -0.033 A 
ATOM     28  C   UNL     1      23.569  32.964  15.165  0.00  0.00    +0.005 A 
ATOM     29  C   UNL     1      22.908  33.077  16.409  0.00  0.00    +0.013 A 
BRANCH  18  19
ATOM     19  C   UNL     1      23.917  31.953  12.836  0.00  0.00    +0.119 C 
BRANCH  19  20
ATOM     20  N   UNL     1      23.578  32.951  11.779  0.00  0.00    -0.302 NA
ATOM     21  C   UNL     1      22.218  32.666  11.135  0.00  0.00    +0.066 C 
ATOM     22  C   UNL     1      21.868  33.733  10.047  0.00  0.00    -0.064 C 
ATOM     23  N   UNL     1      22.973  33.761   8.990  0.00  0.00    +0.379 N 
ATOM     24  C   UNL     1      22.619  34.722   7.935  0.00  0.00    -0.096 C 
ATOM     25  H   UNL     1      23.020  32.749   8.524  0.00  0.00    -0.082 HD
ATOM     26  C   UNL     1      24.329  34.041   9.622  0.00  0.00    -0.064 C 
ATOM     27  C   UNL     1      24.654  32.992  10.722  0.00  0.00    +0.066 C 
ENDBRANCH  19  20
ENDBRANCH  18  19
ENDBRANCH  14  15
ENDBRANCH  12  13
TORSDOF 6
ENDMDL
MODEL 2
REMARK VINA RESULT:      -8.6      2.331      3.034
REMARK  Name = C:\Users\Docking\Desktop\test protocol\1iep_ligandH.pdb
REMARK  8 active torsions:
REMARK  status: ('A' for Active; 'I' for Inactive)
REMARK    1  A    between atoms: _5  and  _11
REMARK    2  A    between atoms: _19  and  _21
REMARK    3  A    between atoms: _22  and  _66
REMARK    4  A    between atoms: _27  and  _30
REMARK    5  A    between atoms: _32  and  _33
REMARK    6  A    between atoms: _38  and  _43
REMARK    7  A    between atoms: _43  and  _46
REMARK    8  A    between atoms: _53  and  _55
REMARK                            x       y       z     vdW  Elec       q    Type
REMARK                         _______ _______ _______ _____ _____    ______ ____
ROOT
ATOM     10  C   UNL     1      20.217  30.247  22.237  0.00  0.00    +0.038 A 
ATOM     11  C   UNL     1      20.510  30.196  20.851  0.00  0.00    +0.047 A 
ATOM     12  C   UNL     1      19.914  31.141  19.920  0.00  0.00    +0.035 A 
ATOM     32  C   UNL     1      19.024  32.128  20.436  0.00  0.00    +0.024 A 
ATOM     33  C   UNL     1      18.714  32.193  21.843  0.00  0.00    +0.007 A 
ATOM     34  C   UNL     1      19.297  31.262  22.765  0.00  0.00    -0.029 A 
ATOM     35  C   UNL     1      18.923  31.375  24.262  0.00  0.00    +0.045 C 
ENDROOT
BRANCH  10   9
ATOM      4  C   UNL     1      20.209  26.098  24.650  0.00  0.00    +0.077 A 
ATOM      5  C   UNL     1      18.885  25.772  24.203  0.00  0.00    +0.048 A 
ATOM      6  C   UNL     1      18.238  26.703  23.360  0.00  0.00    +0.116 A 
ATOM      7  N   UNL     1      18.877  27.868  22.996  0.00  0.00    -0.223 NA
ATOM      8  C   UNL     1      20.153  28.152  23.446  0.00  0.00    +0.220 A 
ATOM      9  N   UNL     1      20.818  29.315  23.086  0.00  0.00    -0.283 N 
ATOM     36  H   UNL     1      21.756  29.491  23.445  0.00  0.00    +0.155 HD
ATOM     37  N   UNL     1      20.792  27.281  24.253  0.00  0.00    -0.214 NA
BRANCH   4   3
ATOM      1  C   UNL     1      23.196  24.142  26.249  0.00  0.00    +0.020 A 
ATOM      2  C   UNL     1      22.455  25.005  25.358  0.00  0.00    +0.013 A 
ATOM      3  C   UNL     1      21.024  25.214  25.543  0.00  0.00    +0.019 A 
ATOM     38  C   UNL     1      20.368  24.530  26.647  0.00  0.00    +0.120 A 
ATOM     39  N   UNL     1      21.107  23.704  27.488  0.00  0.00    -0.263 NA
ATOM     40  C   UNL     1      22.484  23.494  27.319  0.00  0.00    +0.111 A 
ENDBRANCH   4   3
ENDBRANCH  10   9
BRANCH  12  13
ATOM     13  N   UNL     1      20.169  31.133  18.501  0.00  0.00    -0.281 N 
ATOM     14  C   UNL     1      20.930  32.028  17.767  0.00  0.00    +0.248 C 
ATOM     30  O   UNL     1      21.335  33.101  18.191  0.00  0.00    -0.270 OA
ATOM     31  H   UNL     1      19.735  30.376  17.973  0.00  0.00    +0.155 HD
BRANCH  14  15
ATOM     15  C   UNL     1      21.279  31.690  16.354  0.00  0.00    +0.037 A 
ATOM     16  C   UNL     1      22.564  32.086  15.773  0.00  0.00    +0.013 A 
ATOM     17  C   UNL     1      22.869  31.762  14.402  0.00  0.00    +0.005 A 
ATOM     18  C   UNL     1      21.886  31.036  13.602  0.00  0.00    -0.033 A 
ATOM     28  C   UNL     1      20.620  30.650  14.205  0.00  0.00    +0.005 A 
ATOM     29  C   UNL     1      20.318  30.967  15.548  0.00  0.00    +0.013 A 
BRANCH  18  19
ATOM     19  C   UNL     1      22.117  30.667  12.125  0.00  0.00    +0.119 C 
BRANCH  19  20
ATOM     20  N   UNL     1      22.558  29.270  11.830  0.00  0.00    -0.302 NA
ATOM     21  C   UNL     1      23.556  29.216  10.670  0.00  0.00    +0.066 C 
ATOM     22  C   UNL     1      24.023  27.750  10.390  0.00  0.00    -0.064 C 
ATOM     23  N   UNL     1      22.803  26.876  10.096  0.00  0.00    +0.379 N 
ATOM     24  C   UNL     1      23.243  25.511   9.775  0.00  0.00    -0.096 C 
ATOM     25  H   UNL     1      22.300  27.291   9.191  0.00  0.00    -0.082 HD
ATOM     26  C   UNL     1      21.804  26.927  11.243  0.00  0.00    -0.064 C 
ATOM     27  C   UNL     1      21.368  28.390  11.533  0.00  0.00    +0.066 C 
ENDBRANCH  19  20
ENDBRANCH  18  19
ENDBRANCH  14  15
ENDBRANCH  12  13
TORSDOF 6
ENDMDL
MODEL 3
REMARK VINA RESULT:      -8.3      4.444     12.514
REMARK  Name = C:\Users\Docking\Desktop\test protocol\1iep_ligandH.pdb
REMARK  8 active torsions:
REMARK  status: ('A' for Active; 'I' for Inactive)
REMARK    1  A    between atoms: _5  and  _11
REMARK    2  A    between atoms: _19  and  _21
REMARK    3  A    between atoms: _22  and  _66
REMARK    4  A    between atoms: _27  and  _30
REMARK    5  A    between atoms: _32  and  _33
REMARK    6  A    between atoms: _38  and  _43
REMARK    7  A    between atoms: _43  and  _46
REMARK    8  A    between atoms: _53  and  _55
REMARK                            x       y       z     vdW  Elec       q    Type
REMARK                         _______ _______ _______ _____ _____    ______ ____
ROOT
ATOM     10  C   UNL     1      22.601  30.453  12.582  0.00  0.00    +0.038 A 
ATOM     11  C   UNL     1      22.095  30.496  13.906  0.00  0.00    +0.047 A 
ATOM     12  C   UNL     1      22.532  31.516  14.846  0.00  0.00    +0.035 A 
ATOM     32  C   UNL     1      23.484  32.480  14.403  0.00  0.00    +0.024 A 
ATOM     33  C   UNL     1      24.010  32.450  13.060  0.00  0.00    +0.007 A 
ATOM     34  C   UNL     1      23.584  31.444  12.129  0.00  0.00    -0.029 A 
ATOM     35  C   UNL     1      24.186  31.457  10.705  0.00  0.00    +0.045 C 
ENDROOT
BRANCH  10   9
ATOM      4  C   UNL     1      23.022  26.148  10.501  0.00  0.00    +0.077 A 
ATOM      5  C   UNL     1      24.266  25.884  11.164  0.00  0.00    +0.048 A 
ATOM      6  C   UNL     1      24.767  26.884  12.027  0.00  0.00    +0.116 A 
ATOM      7  N   UNL     1      24.067  28.058  12.206  0.00  0.00    -0.223 NA
ATOM      8  C   UNL     1      22.871  28.282  11.550  0.00  0.00    +0.220 A 
ATOM      9  N   UNL     1      22.147  29.451  11.721  0.00  0.00    -0.283 N 
ATOM     36  H   UNL     1      21.272  29.581  11.213  0.00  0.00    +0.155 HD
ATOM     37  N   UNL     1      22.372  27.342  10.719  0.00  0.00    -0.214 NA
BRANCH   4   3
ATOM      1  C   UNL     1      22.380  23.638   7.570  0.00  0.00    +0.020 A 
ATOM      2  C   UNL     1      23.064  24.560   8.448  0.00  0.00    +0.013 A 
ATOM      3  C   UNL     1      22.362  25.188   9.561  0.00  0.00    +0.019 A 
ATOM     38  C   UNL     1      20.959  24.859   9.760  0.00  0.00    +0.120 A 
ATOM     39  N   UNL     1      20.326  23.969   8.897  0.00  0.00    -0.263 NA
ATOM     40  C   UNL     1      20.991  23.360   7.822  0.00  0.00    +0.111 A 
ENDBRANCH   4   3
ENDBRANCH  10   9
BRANCH  12  13
ATOM     13  N   UNL     1      22.059  31.605  16.205  0.00  0.00    -0.281 N 
ATOM     14  C   UNL     1      21.113  32.474  16.723  0.00  0.00    +0.248 C 
ATOM     30  O   UNL     1      20.681  33.455  16.136  0.00  0.00    -0.270 OA
ATOM     31  H   UNL     1      22.473  30.947  16.866  0.00  0.00    +0.155 HD
BRANCH  14  15
ATOM     15  C   UNL     1      20.578  32.224  18.096  0.00  0.00    +0.037 A 
ATOM     16  C   UNL     1      20.426  33.316  19.062  0.00  0.00    +0.013 A 
ATOM     17  C   UNL     1      19.924  33.045  20.386  0.00  0.00    +0.005 A 
ATOM     18  C   UNL     1      19.570  31.676  20.751  0.00  0.00    -0.033 A 
ATOM     28  C   UNL     1      19.726  30.613  19.772  0.00  0.00    +0.005 A 
ATOM     29  C   UNL     1      20.218  30.874  18.474  0.00  0.00    +0.013 A 
BRANCH  18  19
ATOM     19  C   UNL     1      19.047  31.292  22.148  0.00  0.00    +0.119 C 
BRANCH  19  20
ATOM     20  N   UNL     1      18.889  29.837  22.443  0.00  0.00    -0.302 NA
ATOM     21  C   UNL     1      17.567  29.534  23.154  0.00  0.00    +0.066 C 
ATOM     22  C   UNL     1      17.409  28.004  23.435  0.00  0.00    -0.064 C 
ATOM     23  N   UNL     1      18.596  27.516  24.268  0.00  0.00    +0.379 N 
ATOM     24  C   UNL     1      18.421  26.091  24.582  0.00  0.00    -0.096 C 
ATOM     25  H   UNL     1      18.587  28.079  25.230  0.00  0.00    -0.082 HD
ATOM     26  C   UNL     1      19.915  27.815  23.569  0.00  0.00    -0.064 C 
ATOM     27  C   UNL     1      20.049  29.334  23.268  0.00  0.00    +0.066 C 
ENDBRANCH  19  20
ENDBRANCH  18  19
ENDBRANCH  14  15
ENDBRANCH  12  13
TORSDOF 6
ENDMDL
MODEL 4
REMARK VINA RESULT:      -8.0      9.811     12.853
REMARK  Name = C:\Users\Docking\Desktop\test protocol\1iep_ligandH.pdb
REMARK  8 active torsions:
REMARK  status: ('A' for Active; 'I' for Inactive)
REMARK    1  A    between atoms: _5  and  _11
REMARK    2  A    between atoms: _19  and  _21
REMARK    3  A    between atoms: _22  and  _66
REMARK    4  A    between atoms: _27  and  _30
REMARK    5  A    between atoms: _32  and  _33
REMARK    6  A    between atoms: _38  and  _43
REMARK    7  A    between atoms: _43  and  _46
REMARK    8  A    between atoms: _53  and  _55
REMARK                            x       y       z     vdW  Elec       q    Type
REMARK                         _______ _______ _______ _____ _____    ______ ____
ROOT
ATOM     10  C   UNL     1      21.688  34.490  10.713  0.00  0.00    +0.038 A 
ATOM     11  C   UNL     1      22.269  35.089   9.565  0.00  0.00    +0.047 A 
ATOM     12  C   UNL     1      22.270  36.532   9.389  0.00  0.00    +0.035 A 
ATOM     32  C   UNL     1      21.673  37.338  10.402  0.00  0.00    +0.024 A 
ATOM     33  C   UNL     1      21.077  36.746  11.574  0.00  0.00    +0.007 A 
ATOM     34  C   UNL     1      21.070  35.322  11.752  0.00  0.00    -0.029 A 
ATOM     35  C   UNL     1      20.411  34.743  13.026  0.00  0.00    +0.045 C 
ENDROOT
BRANCH  10   9
ATOM      4  C   UNL     1      24.029  30.327  11.187  0.00  0.00    +0.077 A 
ATOM      5  C   UNL     1      25.308  30.977  11.171  0.00  0.00    +0.048 A 
ATOM      6  C   UNL     1      25.320  32.383  11.032  0.00  0.00    +0.116 A 
ATOM      7  N   UNL     1      24.135  33.077  10.918  0.00  0.00    -0.223 NA
ATOM      8  C   UNL     1      22.919  32.420  10.936  0.00  0.00    +0.220 A 
ATOM      9  N   UNL     1      21.715  33.099  10.831  0.00  0.00    -0.283 N 
ATOM     36  H   UNL     1      20.839  32.577  10.841  0.00  0.00    +0.155 HD
ATOM     37  N   UNL     1      22.880  31.077  11.066  0.00  0.00    -0.214 NA
BRANCH   4   3
ATOM      1  C   UNL     1      24.722  26.526  11.798  0.00  0.00    +0.020 A 
ATOM      2  C   UNL     1      24.946  27.948  11.671  0.00  0.00    +0.013 A 
ATOM      3  C   UNL     1      23.851  28.848  11.331  0.00  0.00    +0.019 A 
ATOM     38  C   UNL     1      22.530  28.273  11.126  0.00  0.00    +0.120 A 
ATOM     39  N   UNL     1      22.344  26.900  11.254  0.00  0.00    -0.263 NA
ATOM     40  C   UNL     1      23.391  26.024  11.579  0.00  0.00    +0.111 A 
ENDBRANCH   4   3
ENDBRANCH  10   9
BRANCH  12  13
ATOM     13  N   UNL     1      22.838  37.196   8.241  0.00  0.00    -0.281 N 
ATOM     14  C   UNL     1      23.988  37.967   8.186  0.00  0.00    +0.248 C 
ATOM     30  O   UNL     1      24.590  38.380   9.165  0.00  0.00    -0.270 OA
ATOM     31  H   UNL     1      22.330  37.084   7.363  0.00  0.00    +0.155 HD
BRANCH  14  15
ATOM     15  C   UNL     1      24.540  38.344   6.849  0.00  0.00    +0.037 A 
ATOM     16  C   UNL     1      25.931  38.776   6.696  0.00  0.00    +0.013 A 
ATOM     17  C   UNL     1      26.434  39.151   5.398  0.00  0.00    +0.005 A 
ATOM     18  C   UNL     1      25.544  39.093   4.242  0.00  0.00    -0.033 A 
ATOM     28  C   UNL     1      24.169  38.656   4.421  0.00  0.00    +0.005 A 
ATOM     29  C   UNL     1      23.673  38.288   5.691  0.00  0.00    +0.013 A 
BRANCH  18  19
ATOM     19  C   UNL     1      25.989  39.495   2.823  0.00  0.00    +0.119 C 
BRANCH  19  20
ATOM     20  N   UNL     1      26.327  38.392   1.875  0.00  0.00    -0.302 NA
ATOM     21  C   UNL     1      25.077  37.769   1.248  0.00  0.00    +0.066 C 
ATOM     22  C   UNL     1      25.450  36.632   0.242  0.00  0.00    -0.064 C 
ATOM     23  N   UNL     1      26.281  35.570   0.963  0.00  0.00    +0.379 N 
ATOM     24  C   UNL     1      26.585  34.471   0.034  0.00  0.00    -0.096 C 
ATOM     25  H   UNL     1      25.657  35.153   1.787  0.00  0.00    -0.082 HD
ATOM     26  C   UNL     1      27.526  36.181   1.591  0.00  0.00    -0.064 C 
ATOM     27  C   UNL     1      27.145  37.329   2.567  0.00  0.00    +0.066 C 
ENDBRANCH  19  20
ENDBRANCH  18  19
ENDBRANCH  14  15
ENDBRANCH  12  13
TORSDOF 6
ENDMDL
MODEL 5
REMARK VINA RESULT:      -7.9      4.557     12.517
REMARK  Name = C:\Users\Docking\Desktop\test protocol\1iep_ligandH.pdb
REMARK  8 active torsions:
REMARK  status: ('A' for Active; 'I' for Inactive)
REMARK    1  A    between atoms: _5  and  _11
REMARK    2  A    between atoms: _19  and  _21
REMARK    3  A    between atoms: _22  and  _66
REMARK    4  A    between atoms: _27  and  _30
REMARK    5  A    between atoms: _32  and  _33
REMARK    6  A    between atoms: _38  and  _43
REMARK    7  A    between atoms: _43  and  _46
REMARK    8  A    between atoms: _53  and  _55
REMARK                            x       y       z     vdW  Elec       q    Type
REMARK                         _______ _______ _______ _____ _____    ______ ____
ROOT
ATOM     10  C   UNL     1      22.277  30.580  12.996  0.00  0.00    +0.038 A 
ATOM     11  C   UNL     1      21.850  30.667  14.346  0.00  0.00    +0.047 A 
ATOM     12  C   UNL     1      22.363  31.701  15.232  0.00  0.00    +0.035 A 
ATOM     32  C   UNL     1      23.308  32.631  14.708  0.00  0.00    +0.024 A 
ATOM     33  C   UNL     1      23.753  32.556  13.339  0.00  0.00    +0.007 A 
ATOM     34  C   UNL     1      23.253  31.537  12.462  0.00  0.00    -0.029 A 
ATOM     35  C   UNL     1      23.770  31.501  11.005  0.00  0.00    +0.045 C 
ENDROOT
BRANCH  10   9
ATOM      4  C   UNL     1      22.570  26.294  10.855  0.00  0.00    +0.077 A 
ATOM      5  C   UNL     1      23.891  26.064  11.364  0.00  0.00    +0.048 A 
ATOM      6  C   UNL     1      24.463  27.077  12.166  0.00  0.00    +0.116 A 
ATOM      7  N   UNL     1      23.756  28.229  12.434  0.00  0.00    -0.223 NA
ATOM      8  C   UNL     1      22.484  28.420  11.927  0.00  0.00    +0.220 A 
ATOM      9  N   UNL     1      21.752  29.567  12.190  0.00  0.00    -0.283 N 
ATOM     36  H   UNL     1      20.819  29.673  11.791  0.00  0.00    +0.155 HD
ATOM     37  N   UNL     1      21.917  27.468  11.157  0.00  0.00    -0.214 NA
BRANCH   4   3
ATOM      1  C   UNL     1      19.858  23.826   9.492  0.00  0.00    +0.020 A 
ATOM      2  C   UNL     1      20.530  24.767  10.359  0.00  0.00    +0.013 A 
ATOM      3  C   UNL     1      21.830  25.317   9.995  0.00  0.00    +0.019 A 
ATOM     38  C   UNL     1      22.427  24.891   8.738  0.00  0.00    +0.120 A 
ATOM     39  N   UNL     1      21.757  23.983   7.925  0.00  0.00    -0.263 NA
ATOM     40  C   UNL     1      20.506  23.446   8.265  0.00  0.00    +0.111 A 
ENDBRANCH   4   3
ENDBRANCH  10   9
BRANCH  12  13
ATOM     13  N   UNL     1      21.972  31.835  16.613  0.00  0.00    -0.281 N 
ATOM     14  C   UNL     1      20.807  32.387  17.119  0.00  0.00    +0.248 C 
ATOM     30  O   UNL     1      20.014  33.047  16.465  0.00  0.00    -0.270 OA
ATOM     31  H   UNL     1      22.636  31.478  17.302  0.00  0.00    +0.155 HD
BRANCH  14  15
ATOM     15  C   UNL     1      20.484  32.190  18.565  0.00  0.00    +0.037 A 
ATOM     16  C   UNL     1      20.274  33.331  19.460  0.00  0.00    +0.013 A 
ATOM     17  C   UNL     1      19.980  33.113  20.854  0.00  0.00    +0.005 A 
ATOM     18  C   UNL     1      19.891  31.746  21.362  0.00  0.00    -0.033 A 
ATOM     28  C   UNL     1      20.098  30.632  20.451  0.00  0.00    +0.005 A 
ATOM     29  C   UNL     1      20.388  30.842  19.084  0.00  0.00    +0.013 A 
BRANCH  18  19
ATOM     19  C   UNL     1      19.603  31.419  22.839  0.00  0.00    +0.119 C 
BRANCH  19  20
ATOM     20  N   UNL     1      18.555  32.232  23.527  0.00  0.00    -0.302 NA
ATOM     21  C   UNL     1      18.830  32.372  25.026  0.00  0.00    +0.066 C 
ATOM     22  C   UNL     1      17.737  33.244  25.726  0.00  0.00    -0.064 C 
ATOM     23  N   UNL     1      16.360  32.623  25.483  0.00  0.00    +0.379 N 
ATOM     24  C   UNL     1      15.336  33.408  26.188  0.00  0.00    -0.096 C 
ATOM     25  H   UNL     1      16.368  31.600  25.927  0.00  0.00    -0.082 HD
ATOM     26  C   UNL     1      16.080  32.477  23.994  0.00  0.00    -0.064 C 
ATOM     27  C   UNL     1      17.188  31.634  23.303  0.00  0.00    +0.066 C 
ENDBRANCH  19  20
ENDBRANCH  18  19
ENDBRANCH  14  15
ENDBRANCH  12  13
TORSDOF 6
ENDMDL
