MODEL 1
REMARK VINA RESULT:      -8.6      0.000      0.000
REMARK  Name = C:\Users\Docking\Desktop\test protocol\1iep_ligandH.pdb
REMARK  8 active torsions:
REMARK  status: ('A' for Active; 'I' for Inactive)
REMARK    1  A    between atoms: _5  and  _11
REMARK    2  A    between atoms: _19  and  _21
REMARK    3  A    between atoms: _22  and  _66
REMARK    4  A    between atoms: _27  and  _30
REMARK    5  A    between atoms: _32  and  _33
REMARK    6  A    between atoms: _38  and  _43
REMARK    7  A    between atoms: _43  and  _46
REMARK    8  A    between atoms: _53  and  _55
REMARK                            x       y       z     vdW  Elec       q    Type
REMARK                         _______ _______ _______ _____ _____    ______ ____
ROOT
ATOM     10  C   UNL     1      20.417  30.213  21.952  0.00  0.00    +0.038 A 
ATOM     11  C   UNL     1      20.844  30.219  20.600  0.00  0.00    +0.047 A 
ATOM     12  C   UNL     1      20.281  31.152  19.637  0.00  0.00    +0.035 A 
ATOM     32  C   UNL     1      19.286  32.068  20.086  0.00  0.00    +0.024 A 
ATOM     33  C   UNL     1      18.839  32.075  21.457  0.00  0.00    +0.007 A 
ATOM     34  C   UNL     1      19.389  31.155  22.411  0.00  0.00    -0.029 A 
ATOM     35  C   UNL     1      18.868  31.203  23.866  0.00  0.00    +0.045 C 
ENDROOT
BRANCH  10   9
ATOM      4  C   UNL     1      20.292  26.156  24.515  0.00  0.00    +0.077 A 
ATOM      5  C   UNL     1      18.958  25.854  24.081  0.00  0.00    +0.048 A 
ATOM      6  C   UNL     1      18.337  26.771  23.204  0.00  0.00    +0.116 A 
ATOM      7  N   UNL     1      19.009  27.904  22.797  0.00  0.00    -0.223 NA
ATOM      8  C   UNL     1      20.294  28.166  23.236  0.00  0.00    +0.220 A 
ATOM      9  N   UNL     1      20.992  29.295  22.834  0.00  0.00    -0.283 N 
ATOM     36  H   UNL     1      21.935  29.457  23.186  0.00  0.00    +0.155 HD
ATOM     37  N   UNL     1      20.908  27.307  24.075  0.00  0.00    -0.214 NA
BRANCH   4   3
ATOM      1  C   UNL     1      21.303  23.785  27.457  0.00  0.00    +0.020 A 
ATOM      2  C   UNL     1      20.496  24.619  26.596  0.00  0.00    +0.013 A 
ATOM      3  C   UNL     1      21.082  25.283  25.439  0.00  0.00    +0.019 A 
ATOM     38  C   UNL     1      22.499  25.081  25.178  0.00  0.00    +0.120 A 
ATOM     39  N   UNL     1      23.252  24.273  26.025  0.00  0.00    -0.263 NA
ATOM     40  C   UNL     1      22.699  23.631  27.143  0.00  0.00    +0.111 A 
ENDBRANCH   4   3
ENDBRANCH  10   9
BRANCH  12  13
ATOM     13  N   UNL     1      20.670  31.199  18.249  0.00  0.00    -0.281 N 
ATOM     14  C   UNL     1      21.405  32.180  17.603  0.00  0.00    +0.248 C 
ATOM     30  O   UNL     1      21.661  33.277  18.077  0.00  0.00    -0.270 OA
ATOM     31  H   UNL     1      20.365  30.415  17.673  0.00  0.00    +0.155 HD
BRANCH  14  15
ATOM     15  C   UNL     1      21.920  31.907  16.227  0.00  0.00    +0.037 A 
ATOM     16  C   UNL     1      23.089  32.615  15.699  0.00  0.00    +0.013 A 
ATOM     17  C   UNL     1      23.554  32.345  14.361  0.00  0.00    +0.005 A 
ATOM     18  C   UNL     1      22.850  31.362  13.543  0.00  0.00    -0.033 A 
ATOM     28  C   UNL     1      21.696  30.671  14.093  0.00  0.00    +0.005 A 
ATOM     29  C   UNL     1      21.236  30.933  15.403  0.00  0.00    +0.013 A 
BRANCH  18  19
ATOM     19  C   UNL     1      23.263  31.026  12.097  0.00  0.00    +0.119 C 
BRANCH  19  20
ATOM     20  N   UNL     1      23.157  32.119  11.085  0.00  0.00    -0.302 NA
ATOM     21  C   UNL     1      21.747  32.715  11.029  0.00  0.00    +0.066 C 
ATOM     22  C   UNL     1      21.660  33.872   9.981  0.00  0.00    -0.064 C 
ATOM     23  N   UNL     1      22.079  33.344   8.608  0.00  0.00    +0.379 N 
ATOM     24  C   UNL     1      21.942  34.414   7.608  0.00  0.00    -0.096 C 
ATOM     25  H   UNL     1      21.372  32.528   8.329  0.00  0.00    -0.082 HD
ATOM     26  C   UNL     1      23.478  32.747   8.654  0.00  0.00    -0.064 C 
ATOM     27  C   UNL     1      23.562  31.619   9.720  0.00  0.00    +0.066 C 
ENDBRANCH  19  20
ENDBRANCH  18  19
ENDBRANCH  14  15
ENDBRANCH  12  13
TORSDOF 6
ENDMDL
MODEL 2
REMARK VINA RESULT:      -8.3      2.124      2.930
REMARK  Name = C:\Users\Docking\Desktop\test protocol\1iep_ligandH.pdb
REMARK  8 active torsions:
REMARK  status: ('A' for Active; 'I' for Inactive)
REMARK    1  A    between atoms: _5  and  _11
REMARK    2  A    between atoms: _19  and  _21
REMARK    3  A    between atoms: _22  and  _66
REMARK    4  A    between atoms: _27  and  _30
REMARK    5  A    between atoms: _32  and  _33
REMARK    6  A    between atoms: _38  and  _43
REMARK    7  A    between atoms: _43  and  _46
REMARK    8  A    between atoms: _53  and  _55
REMARK                            x       y       z     vdW  Elec       q    Type
REMARK                         _______ _______ _______ _____ _____    ______ ____
ROOT
ATOM     10  C   UNL     1      20.425  30.122  22.067  0.00  0.00    +0.038 A 
ATOM     11  C   UNL     1      20.686  29.998  20.678  0.00  0.00    +0.047 A 
ATOM     12  C   UNL     1      20.113  30.928  19.719  0.00  0.00    +0.035 A 
ATOM     32  C   UNL     1      19.280  31.977  20.209  0.00  0.00    +0.024 A 
ATOM     33  C   UNL     1      19.004  32.117  21.617  0.00  0.00    +0.007 A 
ATOM     34  C   UNL     1      19.564  31.201  22.568  0.00  0.00    -0.029 A 
ATOM     35  C   UNL     1      19.229  31.395  24.065  0.00  0.00    +0.045 C 
ENDROOT
BRANCH  10   9
ATOM      4  C   UNL     1      20.277  26.091  24.668  0.00  0.00    +0.077 A 
ATOM      5  C   UNL     1      18.928  25.812  24.268  0.00  0.00    +0.048 A 
ATOM      6  C   UNL     1      18.306  26.734  23.397  0.00  0.00    +0.116 A 
ATOM      7  N   UNL     1      18.991  27.849  22.965  0.00  0.00    -0.223 NA
ATOM      8  C   UNL     1      20.291  28.090  23.372  0.00  0.00    +0.220 A 
ATOM      9  N   UNL     1      21.001  29.200  22.944  0.00  0.00    -0.283 N 
ATOM     36  H   UNL     1      21.955  29.346  23.273  0.00  0.00    +0.155 HD
ATOM     37  N   UNL     1      20.907  27.225  24.204  0.00  0.00    -0.214 NA
BRANCH   4   3
ATOM      1  C   UNL     1      21.307  23.724  27.608  0.00  0.00    +0.020 A 
ATOM      2  C   UNL     1      20.497  24.567  26.758  0.00  0.00    +0.013 A 
ATOM      3  C   UNL     1      21.071  25.210  25.582  0.00  0.00    +0.019 A 
ATOM     38  C   UNL     1      22.477  24.977  25.291  0.00  0.00    +0.120 A 
ATOM     39  N   UNL     1      23.233  24.162  26.128  0.00  0.00    -0.263 NA
ATOM     40  C   UNL     1      22.693  23.540  27.264  0.00  0.00    +0.111 A 
ENDBRANCH   4   3
ENDBRANCH  10   9
BRANCH  12  13
ATOM     13  N   UNL     1      20.335  30.847  18.297  0.00  0.00    -0.281 N 
ATOM     14  C   UNL     1      21.011  31.746  17.487  0.00  0.00    +0.248 C 
ATOM     30  O   UNL     1      21.344  32.870  17.832  0.00  0.00    -0.270 OA
ATOM     31  H   UNL     1      19.948  30.027  17.829  0.00  0.00    +0.155 HD
BRANCH  14  15
ATOM     15  C   UNL     1      21.353  31.344  16.089  0.00  0.00    +0.037 A 
ATOM     16  C   UNL     1      22.616  31.751  15.469  0.00  0.00    +0.013 A 
ATOM     17  C   UNL     1      22.913  31.363  14.112  0.00  0.00    +0.005 A 
ATOM     18  C   UNL     1      21.945  30.562  13.368  0.00  0.00    -0.033 A 
ATOM     28  C   UNL     1      20.702  30.167  14.010  0.00  0.00    +0.005 A 
ATOM     29  C   UNL     1      20.407  30.546  15.339  0.00  0.00    +0.013 A 
BRANCH  18  19
ATOM     19  C   UNL     1      22.170  30.120  11.910  0.00  0.00    +0.119 C 
BRANCH  19  20
ATOM     20  N   UNL     1      22.568  28.700  11.678  0.00  0.00    -0.302 NA
ATOM     21  C   UNL     1      23.620  28.571  10.573  0.00  0.00    +0.066 C 
ATOM     22  C   UNL     1      24.042  27.080  10.360  0.00  0.00    -0.064 C 
ATOM     23  N   UNL     1      22.804  26.245  10.029  0.00  0.00    +0.379 N 
ATOM     24  C   UNL     1      23.205  24.854   9.772  0.00  0.00    -0.096 C 
ATOM     25  H   UNL     1      22.364  26.651   9.089  0.00  0.00    -0.082 HD
ATOM     26  C   UNL     1      21.751  26.370  11.122  0.00  0.00    -0.064 C 
ATOM     27  C   UNL     1      21.361  27.858  11.346  0.00  0.00    +0.066 C 
ENDBRANCH  19  20
ENDBRANCH  18  19
ENDBRANCH  14  15
ENDBRANCH  12  13
TORSDOF 6
ENDMDL
MODEL 3
REMARK VINA RESULT:      -8.1      1.527      1.674
REMARK  Name = C:\Users\Docking\Desktop\test protocol\1iep_ligandH.pdb
REMARK  8 active torsions:
REMARK  status: ('A' for Active; 'I' for Inactive)
REMARK    1  A    between atoms: _5  and  _11
REMARK    2  A    between atoms: _19  and  _21
REMARK    3  A    between atoms: _22  and  _66
REMARK    4  A    between atoms: _27  and  _30
REMARK    5  A    between atoms: _32  and  _33
REMARK    6  A    between atoms: _38  and  _43
REMARK    7  A    between atoms: _43  and  _46
REMARK    8  A    between atoms: _53  and  _55
REMARK                            x       y       z     vdW  Elec       q    Type
REMARK                         _______ _______ _______ _____ _____    ______ ____
ROOT
ATOM     10  C   UNL     1      20.285  29.705  22.365  0.00  0.00    +0.038 A 
ATOM     11  C   UNL     1      20.628  29.605  20.992  0.00  0.00    +0.047 A 
ATOM     12  C   UNL     1      20.046  30.500  20.004  0.00  0.00    +0.035 A 
ATOM     32  C   UNL     1      19.120  31.488  20.450  0.00  0.00    +0.024 A 
ATOM     33  C   UNL     1      18.759  31.603  21.841  0.00  0.00    +0.007 A 
ATOM     34  C   UNL     1      19.328  30.721  22.820  0.00  0.00    -0.029 A 
ATOM     35  C   UNL     1      18.900  30.886  24.297  0.00  0.00    +0.045 C 
ENDROOT
BRANCH  10   9
ATOM      4  C   UNL     1      20.223  25.715  25.032  0.00  0.00    +0.077 A 
ATOM      5  C   UNL     1      18.895  25.380  24.606  0.00  0.00    +0.048 A 
ATOM      6  C   UNL     1      18.260  26.264  23.705  0.00  0.00    +0.116 A 
ATOM      7  N   UNL     1      18.914  27.396  23.270  0.00  0.00    -0.223 NA
ATOM      8  C   UNL     1      20.194  27.691  23.702  0.00  0.00    +0.220 A 
ATOM      9  N   UNL     1      20.874  28.820  23.270  0.00  0.00    -0.283 N 
ATOM     36  H   UNL     1      21.814  29.006  23.618  0.00  0.00    +0.155 HD
ATOM     37  N   UNL     1      20.821  26.863  24.563  0.00  0.00    -0.214 NA
BRANCH   4   3
ATOM      1  C   UNL     1      21.276  23.459  28.049  0.00  0.00    +0.020 A 
ATOM      2  C   UNL     1      20.456  24.258  27.168  0.00  0.00    +0.013 A 
ATOM      3  C   UNL     1      21.027  24.878  25.978  0.00  0.00    +0.019 A 
ATOM     38  C   UNL     1      22.441  24.668  25.707  0.00  0.00    +0.120 A 
ATOM     39  N   UNL     1      23.206  23.895  26.575  0.00  0.00    -0.263 NA
ATOM     40  C   UNL     1      22.668  23.295  27.723  0.00  0.00    +0.111 A 
ENDBRANCH   4   3
ENDBRANCH  10   9
BRANCH  12  13
ATOM     13  N   UNL     1      20.350  30.441  18.596  0.00  0.00    -0.281 N 
ATOM     14  C   UNL     1      19.518  30.045  17.561  0.00  0.00    +0.248 C 
ATOM     30  O   UNL     1      18.448  29.475  17.714  0.00  0.00    -0.270 OA
ATOM     31  H   UNL     1      21.293  30.726  18.330  0.00  0.00    +0.155 HD
BRANCH  14  15
ATOM     15  C   UNL     1      19.944  30.307  16.153  0.00  0.00    +0.037 A 
ATOM     16  C   UNL     1      20.431  31.625  15.739  0.00  0.00    +0.013 A 
ATOM     17  C   UNL     1      20.819  31.856  14.369  0.00  0.00    +0.005 A 
ATOM     18  C   UNL     1      20.722  30.764  13.404  0.00  0.00    -0.033 A 
ATOM     28  C   UNL     1      20.240  29.464  13.843  0.00  0.00    +0.005 A 
ATOM     29  C   UNL     1      19.858  29.235  15.184  0.00  0.00    +0.013 A 
BRANCH  18  19
ATOM     19  C   UNL     1      21.094  30.925  11.918  0.00  0.00    +0.119 C 
BRANCH  19  20
ATOM     20  N   UNL     1      22.044  32.023  11.567  0.00  0.00    -0.302 NA
ATOM     21  C   UNL     1      21.358  33.148  10.787  0.00  0.00    +0.066 C 
ATOM     22  C   UNL     1      22.362  34.298  10.447  0.00  0.00    -0.064 C 
ATOM     23  N   UNL     1      23.537  33.727   9.653  0.00  0.00    +0.379 N 
ATOM     24  C   UNL     1      24.453  34.815   9.281  0.00  0.00    -0.096 C 
ATOM     25  H   UNL     1      23.130  33.292   8.711  0.00  0.00    -0.082 HD
ATOM     26  C   UNL     1      24.223  32.605  10.420  0.00  0.00    -0.064 C 
ATOM     27  C   UNL     1      23.211  31.482  10.778  0.00  0.00    +0.066 C 
ENDBRANCH  19  20
ENDBRANCH  18  19
ENDBRANCH  14  15
ENDBRANCH  12  13
TORSDOF 6
ENDMDL
MODEL 4
REMARK VINA RESULT:      -7.9      4.084     12.651
REMARK  Name = C:\Users\Docking\Desktop\test protocol\1iep_ligandH.pdb
REMARK  8 active torsions:
REMARK  status: ('A' for Active; 'I' for Inactive)
REMARK    1  A    between atoms: _5  and  _11
REMARK    2  A    between atoms: _19  and  _21
REMARK    3  A    between atoms: _22  and  _66
REMARK    4  A    between atoms: _27  and  _30
REMARK    5  A    between atoms: _32  and  _33
REMARK    6  A    between atoms: _38  and  _43
REMARK    7  A    between atoms: _43  and  _46
REMARK    8  A    between atoms: _53  and  _55
REMARK                            x       y       z     vdW  Elec       q    Type
REMARK                         _______ _______ _______ _____ _____    ______ ____
ROOT
ATOM     10  C   UNL     1      22.605  30.052  12.430  0.00  0.00    +0.038 A 
ATOM     11  C   UNL     1      21.967  30.018  13.696  0.00  0.00    +0.047 A 
ATOM     12  C   UNL     1      22.274  31.004  14.721  0.00  0.00    +0.035 A 
ATOM     32  C   UNL     1      23.234  32.013  14.420  0.00  0.00    +0.024 A 
ATOM     33  C   UNL     1      23.893  32.063  13.139  0.00  0.00    +0.007 A 
ATOM     34  C   UNL     1      23.596  31.091  12.125  0.00  0.00    -0.029 A 
ATOM     35  C   UNL     1      24.338  31.188  10.772  0.00  0.00    +0.045 C 
ENDROOT
BRANCH  10   9
ATOM      4  C   UNL     1      23.282  25.797  10.314  0.00  0.00    +0.077 A 
ATOM      5  C   UNL     1      24.411  25.496  11.147  0.00  0.00    +0.048 A 
ATOM      6  C   UNL     1      24.790  26.466  12.102  0.00  0.00    +0.116 A 
ATOM      7  N   UNL     1      24.084  27.645  12.209  0.00  0.00    -0.223 NA
ATOM      8  C   UNL     1      23.001  27.905  11.389  0.00  0.00    +0.220 A 
ATOM      9  N   UNL     1      22.272  29.080  11.484  0.00  0.00    -0.283 N 
ATOM     36  H   UNL     1      21.485  29.237  10.855  0.00  0.00    +0.155 HD
ATOM     37  N   UNL     1      22.621  26.995  10.467  0.00  0.00    -0.214 NA
BRANCH   4   3
ATOM      1  C   UNL     1      23.040  23.438   7.204  0.00  0.00    +0.020 A 
ATOM      2  C   UNL     1      23.595  24.328   8.197  0.00  0.00    +0.013 A 
ATOM      3  C   UNL     1      22.759  24.872   9.260  0.00  0.00    +0.019 A 
ATOM     38  C   UNL     1      21.355  24.491   9.291  0.00  0.00    +0.120 A 
ATOM     39  N   UNL     1      20.848  23.633   8.320  0.00  0.00    -0.263 NA
ATOM     40  C   UNL     1      21.642  23.105   7.291  0.00  0.00    +0.111 A 
ENDBRANCH   4   3
ENDBRANCH  10   9
BRANCH  12  13
ATOM     13  N   UNL     1      21.664  31.014  16.027  0.00  0.00    -0.281 N 
ATOM     14  C   UNL     1      20.314  31.053  16.337  0.00  0.00    +0.248 C 
ATOM     30  O   UNL     1      19.428  31.301  15.533  0.00  0.00    -0.270 OA
ATOM     31  H   UNL     1      22.305  30.990  16.820  0.00  0.00    +0.155 HD
BRANCH  14  15
ATOM     15  C   UNL     1      19.889  30.792  17.746  0.00  0.00    +0.037 A 
ATOM     16  C   UNL     1      18.707  29.980  18.045  0.00  0.00    +0.013 A 
ATOM     17  C   UNL     1      18.309  29.758  19.412  0.00  0.00    +0.005 A 
ATOM     18  C   UNL     1      19.095  30.350  20.492  0.00  0.00    -0.033 A 
ATOM     28  C   UNL     1      20.266  31.147  20.167  0.00  0.00    +0.005 A 
ATOM     29  C   UNL     1      20.659  31.368  18.828  0.00  0.00    +0.013 A 
BRANCH  18  19
ATOM     19  C   UNL     1      18.732  30.183  21.979  0.00  0.00    +0.119 C 
BRANCH  19  20
ATOM     20  N   UNL     1      18.782  28.802  22.545  0.00  0.00    -0.302 NA
ATOM     21  C   UNL     1      18.296  28.757  23.996  0.00  0.00    +0.066 C 
ATOM     22  C   UNL     1      18.334  27.301  24.565  0.00  0.00    -0.064 C 
ATOM     23  N   UNL     1      19.756  26.750  24.453  0.00  0.00    +0.379 N 
ATOM     24  C   UNL     1      19.808  25.403  25.040  0.00  0.00    -0.096 C 
ATOM     25  H   UNL     1      20.422  27.409  25.058  0.00  0.00    -0.082 HD
ATOM     26  C   UNL     1      20.249  26.793  23.014  0.00  0.00    -0.064 C 
ATOM     27  C   UNL     1      20.179  28.240  22.449  0.00  0.00    +0.066 C 
ENDBRANCH  19  20
ENDBRANCH  18  19
ENDBRANCH  14  15
ENDBRANCH  12  13
TORSDOF 6
ENDMDL
MODEL 5
REMARK VINA RESULT:      -7.9      2.525      3.240
REMARK  Name = C:\Users\Docking\Desktop\test protocol\1iep_ligandH.pdb
REMARK  8 active torsions:
REMARK  status: ('A' for Active; 'I' for Inactive)
REMARK    1  A    between atoms: _5  and  _11
REMARK    2  A    between atoms: _19  and  _21
REMARK    3  A    between atoms: _22  and  _66
REMARK    4  A    between atoms: _27  and  _30
REMARK    5  A    between atoms: _32  and  _33
REMARK    6  A    between atoms: _38  and  _43
REMARK    7  A    between atoms: _43  and  _46
REMARK    8  A    between atoms: _53  and  _55
REMARK                            x       y       z     vdW  Elec       q    Type
REMARK                         _______ _______ _______ _____ _____    ______ ____
ROOT
ATOM     10  C   UNL     1      19.831  29.905  22.326  0.00  0.00    +0.038 A 
ATOM     11  C   UNL     1      19.910  29.714  20.923  0.00  0.00    +0.047 A 
ATOM     12  C   UNL     1      19.178  30.572  20.004  0.00  0.00    +0.035 A 
ATOM     32  C   UNL     1      18.378  31.618  20.549  0.00  0.00    +0.024 A 
ATOM     33  C   UNL     1      18.286  31.826  21.973  0.00  0.00    +0.007 A 
ATOM     34  C   UNL     1      19.004  30.981  22.884  0.00  0.00    -0.029 A 
ATOM     35  C   UNL     1      18.863  31.246  24.401  0.00  0.00    +0.045 C 
ENDROOT
BRANCH  10   9
ATOM      4  C   UNL     1      20.276  25.880  24.903  0.00  0.00    +0.077 A 
ATOM      5  C   UNL     1      18.945  25.455  24.579  0.00  0.00    +0.048 A 
ATOM      6  C   UNL     1      18.176  26.305  23.752  0.00  0.00    +0.116 A 
ATOM      7  N   UNL     1      18.709  27.488  23.289  0.00  0.00    -0.223 NA
ATOM      8  C   UNL     1      19.996  27.869  23.622  0.00  0.00    +0.220 A 
ATOM      9  N   UNL     1      20.555  29.051  23.162  0.00  0.00    -0.283 N 
ATOM     36  H   UNL     1      21.505  29.300  23.436  0.00  0.00    +0.155 HD
ATOM     37  N   UNL     1      20.750  27.076  24.412  0.00  0.00    -0.214 NA
BRANCH   4   3
ATOM      1  C   UNL     1      21.725  23.628  27.755  0.00  0.00    +0.020 A 
ATOM      2  C   UNL     1      20.780  24.377  26.959  0.00  0.00    +0.013 A 
ATOM      3  C   UNL     1      21.213  25.091  25.764  0.00  0.00    +0.019 A 
ATOM     38  C   UNL     1      22.620  25.025  25.398  0.00  0.00    +0.120 A 
ATOM     39  N   UNL     1      23.507  24.297  26.185  0.00  0.00    -0.263 NA
ATOM     40  C   UNL     1      23.102  23.608  27.338  0.00  0.00    +0.111 A 
ENDBRANCH   4   3
ENDBRANCH  10   9
BRANCH  12  13
ATOM     13  N   UNL     1      19.213  30.421  18.571  0.00  0.00    -0.281 N 
ATOM     14  C   UNL     1      20.126  30.960  17.679  0.00  0.00    +0.248 C 
ATOM     30  O   UNL     1      20.932  31.835  17.960  0.00  0.00    -0.270 OA
ATOM     31  H   UNL     1      18.475  29.846  18.164  0.00  0.00    +0.155 HD
BRANCH  14  15
ATOM     15  C   UNL     1      20.135  30.467  16.268  0.00  0.00    +0.037 A 
ATOM     16  C   UNL     1      20.408  31.372  15.149  0.00  0.00    +0.013 A 
ATOM     17  C   UNL     1      20.394  30.873  13.796  0.00  0.00    +0.005 A 
ATOM     18  C   UNL     1      20.107  29.461  13.556  0.00  0.00    -0.033 A 
ATOM     28  C   UNL     1      19.845  28.585  14.686  0.00  0.00    +0.005 A 
ATOM     29  C   UNL     1      19.857  29.070  16.013  0.00  0.00    +0.013 A 
BRANCH  18  19
ATOM     19  C   UNL     1      20.050  28.848  12.145  0.00  0.00    +0.119 C 
BRANCH  19  20
ATOM     20  N   UNL     1      21.301  28.223  11.620  0.00  0.00    -0.302 NA
ATOM     21  C   UNL     1      21.477  26.785  12.116  0.00  0.00    +0.066 C 
ATOM     22  C   UNL     1      22.779  26.140  11.539  0.00  0.00    -0.064 C 
ATOM     23  N   UNL     1      23.985  26.998  11.926  0.00  0.00    +0.379 N 
ATOM     24  C   UNL     1      25.217  26.363  11.434  0.00  0.00    -0.096 C 
ATOM     25  H   UNL     1      24.038  27.024  13.039  0.00  0.00    -0.082 HD
ATOM     26  C   UNL     1      23.817  28.430  11.439  0.00  0.00    -0.064 C 
ATOM     27  C   UNL     1      22.505  29.052  11.994  0.00  0.00    +0.066 C 
ENDBRANCH  19  20
ENDBRANCH  18  19
ENDBRANCH  14  15
ENDBRANCH  12  13
TORSDOF 6
ENDMDL
