MODEL 1
REMARK VINA RESULT:     -11.3      0.000      0.000
REMARK  Name = C:\Users\Docking\Desktop\test protocol\1iep_ligandH.pdb
REMARK  8 active torsions:
REMARK  status: ('A' for Active; 'I' for Inactive)
REMARK    1  A    between atoms: _5  and  _11
REMARK    2  A    between atoms: _19  and  _21
REMARK    3  A    between atoms: _22  and  _66
REMARK    4  A    between atoms: _27  and  _30
REMARK    5  A    between atoms: _32  and  _33
REMARK    6  A    between atoms: _38  and  _43
REMARK    7  A    between atoms: _43  and  _46
REMARK    8  A    between atoms: _53  and  _55
REMARK                            x       y       z     vdW  Elec       q    Type
REMARK                         _______ _______ _______ _____ _____    ______ ____
ROOT
ATOM     10  C   UNL     1      21.526  16.224  17.949  0.00  0.00    +0.038 A 
ATOM     11  C   UNL     1      22.340  16.339  19.104  0.00  0.00    +0.047 A 
ATOM     12  C   UNL     1      23.779  16.141  19.034  0.00  0.00    +0.035 A 
ATOM     32  C   UNL     1      24.357  15.829  17.769  0.00  0.00    +0.024 A 
ATOM     33  C   UNL     1      23.544  15.707  16.584  0.00  0.00    +0.007 A 
ATOM     34  C   UNL     1      22.124  15.899  16.648  0.00  0.00    -0.029 A 
ATOM     35  C   UNL     1      21.301  15.750  15.347  0.00  0.00    +0.045 C 
ENDROOT
BRANCH  10   9
ATOM      4  C   UNL     1      17.696  19.063  18.510  0.00  0.00    +0.077 A 
ATOM      5  C   UNL     1      18.509  20.243  18.587  0.00  0.00    +0.048 A 
ATOM      6  C   UNL     1      19.908  20.075  18.486  0.00  0.00    +0.116 A 
ATOM      7  N   UNL     1      20.444  18.817  18.318  0.00  0.00    -0.223 NA
ATOM      8  C   UNL     1      19.632  17.700  18.249  0.00  0.00    +0.220 A 
ATOM      9  N   UNL     1      20.149  16.425  18.074  0.00  0.00    -0.283 N 
ATOM     36  H   UNL     1      19.517  15.626  18.035  0.00  0.00    +0.155 HD
ATOM     37  N   UNL     1      18.293  17.833  18.345  0.00  0.00    -0.214 NA
BRANCH   4   3
ATOM      1  C   UNL     1      14.017  18.375  19.645  0.00  0.00    +0.020 A 
ATOM      2  C   UNL     1      15.460  18.327  19.603  0.00  0.00    +0.013 A 
ATOM      3  C   UNL     1      16.202  19.077  18.598  0.00  0.00    +0.019 A 
ATOM     38  C   UNL     1      15.447  19.874  17.642  0.00  0.00    +0.120 A 
ATOM     39  N   UNL     1      14.058  19.901  17.706  0.00  0.00    -0.263 NA
ATOM     40  C   UNL     1      13.333  19.181  18.668  0.00  0.00    +0.111 A 
ENDBRANCH   4   3
ENDBRANCH  10   9
BRANCH  12  13
ATOM     13  N   UNL     1      24.655  16.237  20.175  0.00  0.00    -0.281 N 
ATOM     14  C   UNL     1      25.639  17.181  20.416  0.00  0.00    +0.248 C 
ATOM     30  O   UNL     1      26.062  17.967  19.581  0.00  0.00    -0.270 OA
ATOM     31  H   UNL     1      24.535  15.522  20.892  0.00  0.00    +0.155 HD
BRANCH  14  15
ATOM     15  C   UNL     1      26.253  17.254  21.777  0.00  0.00    +0.037 A 
ATOM     16  C   UNL     1      27.318  18.213  22.080  0.00  0.00    +0.013 A 
ATOM     17  C   UNL     1      27.904  18.251  23.397  0.00  0.00    +0.005 A 
ATOM     18  C   UNL     1      27.424  17.326  24.421  0.00  0.00    -0.033 A 
ATOM     28  C   UNL     1      26.363  16.388  24.094  0.00  0.00    +0.005 A 
ATOM     29  C   UNL     1      25.787  16.348  22.805  0.00  0.00    +0.013 A 
BRANCH  18  19
ATOM     19  C   UNL     1      28.006  17.282  25.846  0.00  0.00    +0.119 C 
BRANCH  19  20
ATOM     20  N   UNL     1      27.261  16.482  26.864  0.00  0.00    -0.302 NA
ATOM     21  C   UNL     1      26.961  17.296  28.126  0.00  0.00    +0.066 C 
ATOM     22  C   UNL     1      26.161  16.452  29.171  0.00  0.00    -0.064 C 
ATOM     23  N   UNL     1      26.954  15.190  29.517  0.00  0.00    +0.379 N 
ATOM     24  C   UNL     1      26.232  14.423  30.542  0.00  0.00    -0.096 C 
ATOM     25  H   UNL     1      27.927  15.512  29.957  0.00  0.00    -0.082 HD
ATOM     26  C   UNL     1      27.260  14.376  28.267  0.00  0.00    -0.064 C 
ATOM     27  C   UNL     1      28.028  15.233  27.223  0.00  0.00    +0.066 C 
ENDBRANCH  19  20
ENDBRANCH  18  19
ENDBRANCH  14  15
ENDBRANCH  12  13
TORSDOF 6
ENDMDL
MODEL 2
REMARK VINA RESULT:     -11.3      4.370      5.119
REMARK  Name = C:\Users\Docking\Desktop\test protocol\1iep_ligandH.pdb
REMARK  8 active torsions:
REMARK  status: ('A' for Active; 'I' for Inactive)
REMARK    1  A    between atoms: _5  and  _11
REMARK    2  A    between atoms: _19  and  _21
REMARK    3  A    between atoms: _22  and  _66
REMARK    4  A    between atoms: _27  and  _30
REMARK    5  A    between atoms: _32  and  _33
REMARK    6  A    between atoms: _38  and  _43
REMARK    7  A    between atoms: _43  and  _46
REMARK    8  A    between atoms: _53  and  _55
REMARK                            x       y       z     vdW  Elec       q    Type
REMARK                         _______ _______ _______ _____ _____    ______ ____
ROOT
ATOM     10  C   UNL     1      20.836  18.238  17.833  0.00  0.00    +0.038 A 
ATOM     11  C   UNL     1      21.232  16.958  18.297  0.00  0.00    +0.047 A 
ATOM     12  C   UNL     1      22.637  16.610  18.439  0.00  0.00    +0.035 A 
ATOM     32  C   UNL     1      23.613  17.592  18.101  0.00  0.00    +0.024 A 
ATOM     33  C   UNL     1      23.229  18.898  17.627  0.00  0.00    +0.007 A 
ATOM     34  C   UNL     1      21.844  19.246  17.483  0.00  0.00    -0.029 A 
ATOM     35  C   UNL     1      21.489  20.659  16.963  0.00  0.00    +0.045 C 
ENDROOT
BRANCH  10   9
ATOM      4  C   UNL     1      16.352  18.235  19.546  0.00  0.00    +0.077 A 
ATOM      5  C   UNL     1      16.755  17.597  20.766  0.00  0.00    +0.048 A 
ATOM      6  C   UNL     1      18.125  17.280  20.910  0.00  0.00    +0.116 A 
ATOM      7  N   UNL     1      19.015  17.583  19.903  0.00  0.00    -0.223 NA
ATOM      8  C   UNL     1      18.593  18.197  18.739  0.00  0.00    +0.220 A 
ATOM      9  N   UNL     1      19.472  18.518  17.716  0.00  0.00    -0.283 N 
ATOM     36  H   UNL     1      19.120  18.964  16.870  0.00  0.00    +0.155 HD
ATOM     37  N   UNL     1      17.290  18.509  18.576  0.00  0.00    -0.214 NA
BRANCH   4   3
ATOM      1  C   UNL     1      12.473  18.690  19.768  0.00  0.00    +0.020 A 
ATOM      2  C   UNL     1      13.817  18.278  20.102  0.00  0.00    +0.013 A 
ATOM      3  C   UNL     1      14.941  18.636  19.246  0.00  0.00    +0.019 A 
ATOM     38  C   UNL     1      14.669  19.419  18.050  0.00  0.00    +0.120 A 
ATOM     39  N   UNL     1      13.365  19.800  17.753  0.00  0.00    -0.263 NA
ATOM     40  C   UNL     1      12.275  19.460  18.568  0.00  0.00    +0.111 A 
ENDBRANCH   4   3
ENDBRANCH  10   9
BRANCH  12  13
ATOM     13  N   UNL     1      23.099  15.323  18.898  0.00  0.00    -0.281 N 
ATOM     14  C   UNL     1      23.849  14.390  18.201  0.00  0.00    +0.248 C 
ATOM     30  O   UNL     1      24.056  14.429  16.997  0.00  0.00    -0.270 OA
ATOM     31  H   UNL     1      22.842  15.070  19.852  0.00  0.00    +0.155 HD
BRANCH  14  15
ATOM     15  C   UNL     1      24.442  13.238  18.947  0.00  0.00    +0.037 A 
ATOM     16  C   UNL     1      23.940  11.874  18.763  0.00  0.00    +0.013 A 
ATOM     17  C   UNL     1      24.519  10.784  19.507  0.00  0.00    +0.005 A 
ATOM     18  C   UNL     1      25.608  11.054  20.443  0.00  0.00    -0.033 A 
ATOM     28  C   UNL     1      26.090  12.416  20.602  0.00  0.00    +0.005 A 
ATOM     29  C   UNL     1      25.525  13.487  19.874  0.00  0.00    +0.013 A 
BRANCH  18  19
ATOM     19  C   UNL     1      26.271   9.956  21.294  0.00  0.00    +0.119 C 
BRANCH  19  20
ATOM     20  N   UNL     1      25.894   9.889  22.738  0.00  0.00    -0.302 NA
ATOM     21  C   UNL     1      27.067   9.447  23.618  0.00  0.00    +0.066 C 
ATOM     22  C   UNL     1      26.661   9.404  25.127  0.00  0.00    -0.064 C 
ATOM     23  N   UNL     1      25.466   8.465  25.305  0.00  0.00    +0.379 N 
ATOM     24  C   UNL     1      25.119   8.377  26.731  0.00  0.00    -0.096 C 
ATOM     25  H   UNL     1      25.782   7.449  24.970  0.00  0.00    -0.082 HD
ATOM     26  C   UNL     1      24.297   8.895  24.431  0.00  0.00    -0.064 C 
ATOM     27  C   UNL     1      24.719   8.963  22.937  0.00  0.00    +0.066 C 
ENDBRANCH  19  20
ENDBRANCH  18  19
ENDBRANCH  14  15
ENDBRANCH  12  13
TORSDOF 6
ENDMDL
MODEL 3
REMARK VINA RESULT:     -11.3      1.477      2.138
REMARK  Name = C:\Users\Docking\Desktop\test protocol\1iep_ligandH.pdb
REMARK  8 active torsions:
REMARK  status: ('A' for Active; 'I' for Inactive)
REMARK    1  A    between atoms: _5  and  _11
REMARK    2  A    between atoms: _19  and  _21
REMARK    3  A    between atoms: _22  and  _66
REMARK    4  A    between atoms: _27  and  _30
REMARK    5  A    between atoms: _32  and  _33
REMARK    6  A    between atoms: _38  and  _43
REMARK    7  A    between atoms: _43  and  _46
REMARK    8  A    between atoms: _53  and  _55
REMARK                            x       y       z     vdW  Elec       q    Type
REMARK                         _______ _______ _______ _____ _____    ______ ____
ROOT
ATOM     10  C   UNL     1      21.392  16.311  18.098  0.00  0.00    +0.038 A 
ATOM     11  C   UNL     1      22.277  16.401  19.203  0.00  0.00    +0.047 A 
ATOM     12  C   UNL     1      23.705  16.173  19.044  0.00  0.00    +0.035 A 
ATOM     32  C   UNL     1      24.198  15.858  17.744  0.00  0.00    +0.024 A 
ATOM     33  C   UNL     1      23.313  15.762  16.610  0.00  0.00    +0.007 A 
ATOM     34  C   UNL     1      21.903  15.983  16.762  0.00  0.00    -0.029 A 
ATOM     35  C   UNL     1      21.000  15.860  15.512  0.00  0.00    +0.045 C 
ENDROOT
BRANCH  10   9
ATOM      4  C   UNL     1      17.637  19.237  18.710  0.00  0.00    +0.077 A 
ATOM      5  C   UNL     1      18.462  20.409  18.632  0.00  0.00    +0.048 A 
ATOM      6  C   UNL     1      19.848  20.215  18.441  0.00  0.00    +0.116 A 
ATOM      7  N   UNL     1      20.361  18.940  18.337  0.00  0.00    -0.223 NA
ATOM      8  C   UNL     1      19.538  17.831  18.418  0.00  0.00    +0.220 A 
ATOM      9  N   UNL     1      20.031  16.540  18.308  0.00  0.00    -0.283 N 
ATOM     36  H   UNL     1      19.392  15.749  18.380  0.00  0.00    +0.155 HD
ATOM     37  N   UNL     1      18.210  17.990  18.602  0.00  0.00    -0.214 NA
BRANCH   4   3
ATOM      1  C   UNL     1      14.004  18.406  19.897  0.00  0.00    +0.020 A 
ATOM      2  C   UNL     1      15.438  18.321  19.740  0.00  0.00    +0.013 A 
ATOM      3  C   UNL     1      16.153  19.279  18.906  0.00  0.00    +0.019 A 
ATOM     38  C   UNL     1      15.383  20.318  18.240  0.00  0.00    +0.120 A 
ATOM     39  N   UNL     1      14.003  20.373  18.408  0.00  0.00    -0.263 NA
ATOM     40  C   UNL     1      13.303  19.457  19.207  0.00  0.00    +0.111 A 
ENDBRANCH   4   3
ENDBRANCH  10   9
BRANCH  12  13
ATOM     13  N   UNL     1      24.650  16.243  20.130  0.00  0.00    -0.281 N 
ATOM     14  C   UNL     1      25.658  17.173  20.324  0.00  0.00    +0.248 C 
ATOM     30  O   UNL     1      26.038  17.967  19.476  0.00  0.00    -0.270 OA
ATOM     31  H   UNL     1      24.567  15.518  20.843  0.00  0.00    +0.155 HD
BRANCH  14  15
ATOM     15  C   UNL     1      26.354  17.219  21.646  0.00  0.00    +0.037 A 
ATOM     16  C   UNL     1      27.635  17.913  21.807  0.00  0.00    +0.013 A 
ATOM     17  C   UNL     1      28.294  17.927  23.089  0.00  0.00    +0.005 A 
ATOM     18  C   UNL     1      27.672  17.245  24.221  0.00  0.00    -0.033 A 
ATOM     28  C   UNL     1      26.399  16.569  24.035  0.00  0.00    +0.005 A 
ATOM     29  C   UNL     1      25.750  16.552  22.780  0.00  0.00    +0.013 A 
BRANCH  18  19
ATOM     19  C   UNL     1      28.314  17.191  25.620  0.00  0.00    +0.119 C 
BRANCH  19  20
ATOM     20  N   UNL     1      28.203  18.413  26.471  0.00  0.00    -0.302 NA
ATOM     21  C   UNL     1      27.604  18.104  27.846  0.00  0.00    +0.066 C 
ATOM     22  C   UNL     1      27.517  19.389  28.731  0.00  0.00    -0.064 C 
ATOM     23  N   UNL     1      26.686  20.449  28.006  0.00  0.00    +0.379 N 
ATOM     24  C   UNL     1      26.553  21.638  28.860  0.00  0.00    -0.096 C 
ATOM     25  H   UNL     1      25.666  20.030  27.848  0.00  0.00    -0.082 HD
ATOM     26  C   UNL     1      27.273  20.761  26.636  0.00  0.00    -0.064 C 
ATOM     27  C   UNL     1      27.383  19.472  25.775  0.00  0.00    +0.066 C 
ENDBRANCH  19  20
ENDBRANCH  18  19
ENDBRANCH  14  15
ENDBRANCH  12  13
TORSDOF 6
ENDMDL
MODEL 4
REMARK VINA RESULT:     -11.2      5.599      7.628
REMARK  Name = C:\Users\Docking\Desktop\test protocol\1iep_ligandH.pdb
REMARK  8 active torsions:
REMARK  status: ('A' for Active; 'I' for Inactive)
REMARK    1  A    between atoms: _5  and  _11
REMARK    2  A    between atoms: _19  and  _21
REMARK    3  A    between atoms: _22  and  _66
REMARK    4  A    between atoms: _27  and  _30
REMARK    5  A    between atoms: _32  and  _33
REMARK    6  A    between atoms: _38  and  _43
REMARK    7  A    between atoms: _43  and  _46
REMARK    8  A    between atoms: _53  and  _55
REMARK                            x       y       z     vdW  Elec       q    Type
REMARK                         _______ _______ _______ _____ _____    ______ ____
ROOT
ATOM     10  C   UNL     1      20.080  19.273  17.339  0.00  0.00    +0.038 A 
ATOM     11  C   UNL     1      20.690  17.993  17.310  0.00  0.00    +0.047 A 
ATOM     12  C   UNL     1      22.138  17.849  17.273  0.00  0.00    +0.035 A 
ATOM     32  C   UNL     1      22.933  19.032  17.269  0.00  0.00    +0.024 A 
ATOM     33  C   UNL     1      22.330  20.341  17.296  0.00  0.00    +0.007 A 
ATOM     34  C   UNL     1      20.903  20.488  17.330  0.00  0.00    -0.029 A 
ATOM     35  C   UNL     1      20.310  21.917  17.352  0.00  0.00    +0.045 C 
ENDROOT
BRANCH  10   9
ATOM      4  C   UNL     1      15.852  18.531  19.485  0.00  0.00    +0.077 A 
ATOM      5  C   UNL     1      16.470  17.909  20.620  0.00  0.00    +0.048 A 
ATOM      6  C   UNL     1      17.878  17.793  20.610  0.00  0.00    +0.116 A 
ATOM      7  N   UNL     1      18.604  18.267  19.538  0.00  0.00    -0.223 NA
ATOM      8  C   UNL     1      17.976  18.860  18.458  0.00  0.00    +0.220 A 
ATOM      9  N   UNL     1      18.686  19.351  17.374  0.00  0.00    -0.283 N 
ATOM     36  H   UNL     1      18.185  19.775  16.593  0.00  0.00    +0.155 HD
ATOM     37  N   UNL     1      16.632  18.981  18.444  0.00  0.00    -0.214 NA
BRANCH   4   3
ATOM      1  C   UNL     1      12.002  18.499  20.178  0.00  0.00    +0.020 A 
ATOM      2  C   UNL     1      13.419  18.282  20.357  0.00  0.00    +0.013 A 
ATOM      3  C   UNL     1      14.374  18.729  19.350  0.00  0.00    +0.019 A 
ATOM     38  C   UNL     1      13.857  19.398  18.165  0.00  0.00    +0.120 A 
ATOM     39  N   UNL     1      12.487  19.591  18.020  0.00  0.00    -0.263 NA
ATOM     40  C   UNL     1      11.559  19.164  18.981  0.00  0.00    +0.111 A 
ENDBRANCH   4   3
ENDBRANCH  10   9
BRANCH  12  13
ATOM     13  N   UNL     1      22.813  16.576  17.236  0.00  0.00    -0.281 N 
ATOM     14  C   UNL     1      23.478  15.934  18.267  0.00  0.00    +0.248 C 
ATOM     30  O   UNL     1      23.777  16.459  19.330  0.00  0.00    -0.270 OA
ATOM     31  H   UNL     1      22.800  16.089  16.339  0.00  0.00    +0.155 HD
BRANCH  14  15
ATOM     15  C   UNL     1      23.882  14.506  18.088  0.00  0.00    +0.037 A 
ATOM     16  C   UNL     1      23.908  13.885  16.761  0.00  0.00    +0.013 A 
ATOM     17  C   UNL     1      24.285  12.501  16.618  0.00  0.00    +0.005 A 
ATOM     18  C   UNL     1      24.640  11.729  17.806  0.00  0.00    -0.033 A 
ATOM     28  C   UNL     1      24.611  12.372  19.109  0.00  0.00    +0.005 A 
ATOM     29  C   UNL     1      24.241  13.727  19.254  0.00  0.00    +0.013 A 
BRANCH  18  19
ATOM     19  C   UNL     1      25.035  10.241  17.749  0.00  0.00    +0.119 C 
BRANCH  19  20
ATOM     20  N   UNL     1      23.938   9.251  17.530  0.00  0.00    -0.302 NA
ATOM     21  C   UNL     1      23.492   9.204  16.066  0.00  0.00    +0.066 C 
ATOM     22  C   UNL     1      22.360   8.147  15.849  0.00  0.00    -0.064 C 
ATOM     23  N   UNL     1      21.179   8.474  16.766  0.00  0.00    +0.379 N 
ATOM     24  C   UNL     1      20.091   7.516  16.523  0.00  0.00    -0.096 C 
ATOM     25  H   UNL     1      20.807   9.487  16.489  0.00  0.00    -0.082 HD
ATOM     26  C   UNL     1      21.615   8.525  18.223  0.00  0.00    -0.064 C 
ATOM     27  C   UNL     1      22.761   9.557  18.422  0.00  0.00    +0.066 C 
ENDBRANCH  19  20
ENDBRANCH  18  19
ENDBRANCH  14  15
ENDBRANCH  12  13
TORSDOF 6
ENDMDL
MODEL 5
REMARK VINA RESULT:     -11.1      5.405     12.611
REMARK  Name = C:\Users\Docking\Desktop\test protocol\1iep_ligandH.pdb
REMARK  8 active torsions:
REMARK  status: ('A' for Active; 'I' for Inactive)
REMARK    1  A    between atoms: _5  and  _11
REMARK    2  A    between atoms: _19  and  _21
REMARK    3  A    between atoms: _22  and  _66
REMARK    4  A    between atoms: _27  and  _30
REMARK    5  A    between atoms: _32  and  _33
REMARK    6  A    between atoms: _38  and  _43
REMARK    7  A    between atoms: _43  and  _46
REMARK    8  A    between atoms: _53  and  _55
REMARK                            x       y       z     vdW  Elec       q    Type
REMARK                         _______ _______ _______ _____ _____    ______ ____
ROOT
ATOM     10  C   UNL     1      22.446  16.712  18.604  0.00  0.00    +0.038 A 
ATOM     11  C   UNL     1      21.047  16.759  18.832  0.00  0.00    +0.047 A 
ATOM     12  C   UNL     1      20.241  17.867  18.344  0.00  0.00    +0.035 A 
ATOM     32  C   UNL     1      20.893  18.910  17.623  0.00  0.00    +0.024 A 
ATOM     33  C   UNL     1      22.315  18.879  17.383  0.00  0.00    +0.007 A 
ATOM     34  C   UNL     1      23.115  17.790  17.865  0.00  0.00    -0.029 A 
ATOM     35  C   UNL     1      24.635  17.812  17.584  0.00  0.00    +0.045 C 
ENDROOT
BRANCH  10   9
ATOM      4  C   UNL     1      24.669  12.498  18.025  0.00  0.00    +0.077 A 
ATOM      5  C   UNL     1      24.336  12.447  16.631  0.00  0.00    +0.048 A 
ATOM      6  C   UNL     1      23.585  13.521  16.103  0.00  0.00    +0.116 A 
ATOM      7  N   UNL     1      23.202  14.564  16.918  0.00  0.00    -0.223 NA
ATOM      8  C   UNL     1      23.539  14.582  18.259  0.00  0.00    +0.220 A 
ATOM      9  N   UNL     1      23.170  15.624  19.096  0.00  0.00    -0.283 N 
ATOM     36  H   UNL     1      23.432  15.596  20.081  0.00  0.00    +0.155 HD
ATOM     37  N   UNL     1      24.254  13.567  18.788  0.00  0.00    -0.214 NA
BRANCH   4   3
ATOM      1  C   UNL     1      26.259  10.256  20.809  0.00  0.00    +0.020 A 
ATOM      2  C   UNL     1      25.478  11.296  20.179  0.00  0.00    +0.013 A 
ATOM      3  C   UNL     1      25.461  11.440  18.729  0.00  0.00    +0.019 A 
ATOM     38  C   UNL     1      26.250  10.507  17.938  0.00  0.00    +0.120 A 
ATOM     39  N   UNL     1      26.994   9.517  18.572  0.00  0.00    -0.263 NA
ATOM     40  C   UNL     1      27.019   9.370  19.967  0.00  0.00    +0.111 A 
ENDBRANCH   4   3
ENDBRANCH  10   9
BRANCH  12  13
ATOM     13  N   UNL     1      18.818  17.973  18.552  0.00  0.00    -0.281 N 
ATOM     14  C   UNL     1      18.143  18.842  19.393  0.00  0.00    +0.248 C 
ATOM     30  O   UNL     1      18.676  19.521  20.258  0.00  0.00    -0.270 OA
ATOM     31  H   UNL     1      18.239  17.329  18.014  0.00  0.00    +0.155 HD
BRANCH  14  15
ATOM     15  C   UNL     1      16.659  18.965  19.263  0.00  0.00    +0.037 A 
ATOM     16  C   UNL     1      16.054  19.837  18.253  0.00  0.00    +0.013 A 
ATOM     17  C   UNL     1      14.620  19.950  18.161  0.00  0.00    +0.005 A 
ATOM     18  C   UNL     1      13.781  19.188  19.082  0.00  0.00    -0.033 A 
ATOM     28  C   UNL     1      14.407  18.326  20.071  0.00  0.00    +0.005 A 
ATOM     29  C   UNL     1      15.812  18.214  20.165  0.00  0.00    +0.013 A 
BRANCH  18  19
ATOM     19  C   UNL     1      12.242  19.264  19.070  0.00  0.00    +0.119 C 
BRANCH  19  20
ATOM     20  N   UNL     1      11.521  18.374  18.111  0.00  0.00    -0.302 NA
ATOM     21  C   UNL     1      11.917  16.905  18.282  0.00  0.00    +0.066 C 
ATOM     22  C   UNL     1      11.136  15.986  17.286  0.00  0.00    -0.064 C 
ATOM     23  N   UNL     1      11.398  16.454  15.853  0.00  0.00    +0.379 N 
ATOM     24  C   UNL     1      10.712  15.557  14.911  0.00  0.00    -0.096 C 
ATOM     25  H   UNL     1      12.493  16.370  15.664  0.00  0.00    -0.082 HD
ATOM     26  C   UNL     1      11.010  17.915  15.675  0.00  0.00    -0.064 C 
ATOM     27  C   UNL     1      11.769  18.816  16.689  0.00  0.00    +0.066 C 
ENDBRANCH  19  20
ENDBRANCH  18  19
ENDBRANCH  14  15
ENDBRANCH  12  13
TORSDOF 6
ENDMDL
