MODEL 1
REMARK VINA RESULT:      -7.8      0.000      0.000
REMARK  Name = C:\Users\Docking\Desktop\test protocol\1iep_ligandH.pdb
REMARK  8 active torsions:
REMARK  status: ('A' for Active; 'I' for Inactive)
REMARK    1  A    between atoms: _5  and  _11
REMARK    2  A    between atoms: _19  and  _21
REMARK    3  A    between atoms: _22  and  _66
REMARK    4  A    between atoms: _27  and  _30
REMARK    5  A    between atoms: _32  and  _33
REMARK    6  A    between atoms: _38  and  _43
REMARK    7  A    between atoms: _43  and  _46
REMARK    8  A    between atoms: _53  and  _55
REMARK                            x       y       z     vdW  Elec       q    Type
REMARK                         _______ _______ _______ _____ _____    ______ ____
ROOT
ATOM     10  C   UNL     1       6.496   4.712  11.632  0.00  0.00    +0.038 A 
ATOM     11  C   UNL     1       7.027   5.608  12.594  0.00  0.00    +0.047 A 
ATOM     12  C   UNL     1       6.155   6.428  13.421  0.00  0.00    +0.035 A 
ATOM     32  C   UNL     1       4.746   6.307  13.243  0.00  0.00    +0.024 A 
ATOM     33  C   UNL     1       4.189   5.402  12.269  0.00  0.00    +0.007 A 
ATOM     34  C   UNL     1       5.044   4.592  11.449  0.00  0.00    -0.029 A 
ATOM     35  C   UNL     1       4.392   3.643  10.417  0.00  0.00    +0.045 C 
ENDROOT
BRANCH  10   9
ATOM      4  C   UNL     1       9.107   0.758  10.866  0.00  0.00    +0.077 A 
ATOM      5  C   UNL     1       8.698   0.175  12.111  0.00  0.00    +0.048 A 
ATOM      6  C   UNL     1       7.820   0.928  12.923  0.00  0.00    +0.116 A 
ATOM      7  N   UNL     1       7.390   2.170  12.510  0.00  0.00    -0.223 NA
ATOM      8  C   UNL     1       7.806   2.704  11.304  0.00  0.00    +0.220 A 
ATOM      9  N   UNL     1       7.379   3.949  10.865  0.00  0.00    -0.283 N 
ATOM     36  H   UNL     1       7.714   4.311   9.973  0.00  0.00    +0.155 HD
ATOM     37  N   UNL     1       8.645   2.006  10.511  0.00  0.00    -0.214 NA
BRANCH   4   3
ATOM      1  C   UNL     1      12.231  -0.979   9.275  0.00  0.00    +0.020 A 
ATOM      2  C   UNL     1      11.381  -0.331  10.248  0.00  0.00    +0.013 A 
ATOM      3  C   UNL     1      10.029   0.084   9.897  0.00  0.00    +0.019 A 
ATOM     38  C   UNL     1       9.563  -0.172   8.543  0.00  0.00    +0.120 A 
ATOM     39  N   UNL     1      10.404  -0.796   7.627  0.00  0.00    -0.263 NA
ATOM     40  C   UNL     1      11.708  -1.199   7.953  0.00  0.00    +0.111 A 
ENDBRANCH   4   3
ENDBRANCH  10   9
BRANCH  12  13
ATOM     13  N   UNL     1       6.637   7.362  14.408  0.00  0.00    -0.281 N 
ATOM     14  C   UNL     1       6.543   7.268  15.787  0.00  0.00    +0.248 C 
ATOM     30  O   UNL     1       5.837   6.465  16.378  0.00  0.00    -0.270 OA
ATOM     31  H   UNL     1       7.104   8.194  14.046  0.00  0.00    +0.155 HD
BRANCH  14  15
ATOM     15  C   UNL     1       7.337   8.212  16.631  0.00  0.00    +0.037 A 
ATOM     16  C   UNL     1       8.421   9.015  16.059  0.00  0.00    +0.013 A 
ATOM     17  C   UNL     1       9.182   9.906  16.899  0.00  0.00    +0.005 A 
ATOM     18  C   UNL     1       8.861   9.998  18.321  0.00  0.00    -0.033 A 
ATOM     28  C   UNL     1       7.778   9.193  18.861  0.00  0.00    +0.005 A 
ATOM     29  C   UNL     1       7.030   8.319  18.041  0.00  0.00    +0.013 A 
BRANCH  18  19
ATOM     19  C   UNL     1       9.634  10.905  19.296  0.00  0.00    +0.119 C 
BRANCH  19  20
ATOM     20  N   UNL     1       9.870  12.318  18.874  0.00  0.00    -0.302 NA
ATOM     21  C   UNL     1      11.272  12.517  18.290  0.00  0.00    +0.066 C 
ATOM     22  C   UNL     1      11.493  13.996  17.833  0.00  0.00    -0.064 C 
ATOM     23  N   UNL     1      11.263  14.934  19.019  0.00  0.00    +0.379 N 
ATOM     24  C   UNL     1      11.527  16.320  18.607  0.00  0.00    -0.096 C 
ATOM     25  H   UNL     1      12.004  14.668  19.808  0.00  0.00    -0.082 HD
ATOM     26  C   UNL     1       9.872  14.740  19.607  0.00  0.00    -0.064 C 
ATOM     27  C   UNL     1       9.652  13.261  20.031  0.00  0.00    +0.066 C 
ENDBRANCH  19  20
ENDBRANCH  18  19
ENDBRANCH  14  15
ENDBRANCH  12  13
TORSDOF 6
ENDMDL
MODEL 2
REMARK VINA RESULT:      -7.6     21.211     26.629
REMARK  Name = C:\Users\Docking\Desktop\test protocol\1iep_ligandH.pdb
REMARK  8 active torsions:
REMARK  status: ('A' for Active; 'I' for Inactive)
REMARK    1  A    between atoms: _5  and  _11
REMARK    2  A    between atoms: _19  and  _21
REMARK    3  A    between atoms: _22  and  _66
REMARK    4  A    between atoms: _27  and  _30
REMARK    5  A    between atoms: _32  and  _33
REMARK    6  A    between atoms: _38  and  _43
REMARK    7  A    between atoms: _43  and  _46
REMARK    8  A    between atoms: _53  and  _55
REMARK                            x       y       z     vdW  Elec       q    Type
REMARK                         _______ _______ _______ _____ _____    ______ ____
ROOT
ATOM     10  C   UNL     1      30.334  -7.704   3.493  0.00  0.00    +0.038 A 
ATOM     11  C   UNL     1      29.222  -6.864   3.229  0.00  0.00    +0.047 A 
ATOM     12  C   UNL     1      28.159  -7.285   2.329  0.00  0.00    +0.035 A 
ATOM     32  C   UNL     1      28.260  -8.568   1.717  0.00  0.00    +0.024 A 
ATOM     33  C   UNL     1      29.384  -9.434   1.975  0.00  0.00    +0.007 A 
ATOM     34  C   UNL     1      30.437  -9.023   2.859  0.00  0.00    -0.029 A 
ATOM     35  C   UNL     1      31.621  -9.990   3.093  0.00  0.00    +0.045 C 
ENDROOT
BRANCH  10   9
ATOM      4  C   UNL     1      32.083  -6.977   7.904  0.00  0.00    +0.077 A 
ATOM      5  C   UNL     1      30.910  -7.523   8.523  0.00  0.00    +0.048 A 
ATOM      6  C   UNL     1      29.876  -7.974   7.671  0.00  0.00    +0.116 A 
ATOM      7  N   UNL     1      30.017  -7.880   6.304  0.00  0.00    -0.223 NA
ATOM      8  C   UNL     1      31.160  -7.346   5.739  0.00  0.00    +0.220 A 
ATOM      9  N   UNL     1      31.326  -7.249   4.366  0.00  0.00    -0.283 N 
ATOM     36  H   UNL     1      32.181  -6.842   3.989  0.00  0.00    +0.155 HD
ATOM     37  N   UNL     1      32.161  -6.907   6.531  0.00  0.00    -0.214 NA
BRANCH   4   3
ATOM      1  C   UNL     1      35.537  -5.382   8.812  0.00  0.00    +0.020 A 
ATOM      2  C   UNL     1      34.425  -5.864   8.026  0.00  0.00    +0.013 A 
ATOM      3  C   UNL     1      33.261  -6.461   8.670  0.00  0.00    +0.019 A 
ATOM     38  C   UNL     1      33.254  -6.555  10.122  0.00  0.00    +0.120 A 
ATOM     39  N   UNL     1      34.341  -6.083  10.852  0.00  0.00    -0.263 NA
ATOM     40  C   UNL     1      35.466  -5.509  10.244  0.00  0.00    +0.111 A 
ENDBRANCH   4   3
ENDBRANCH  10   9
BRANCH  12  13
ATOM     13  N   UNL     1      27.010  -6.472   2.015  0.00  0.00    -0.281 N 
ATOM     14  C   UNL     1      25.873  -6.274   2.781  0.00  0.00    +0.248 C 
ATOM     30  O   UNL     1      25.576  -6.939   3.763  0.00  0.00    -0.270 OA
ATOM     31  H   UNL     1      27.038  -5.984   1.120  0.00  0.00    +0.155 HD
BRANCH  14  15
ATOM     15  C   UNL     1      24.920  -5.190   2.392  0.00  0.00    +0.037 A 
ATOM     16  C   UNL     1      25.391  -3.955   1.760  0.00  0.00    +0.013 A 
ATOM     17  C   UNL     1      24.453  -2.918   1.410  0.00  0.00    +0.005 A 
ATOM     18  C   UNL     1      23.032  -3.114   1.691  0.00  0.00    -0.033 A 
ATOM     28  C   UNL     1      22.592  -4.351   2.314  0.00  0.00    +0.005 A 
ATOM     29  C   UNL     1      23.509  -5.369   2.659  0.00  0.00    +0.013 A 
BRANCH  18  19
ATOM     19  C   UNL     1      21.963  -2.052   1.371  0.00  0.00    +0.119 C 
BRANCH  19  20
ATOM     20  N   UNL     1      21.375  -2.066  -0.001  0.00  0.00    -0.302 NA
ATOM     21  C   UNL     1      22.295  -1.400  -1.028  0.00  0.00    +0.066 C 
ATOM     22  C   UNL     1      21.674  -1.444  -2.462  0.00  0.00    -0.064 C 
ATOM     23  N   UNL     1      20.304  -0.765  -2.443  0.00  0.00    +0.379 N 
ATOM     24  C   UNL     1      19.742  -0.753  -3.801  0.00  0.00    -0.096 C 
ATOM     25  H   UNL     1      20.456   0.294  -2.130  0.00  0.00    -0.082 HD
ATOM     26  C   UNL     1      19.383  -1.419  -1.422  0.00  0.00    -0.064 C 
ATOM     27  C   UNL     1      20.022  -1.397  -0.006  0.00  0.00    +0.066 C 
ENDBRANCH  19  20
ENDBRANCH  18  19
ENDBRANCH  14  15
ENDBRANCH  12  13
TORSDOF 6
ENDMDL
MODEL 3
REMARK VINA RESULT:      -7.5     23.922     28.906
REMARK  Name = C:\Users\Docking\Desktop\test protocol\1iep_ligandH.pdb
REMARK  8 active torsions:
REMARK  status: ('A' for Active; 'I' for Inactive)
REMARK    1  A    between atoms: _5  and  _11
REMARK    2  A    between atoms: _19  and  _21
REMARK    3  A    between atoms: _22  and  _66
REMARK    4  A    between atoms: _27  and  _30
REMARK    5  A    between atoms: _32  and  _33
REMARK    6  A    between atoms: _38  and  _43
REMARK    7  A    between atoms: _43  and  _46
REMARK    8  A    between atoms: _53  and  _55
REMARK                            x       y       z     vdW  Elec       q    Type
REMARK                         _______ _______ _______ _____ _____    ______ ____
ROOT
ATOM     10  C   UNL     1      25.793  -9.810  -3.352  0.00  0.00    +0.038 A 
ATOM     11  C   UNL     1      24.556  -9.491  -3.970  0.00  0.00    +0.047 A 
ATOM     12  C   UNL     1      24.345  -9.717  -5.391  0.00  0.00    +0.035 A 
ATOM     32  C   UNL     1      25.414 -10.272  -6.153  0.00  0.00    +0.024 A 
ATOM     33  C   UNL     1      26.678 -10.601  -5.542  0.00  0.00    +0.007 A 
ATOM     34  C   UNL     1      26.893 -10.378  -4.141  0.00  0.00    -0.029 A 
ATOM     35  C   UNL     1      28.270 -10.743  -3.540  0.00  0.00    +0.045 C 
ENDROOT
BRANCH  10   9
ATOM      4  C   UNL     1      26.297  -6.862   0.402  0.00  0.00    +0.077 A 
ATOM      5  C   UNL     1      26.291  -5.698  -0.436  0.00  0.00    +0.048 A 
ATOM      6  C   UNL     1      26.164  -5.901  -1.828  0.00  0.00    +0.116 A 
ATOM      7  N   UNL     1      26.051  -7.178  -2.334  0.00  0.00    -0.223 NA
ATOM      8  C   UNL     1      26.061  -8.280  -1.498  0.00  0.00    +0.220 A 
ATOM      9  N   UNL     1      25.941  -9.573  -1.984  0.00  0.00    -0.283 N 
ATOM     36  H   UNL     1      25.961 -10.359  -1.335  0.00  0.00    +0.155 HD
ATOM     37  N   UNL     1      26.183  -8.112  -0.165  0.00  0.00    -0.214 NA
BRANCH   4   3
ATOM      1  C   UNL     1      25.479  -6.437   4.204  0.00  0.00    +0.020 A 
ATOM      2  C   UNL     1      25.306  -6.472   2.770  0.00  0.00    +0.013 A 
ATOM      3  C   UNL     1      26.421  -6.811   1.893  0.00  0.00    +0.019 A 
ATOM     38  C   UNL     1      27.706  -7.112   2.505  0.00  0.00    +0.120 A 
ATOM     39  N   UNL     1      27.843  -7.069   3.889  0.00  0.00    -0.263 NA
ATOM     40  C   UNL     1      26.778  -6.742   4.742  0.00  0.00    +0.111 A 
ENDBRANCH   4   3
ENDBRANCH  10   9
BRANCH  12  13
ATOM     13  N   UNL     1      23.114  -9.405  -6.075  0.00  0.00    -0.281 N 
ATOM     14  C   UNL     1      21.977 -10.190  -6.181  0.00  0.00    +0.248 C 
ATOM     30  O   UNL     1      21.924 -11.373  -5.883  0.00  0.00    -0.270 OA
ATOM     31  H   UNL     1      23.077  -8.496  -6.536  0.00  0.00    +0.155 HD
BRANCH  14  15
ATOM     15  C   UNL     1      20.722  -9.573  -6.709  0.00  0.00    +0.037 A 
ATOM     16  C   UNL     1      20.450  -9.515  -8.147  0.00  0.00    +0.013 A 
ATOM     17  C   UNL     1      19.239  -8.899  -8.630  0.00  0.00    +0.005 A 
ATOM     18  C   UNL     1      18.290  -8.338  -7.672  0.00  0.00    -0.033 A 
ATOM     28  C   UNL     1      18.582  -8.415  -6.250  0.00  0.00    +0.005 A 
ATOM     29  C   UNL     1      19.768  -9.016  -5.773  0.00  0.00    +0.013 A 
BRANCH  18  19
ATOM     19  C   UNL     1      16.983  -7.644  -8.098  0.00  0.00    +0.119 C 
BRANCH  19  20
ATOM     20  N   UNL     1      15.905  -7.525  -7.071  0.00  0.00    -0.302 NA
ATOM     21  C   UNL     1      14.567  -8.072  -7.576  0.00  0.00    +0.066 C 
ATOM     22  C   UNL     1      13.456  -7.960  -6.481  0.00  0.00    -0.064 C 
ATOM     23  N   UNL     1      13.316  -6.500  -6.049  0.00  0.00    +0.379 N 
ATOM     24  C   UNL     1      12.233  -6.382  -5.061  0.00  0.00    -0.096 C 
ATOM     25  H   UNL     1      13.021  -5.908  -6.946  0.00  0.00    -0.082 HD
ATOM     26  C   UNL     1      14.643  -5.947  -5.547  0.00  0.00    -0.064 C 
ATOM     27  C   UNL     1      15.746  -6.090  -6.633  0.00  0.00    +0.066 C 
ENDBRANCH  19  20
ENDBRANCH  18  19
ENDBRANCH  14  15
ENDBRANCH  12  13
TORSDOF 6
ENDMDL
MODEL 4
REMARK VINA RESULT:      -7.4     11.949     19.020
REMARK  Name = C:\Users\Docking\Desktop\test protocol\1iep_ligandH.pdb
REMARK  8 active torsions:
REMARK  status: ('A' for Active; 'I' for Inactive)
REMARK    1  A    between atoms: _5  and  _11
REMARK    2  A    between atoms: _19  and  _21
REMARK    3  A    between atoms: _22  and  _66
REMARK    4  A    between atoms: _27  and  _30
REMARK    5  A    between atoms: _32  and  _33
REMARK    6  A    between atoms: _38  and  _43
REMARK    7  A    between atoms: _43  and  _46
REMARK    8  A    between atoms: _53  and  _55
REMARK                            x       y       z     vdW  Elec       q    Type
REMARK                         _______ _______ _______ _____ _____    ______ ____
ROOT
ATOM     10  C   UNL     1      14.137   7.748   3.752  0.00  0.00    +0.038 A 
ATOM     11  C   UNL     1      14.443   6.552   3.054  0.00  0.00    +0.047 A 
ATOM     12  C   UNL     1      13.580   5.384   3.149  0.00  0.00    +0.035 A 
ATOM     32  C   UNL     1      12.413   5.471   3.962  0.00  0.00    +0.024 A 
ATOM     33  C   UNL     1      12.088   6.679   4.680  0.00  0.00    +0.007 A 
ATOM     34  C   UNL     1      12.936   7.833   4.592  0.00  0.00    -0.029 A 
ATOM     35  C   UNL     1      12.542   9.099   5.388  0.00  0.00    +0.045 C 
ENDROOT
BRANCH  10   9
ATOM      4  C   UNL     1      17.884  10.372   5.205  0.00  0.00    +0.077 A 
ATOM      5  C   UNL     1      18.126   9.513   6.328  0.00  0.00    +0.048 A 
ATOM      6  C   UNL     1      17.260   8.411   6.500  0.00  0.00    +0.116 A 
ATOM      7  N   UNL     1      16.231   8.193   5.609  0.00  0.00    -0.223 NA
ATOM      8  C   UNL     1      16.024   9.043   4.538  0.00  0.00    +0.220 A 
ATOM      9  N   UNL     1      15.001   8.839   3.625  0.00  0.00    -0.283 N 
ATOM     36  H   UNL     1      14.877   9.492   2.852  0.00  0.00    +0.155 HD
ATOM     37  N   UNL     1      16.837  10.103   4.353  0.00  0.00    -0.214 NA
BRANCH   4   3
ATOM      1  C   UNL     1      19.361  13.995   5.202  0.00  0.00    +0.020 A 
ATOM      2  C   UNL     1      18.531  12.863   5.546  0.00  0.00    +0.013 A 
ATOM      3  C   UNL     1      18.716  11.576   4.888  0.00  0.00    +0.019 A 
ATOM     38  C   UNL     1      19.759  11.466   3.879  0.00  0.00    +0.120 A 
ATOM     39  N   UNL     1      20.542  12.573   3.568  0.00  0.00    -0.263 NA
ATOM     40  C   UNL     1      20.372  13.817   4.194  0.00  0.00    +0.111 A 
ENDBRANCH   4   3
ENDBRANCH  10   9
BRANCH  12  13
ATOM     13  N   UNL     1      13.843   4.140   2.470  0.00  0.00    -0.281 N 
ATOM     14  C   UNL     1      14.057   3.937   1.116  0.00  0.00    +0.248 C 
ATOM     30  O   UNL     1      13.841   4.772   0.250  0.00  0.00    -0.270 OA
ATOM     31  H   UNL     1      13.876   3.308   3.058  0.00  0.00    +0.155 HD
BRANCH  14  15
ATOM     15  C   UNL     1      14.570   2.611   0.657  0.00  0.00    +0.037 A 
ATOM     16  C   UNL     1      13.690   1.442   0.576  0.00  0.00    +0.013 A 
ATOM     17  C   UNL     1      14.215   0.170   0.146  0.00  0.00    +0.005 A 
ATOM     18  C   UNL     1      15.629   0.062  -0.208  0.00  0.00    -0.033 A 
ATOM     28  C   UNL     1      16.478   1.238  -0.124  0.00  0.00    +0.005 A 
ATOM     29  C   UNL     1      15.967   2.486   0.298  0.00  0.00    +0.013 A 
BRANCH  18  19
ATOM     19  C   UNL     1      16.279  -1.260  -0.657  0.00  0.00    +0.119 C 
BRANCH  19  20
ATOM     20  N   UNL     1      15.550  -2.068  -1.680  0.00  0.00    -0.302 NA
ATOM     21  C   UNL     1      15.422  -3.537  -1.266  0.00  0.00    +0.066 C 
ATOM     22  C   UNL     1      14.637  -4.363  -2.337  0.00  0.00    -0.064 C 
ATOM     23  N   UNL     1      15.342  -4.241  -3.689  0.00  0.00    +0.379 N 
ATOM     24  C   UNL     1      14.639  -5.063  -4.685  0.00  0.00    -0.096 C 
ATOM     25  H   UNL     1      16.370  -4.655  -3.573  0.00  0.00    -0.082 HD
ATOM     26  C   UNL     1      15.476  -2.783  -4.106  0.00  0.00    -0.064 C 
ATOM     27  C   UNL     1      16.231  -1.965  -3.022  0.00  0.00    +0.066 C 
ENDBRANCH  19  20
ENDBRANCH  18  19
ENDBRANCH  14  15
ENDBRANCH  12  13
TORSDOF 6
ENDMDL
MODEL 5
REMARK VINA RESULT:      -7.4     11.994     18.529
REMARK  Name = C:\Users\Docking\Desktop\test protocol\1iep_ligandH.pdb
REMARK  8 active torsions:
REMARK  status: ('A' for Active; 'I' for Inactive)
REMARK    1  A    between atoms: _5  and  _11
REMARK    2  A    between atoms: _19  and  _21
REMARK    3  A    between atoms: _22  and  _66
REMARK    4  A    between atoms: _27  and  _30
REMARK    5  A    between atoms: _32  and  _33
REMARK    6  A    between atoms: _38  and  _43
REMARK    7  A    between atoms: _43  and  _46
REMARK    8  A    between atoms: _53  and  _55
REMARK                            x       y       z     vdW  Elec       q    Type
REMARK                         _______ _______ _______ _____ _____    ______ ____
ROOT
ATOM     10  C   UNL     1      14.134   7.974   3.748  0.00  0.00    +0.038 A 
ATOM     11  C   UNL     1      14.486   6.766   3.094  0.00  0.00    +0.047 A 
ATOM     12  C   UNL     1      13.626   5.595   3.161  0.00  0.00    +0.035 A 
ATOM     32  C   UNL     1      12.412   5.690   3.901  0.00  0.00    +0.024 A 
ATOM     33  C   UNL     1      12.038   6.910   4.573  0.00  0.00    +0.007 A 
ATOM     34  C   UNL     1      12.884   8.067   4.513  0.00  0.00    -0.029 A 
ATOM     35  C   UNL     1      12.437   9.346   5.259  0.00  0.00    +0.045 C 
ENDROOT
BRANCH  10   9
ATOM      4  C   UNL     1      17.913  10.528   5.241  0.00  0.00    +0.077 A 
ATOM      5  C   UNL     1      18.174   9.622   6.322  0.00  0.00    +0.048 A 
ATOM      6  C   UNL     1      17.307   8.515   6.464  0.00  0.00    +0.116 A 
ATOM      7  N   UNL     1      16.262   8.337   5.584  0.00  0.00    -0.223 NA
ATOM      8  C   UNL     1      16.038   9.231   4.553  0.00  0.00    +0.220 A 
ATOM      9  N   UNL     1      14.997   9.067   3.651  0.00  0.00    -0.283 N 
ATOM     36  H   UNL     1      14.861   9.753   2.909  0.00  0.00    +0.155 HD
ATOM     37  N   UNL     1      16.850  10.297   4.397  0.00  0.00    -0.214 NA
BRANCH   4   3
ATOM      1  C   UNL     1      19.377  14.155   5.339  0.00  0.00    +0.020 A 
ATOM      2  C   UNL     1      18.549  13.012   5.649  0.00  0.00    +0.013 A 
ATOM      3  C   UNL     1      18.742  11.743   4.958  0.00  0.00    +0.019 A 
ATOM     38  C   UNL     1      19.789  11.663   3.951  0.00  0.00    +0.120 A 
ATOM     39  N   UNL     1      20.570  12.781   3.673  0.00  0.00    -0.263 NA
ATOM     40  C   UNL     1      20.393  14.007   4.330  0.00  0.00    +0.111 A 
ENDBRANCH   4   3
ENDBRANCH  10   9
BRANCH  12  13
ATOM     13  N   UNL     1      13.935   4.339   2.523  0.00  0.00    -0.281 N 
ATOM     14  C   UNL     1      13.514   3.887   1.283  0.00  0.00    +0.248 C 
ATOM     30  O   UNL     1      12.629   4.408   0.622  0.00  0.00    -0.270 OA
ATOM     31  H   UNL     1      14.538   3.707   3.050  0.00  0.00    +0.155 HD
BRANCH  14  15
ATOM     15  C   UNL     1      14.160   2.672   0.701  0.00  0.00    +0.037 A 
ATOM     16  C   UNL     1      13.432   1.406   0.582  0.00  0.00    +0.013 A 
ATOM     17  C   UNL     1      14.084   0.245   0.032  0.00  0.00    +0.005 A 
ATOM     18  C   UNL     1      15.474   0.344  -0.406  0.00  0.00    -0.033 A 
ATOM     28  C   UNL     1      16.172   1.613  -0.282  0.00  0.00    +0.005 A 
ATOM     29  C   UNL     1      15.536   2.754   0.258  0.00  0.00    +0.013 A 
BRANCH  18  19
ATOM     19  C   UNL     1      16.256  -0.850  -0.986  0.00  0.00    +0.119 C 
BRANCH  19  20
ATOM     20  N   UNL     1      17.726  -0.672  -1.186  0.00  0.00    -0.302 NA
ATOM     21  C   UNL     1      18.275  -1.606  -2.269  0.00  0.00    +0.066 C 
ATOM     22  C   UNL     1      19.809  -1.391  -2.481  0.00  0.00    -0.064 C 
ATOM     23  N   UNL     1      20.540  -1.610  -1.155  0.00  0.00    +0.379 N 
ATOM     24  C   UNL     1      21.988  -1.466  -1.364  0.00  0.00    -0.096 C 
ATOM     25  H   UNL     1      20.347  -2.660  -0.833  0.00  0.00    -0.082 HD
ATOM     26  C   UNL     1      19.998  -0.688  -0.072  0.00  0.00    -0.064 C 
ATOM     27  C   UNL     1      18.467  -0.888   0.110  0.00  0.00    +0.066 C 
ENDBRANCH  19  20
ENDBRANCH  18  19
ENDBRANCH  14  15
ENDBRANCH  12  13
TORSDOF 6
ENDMDL
