MODEL 1
REMARK VINA RESULT:      -7.9      0.000      0.000
REMARK  Name = C:\Users\Docking\Desktop\test protocol\1iep_ligandH.pdb
REMARK  8 active torsions:
REMARK  status: ('A' for Active; 'I' for Inactive)
REMARK    1  A    between atoms: _5  and  _11
REMARK    2  A    between atoms: _19  and  _21
REMARK    3  A    between atoms: _22  and  _66
REMARK    4  A    between atoms: _27  and  _30
REMARK    5  A    between atoms: _32  and  _33
REMARK    6  A    between atoms: _38  and  _43
REMARK    7  A    between atoms: _43  and  _46
REMARK    8  A    between atoms: _53  and  _55
REMARK                            x       y       z     vdW  Elec       q    Type
REMARK                         _______ _______ _______ _____ _____    ______ ____
ROOT
ATOM     10  C   UNL     1       2.774 -10.839  26.087  0.00  0.00    +0.038 A 
ATOM     11  C   UNL     1       2.012 -11.994  25.775  0.00  0.00    +0.047 A 
ATOM     12  C   UNL     1       2.100 -13.196  26.589  0.00  0.00    +0.035 A 
ATOM     32  C   UNL     1       2.972 -13.187  27.716  0.00  0.00    +0.024 A 
ATOM     33  C   UNL     1       3.755 -12.022  28.047  0.00  0.00    +0.007 A 
ATOM     34  C   UNL     1       3.674 -10.834  27.247  0.00  0.00    -0.029 A 
ATOM     35  C   UNL     1       4.541  -9.617  27.645  0.00  0.00    +0.045 C 
ENDROOT
BRANCH  10   9
ATOM      4  C   UNL     1       4.188  -8.104  22.405  0.00  0.00    +0.077 A 
ATOM      5  C   UNL     1       5.282  -8.980  22.098  0.00  0.00    +0.048 A 
ATOM      6  C   UNL     1       5.450 -10.120  22.916  0.00  0.00    +0.116 A 
ATOM      7  N   UNL     1       4.582 -10.356  23.960  0.00  0.00    -0.223 NA
ATOM      8  C   UNL     1       3.539  -9.490  24.231  0.00  0.00    +0.220 A 
ATOM      9  N   UNL     1       2.650  -9.712  25.271  0.00  0.00    -0.283 N 
ATOM     36  H   UNL     1       1.898  -9.046  25.443  0.00  0.00    +0.155 HD
ATOM     37  N   UNL     1       3.358  -8.394  23.465  0.00  0.00    -0.214 NA
BRANCH   4   3
ATOM      1  C   UNL     1       2.280  -5.282  20.483  0.00  0.00    +0.020 A 
ATOM      2  C   UNL     1       2.526  -6.495  21.229  0.00  0.00    +0.013 A 
ATOM      3  C   UNL     1       3.878  -6.861  21.631  0.00  0.00    +0.019 A 
ATOM     38  C   UNL     1       4.968  -5.972  21.259  0.00  0.00    +0.120 A 
ATOM     39  N   UNL     1       4.701  -4.812  20.538  0.00  0.00    -0.263 NA
ATOM     40  C   UNL     1       3.404  -4.450  20.145  0.00  0.00    +0.111 A 
ENDBRANCH   4   3
ENDBRANCH  10   9
BRANCH  12  13
ATOM     13  N   UNL     1       1.356 -14.402  26.317  0.00  0.00    -0.281 N 
ATOM     14  C   UNL     1       1.328 -15.138  25.144  0.00  0.00    +0.248 C 
ATOM     30  O   UNL     1       1.775 -14.751  24.074  0.00  0.00    -0.270 OA
ATOM     31  H   UNL     1       0.781 -14.755  27.082  0.00  0.00    +0.155 HD
BRANCH  14  15
ATOM     15  C   UNL     1       0.700 -16.494  25.157  0.00  0.00    +0.037 A 
ATOM     16  C   UNL     1      -0.322 -16.868  24.176  0.00  0.00    +0.013 A 
ATOM     17  C   UNL     1      -0.924 -18.177  24.222  0.00  0.00    +0.005 A 
ATOM     18  C   UNL     1      -0.503 -19.123  25.253  0.00  0.00    -0.033 A 
ATOM     28  C   UNL     1       0.516 -18.727  26.211  0.00  0.00    +0.005 A 
ATOM     29  C   UNL     1       1.108 -17.445  26.169  0.00  0.00    +0.013 A 
BRANCH  18  19
ATOM     19  C   UNL     1      -1.107 -20.533  25.391  0.00  0.00    +0.119 C 
BRANCH  19  20
ATOM     20  N   UNL     1      -0.314 -21.672  24.839  0.00  0.00    -0.302 NA
ATOM     21  C   UNL     1      -0.634 -21.935  23.365  0.00  0.00    +0.066 C 
ATOM     22  C   UNL     1       0.220 -23.115  22.799  0.00  0.00    -0.064 C 
ATOM     23  N   UNL     1      -0.028 -24.369  23.638  0.00  0.00    +0.379 N 
ATOM     24  C   UNL     1       0.729 -25.496  23.073  0.00  0.00    -0.096 C 
ATOM     25  H   UNL     1      -1.112 -24.618  23.561  0.00  0.00    -0.082 HD
ATOM     26  C   UNL     1       0.285 -24.117  25.106  0.00  0.00    -0.064 C 
ATOM     27  C   UNL     1      -0.548 -22.923  25.651  0.00  0.00    +0.066 C 
ENDBRANCH  19  20
ENDBRANCH  18  19
ENDBRANCH  14  15
ENDBRANCH  12  13
TORSDOF 6
ENDMDL
MODEL 2
REMARK VINA RESULT:      -7.7     24.320     27.586
REMARK  Name = C:\Users\Docking\Desktop\test protocol\1iep_ligandH.pdb
REMARK  8 active torsions:
REMARK  status: ('A' for Active; 'I' for Inactive)
REMARK    1  A    between atoms: _5  and  _11
REMARK    2  A    between atoms: _19  and  _21
REMARK    3  A    between atoms: _22  and  _66
REMARK    4  A    between atoms: _27  and  _30
REMARK    5  A    between atoms: _32  and  _33
REMARK    6  A    between atoms: _38  and  _43
REMARK    7  A    between atoms: _43  and  _46
REMARK    8  A    between atoms: _53  and  _55
REMARK                            x       y       z     vdW  Elec       q    Type
REMARK                         _______ _______ _______ _____ _____    ______ ____
ROOT
ATOM     10  C   UNL     1      -3.012 -22.843  -1.630  0.00  0.00    +0.038 A 
ATOM     11  C   UNL     1      -2.221 -23.656  -0.780  0.00  0.00    +0.047 A 
ATOM     12  C   UNL     1      -0.972 -24.239  -1.243  0.00  0.00    +0.035 A 
ATOM     32  C   UNL     1      -0.556 -23.969  -2.580  0.00  0.00    +0.024 A 
ATOM     33  C   UNL     1      -1.348 -23.145  -3.459  0.00  0.00    +0.007 A 
ATOM     34  C   UNL     1      -2.583 -22.570  -3.007  0.00  0.00    -0.029 A 
ATOM     35  C   UNL     1      -3.394 -21.700  -3.995  0.00  0.00    +0.045 C 
ENDROOT
BRANCH  10   9
ATOM      4  C   UNL     1      -7.721 -23.105  -0.738  0.00  0.00    +0.077 A 
ATOM      5  C   UNL     1      -7.822 -24.404  -1.338  0.00  0.00    +0.048 A 
ATOM      6  C   UNL     1      -6.641 -24.967  -1.871  0.00  0.00    +0.116 A 
ATOM      7  N   UNL     1      -5.452 -24.273  -1.803  0.00  0.00    -0.223 NA
ATOM      8  C   UNL     1      -5.389 -23.021  -1.219  0.00  0.00    +0.220 A 
ATOM      9  N   UNL     1      -4.203 -22.309  -1.133  0.00  0.00    -0.283 N 
ATOM     36  H   UNL     1      -4.200 -21.385  -0.701  0.00  0.00    +0.155 HD
ATOM     37  N   UNL     1      -6.504 -22.462  -0.704  0.00  0.00    -0.214 NA
BRANCH   4   3
ATOM      1  C   UNL     1     -10.633 -22.069   1.659  0.00  0.00    +0.020 A 
ATOM      2  C   UNL     1      -9.517 -22.805   1.112  0.00  0.00    +0.013 A 
ATOM      3  C   UNL     1      -8.880 -22.380  -0.128  0.00  0.00    +0.019 A 
ATOM     38  C   UNL     1      -9.401 -21.196  -0.796  0.00  0.00    +0.120 A 
ATOM     39  N   UNL     1     -10.479 -20.509  -0.246  0.00  0.00    -0.263 NA
ATOM     40  C   UNL     1     -11.101 -20.909   0.946  0.00  0.00    +0.111 A 
ENDBRANCH   4   3
ENDBRANCH  10   9
BRANCH  12  13
ATOM     13  N   UNL     1      -0.131 -25.080  -0.428  0.00  0.00    -0.281 N 
ATOM     14  C   UNL     1      -0.254 -25.350   0.926  0.00  0.00    +0.248 C 
ATOM     30  O   UNL     1      -0.984 -24.736   1.689  0.00  0.00    -0.270 OA
ATOM     31  H   UNL     1       0.649 -25.530  -0.906  0.00  0.00    +0.155 HD
BRANCH  14  15
ATOM     15  C   UNL     1       0.564 -26.451   1.519  0.00  0.00    +0.037 A 
ATOM     16  C   UNL     1       1.432 -27.287   0.686  0.00  0.00    +0.013 A 
ATOM     17  C   UNL     1       2.197 -28.353   1.281  0.00  0.00    +0.005 A 
ATOM     18  C   UNL     1       2.098 -28.589   2.720  0.00  0.00    -0.033 A 
ATOM     28  C   UNL     1       1.233 -27.742   3.523  0.00  0.00    +0.005 A 
ATOM     29  C   UNL     1       0.481 -26.696   2.943  0.00  0.00    +0.013 A 
BRANCH  18  19
ATOM     19  C   UNL     1       2.862 -29.718   3.436  0.00  0.00    +0.119 C 
BRANCH  19  20
ATOM     20  N   UNL     1       3.767 -29.327   4.558  0.00  0.00    -0.302 NA
ATOM     21  C   UNL     1       5.228 -29.687   4.270  0.00  0.00    +0.066 C 
ATOM     22  C   UNL     1       6.164 -29.250   5.443  0.00  0.00    -0.064 C 
ATOM     23  N   UNL     1       5.690 -29.906   6.741  0.00  0.00    +0.379 N 
ATOM     24  C   UNL     1       6.603 -29.543   7.835  0.00  0.00    -0.096 C 
ATOM     25  H   UNL     1       5.749 -31.010   6.603  0.00  0.00    -0.082 HD
ATOM     26  C   UNL     1       4.238 -29.554   7.034  0.00  0.00    -0.064 C 
ATOM     27  C   UNL     1       3.320 -29.966   5.849  0.00  0.00    +0.066 C 
ENDBRANCH  19  20
ENDBRANCH  18  19
ENDBRANCH  14  15
ENDBRANCH  12  13
TORSDOF 6
ENDMDL
MODEL 3
REMARK VINA RESULT:      -7.7      3.838     13.484
REMARK  Name = C:\Users\Docking\Desktop\test protocol\1iep_ligandH.pdb
REMARK  8 active torsions:
REMARK  status: ('A' for Active; 'I' for Inactive)
REMARK    1  A    between atoms: _5  and  _11
REMARK    2  A    between atoms: _19  and  _21
REMARK    3  A    between atoms: _22  and  _66
REMARK    4  A    between atoms: _27  and  _30
REMARK    5  A    between atoms: _32  and  _33
REMARK    6  A    between atoms: _38  and  _43
REMARK    7  A    between atoms: _43  and  _46
REMARK    8  A    between atoms: _53  and  _55
REMARK                            x       y       z     vdW  Elec       q    Type
REMARK                         _______ _______ _______ _____ _____    ______ ____
ROOT
ATOM     10  C   UNL     1       4.814 -11.352  23.980  0.00  0.00    +0.038 A 
ATOM     11  C   UNL     1       4.243 -10.084  23.700  0.00  0.00    +0.047 A 
ATOM     12  C   UNL     1       5.013  -8.861  23.862  0.00  0.00    +0.035 A 
ATOM     32  C   UNL     1       6.362  -8.966  24.309  0.00  0.00    +0.024 A 
ATOM     33  C   UNL     1       6.957 -10.246  24.600  0.00  0.00    +0.007 A 
ATOM     34  C   UNL     1       6.202 -11.457  24.443  0.00  0.00    -0.029 A 
ATOM     35  C   UNL     1       6.890 -12.802  24.775  0.00  0.00    +0.045 C 
ENDROOT
BRANCH  10   9
ATOM      4  C   UNL     1       1.539 -14.511  25.510  0.00  0.00    +0.077 A 
ATOM      5  C   UNL     1       1.399 -13.844  26.772  0.00  0.00    +0.048 A 
ATOM      6  C   UNL     1       2.193 -12.696  26.991  0.00  0.00    +0.116 A 
ATOM      7  N   UNL     1       3.059 -12.256  26.013  0.00  0.00    -0.223 NA
ATOM      8  C   UNL     1       3.171 -12.924  24.807  0.00  0.00    +0.220 A 
ATOM      9  N   UNL     1       4.029 -12.495  23.806  0.00  0.00    -0.283 N 
ATOM     36  H   UNL     1       4.088 -13.019  22.934  0.00  0.00    +0.155 HD
ATOM     37  N   UNL     1       2.425 -14.024  24.575  0.00  0.00    -0.214 NA
BRANCH   4   3
ATOM      1  C   UNL     1      -0.843 -16.992  23.648  0.00  0.00    +0.020 A 
ATOM      2  C   UNL     1      -0.120 -15.784  23.973  0.00  0.00    +0.013 A 
ATOM      3  C   UNL     1       0.767 -15.735  25.128  0.00  0.00    +0.019 A 
ATOM     38  C   UNL     1       0.901 -16.935  25.940  0.00  0.00    +0.120 A 
ATOM     39  N   UNL     1       0.191 -18.083  25.604  0.00  0.00    -0.263 NA
ATOM     40  C   UNL     1      -0.667 -18.142  24.495  0.00  0.00    +0.111 A 
ENDBRANCH   4   3
ENDBRANCH  10   9
BRANCH  12  13
ATOM     13  N   UNL     1       4.485  -7.545  23.601  0.00  0.00    -0.281 N 
ATOM     14  C   UNL     1       4.504  -6.841  22.409  0.00  0.00    +0.248 C 
ATOM     30  O   UNL     1       5.171  -7.151  21.433  0.00  0.00    -0.270 OA
ATOM     31  H   UNL     1       4.043  -7.075  24.392  0.00  0.00    +0.155 HD
BRANCH  14  15
ATOM     15  C   UNL     1       3.672  -5.605  22.286  0.00  0.00    +0.037 A 
ATOM     16  C   UNL     1       4.118  -4.329  22.852  0.00  0.00    +0.013 A 
ATOM     17  C   UNL     1       3.288  -3.156  22.735  0.00  0.00    +0.005 A 
ATOM     18  C   UNL     1       2.003  -3.254  22.047  0.00  0.00    -0.033 A 
ATOM     28  C   UNL     1       1.587  -4.531  21.490  0.00  0.00    +0.005 A 
ATOM     29  C   UNL     1       2.397  -5.683  21.604  0.00  0.00    +0.013 A 
BRANCH  18  19
ATOM     19  C   UNL     1       1.044  -2.059  21.893  0.00  0.00    +0.119 C 
BRANCH  19  20
ATOM     20  N   UNL     1       0.562  -1.403  23.145  0.00  0.00    -0.302 NA
ATOM     21  C   UNL     1       0.193  -2.426  24.223  0.00  0.00    +0.066 C 
ATOM     22  C   UNL     1      -0.288  -1.722  25.534  0.00  0.00    -0.064 C 
ATOM     23  N   UNL     1      -1.478  -0.816  25.217  0.00  0.00    +0.379 N 
ATOM     24  C   UNL     1      -1.969  -0.198  26.457  0.00  0.00    -0.096 C 
ATOM     25  H   UNL     1      -2.295  -1.460  24.813  0.00  0.00    -0.082 HD
ATOM     26  C   UNL     1      -1.121   0.202  24.143  0.00  0.00    -0.064 C 
ATOM     27  C   UNL     1      -0.617  -0.507  22.855  0.00  0.00    +0.066 C 
ENDBRANCH  19  20
ENDBRANCH  18  19
ENDBRANCH  14  15
ENDBRANCH  12  13
TORSDOF 6
ENDMDL
MODEL 4
REMARK VINA RESULT:      -7.6     28.411     34.113
REMARK  Name = C:\Users\Docking\Desktop\test protocol\1iep_ligandH.pdb
REMARK  8 active torsions:
REMARK  status: ('A' for Active; 'I' for Inactive)
REMARK    1  A    between atoms: _5  and  _11
REMARK    2  A    between atoms: _19  and  _21
REMARK    3  A    between atoms: _22  and  _66
REMARK    4  A    between atoms: _27  and  _30
REMARK    5  A    between atoms: _32  and  _33
REMARK    6  A    between atoms: _38  and  _43
REMARK    7  A    between atoms: _43  and  _46
REMARK    8  A    between atoms: _53  and  _55
REMARK                            x       y       z     vdW  Elec       q    Type
REMARK                         _______ _______ _______ _____ _____    ______ ____
ROOT
ATOM     10  C   UNL     1       3.043 -32.537  -3.523  0.00  0.00    +0.038 A 
ATOM     11  C   UNL     1       1.794 -32.235  -4.124  0.00  0.00    +0.047 A 
ATOM     12  C   UNL     1       1.574 -32.444  -5.547  0.00  0.00    +0.035 A 
ATOM     32  C   UNL     1       2.647 -32.966  -6.327  0.00  0.00    +0.024 A 
ATOM     33  C   UNL     1       3.922 -33.278  -5.732  0.00  0.00    +0.007 A 
ATOM     34  C   UNL     1       4.146 -33.071  -4.330  0.00  0.00    -0.029 A 
ATOM     35  C   UNL     1       5.536 -33.417  -3.747  0.00  0.00    +0.045 C 
ENDROOT
BRANCH  10   9
ATOM      4  C   UNL     1       3.403 -29.635   0.283  0.00  0.00    +0.077 A 
ATOM      5  C   UNL     1       3.298 -28.458  -0.530  0.00  0.00    +0.048 A 
ATOM      6  C   UNL     1       3.159 -28.643  -1.924  0.00  0.00    +0.116 A 
ATOM      7  N   UNL     1       3.129 -29.914  -2.454  0.00  0.00    -0.223 NA
ATOM      8  C   UNL     1       3.235 -31.028  -1.642  0.00  0.00    +0.220 A 
ATOM      9  N   UNL     1       3.199 -32.317  -2.153  0.00  0.00    -0.283 N 
ATOM     36  H   UNL     1       3.288 -33.112  -1.521  0.00  0.00    +0.155 HD
ATOM     37  N   UNL     1       3.370 -30.878  -0.308  0.00  0.00    -0.214 NA
BRANCH   4   3
ATOM      1  C   UNL     1       2.663 -29.206   4.100  0.00  0.00    +0.020 A 
ATOM      2  C   UNL     1       2.468 -29.219   2.668  0.00  0.00    +0.013 A 
ATOM      3  C   UNL     1       3.551 -29.604   1.773  0.00  0.00    +0.019 A 
ATOM     38  C   UNL     1       4.829 -29.974   2.362  0.00  0.00    +0.120 A 
ATOM     39  N   UNL     1       4.988 -29.951   3.744  0.00  0.00    -0.263 NA
ATOM     40  C   UNL     1       3.953 -29.580   4.616  0.00  0.00    +0.111 A 
ENDBRANCH   4   3
ENDBRANCH  10   9
BRANCH  12  13
ATOM     13  N   UNL     1       0.331 -32.148  -6.214  0.00  0.00    -0.281 N 
ATOM     14  C   UNL     1      -0.807 -32.935  -6.285  0.00  0.00    +0.248 C 
ATOM     30  O   UNL     1      -0.853 -34.113  -5.962  0.00  0.00    -0.270 OA
ATOM     31  H   UNL     1       0.284 -31.248  -6.693  0.00  0.00    +0.155 HD
BRANCH  14  15
ATOM     15  C   UNL     1      -2.072 -32.331  -6.802  0.00  0.00    +0.037 A 
ATOM     16  C   UNL     1      -2.320 -32.200  -8.240  0.00  0.00    +0.013 A 
ATOM     17  C   UNL     1      -3.541 -31.597  -8.712  0.00  0.00    +0.005 A 
ATOM     18  C   UNL     1      -4.526 -31.122  -7.743  0.00  0.00    -0.033 A 
ATOM     28  C   UNL     1      -4.258 -31.269  -6.322  0.00  0.00    +0.005 A 
ATOM     29  C   UNL     1      -3.061 -31.858  -5.856  0.00  0.00    +0.013 A 
BRANCH  18  19
ATOM     19  C   UNL     1      -5.848 -30.448  -8.156  0.00  0.00    +0.119 C 
BRANCH  19  20
ATOM     20  N   UNL     1      -6.903 -30.312  -7.108  0.00  0.00    -0.302 NA
ATOM     21  C   UNL     1      -8.246 -30.885  -7.567  0.00  0.00    +0.066 C 
ATOM     22  C   UNL     1      -9.333 -30.755  -6.450  0.00  0.00    -0.064 C 
ATOM     23  N   UNL     1      -9.479 -29.285  -6.053  0.00  0.00    +0.379 N 
ATOM     24  C   UNL     1     -10.540 -29.151  -5.045  0.00  0.00    -0.096 C 
ATOM     25  H   UNL     1      -9.800 -28.721  -6.960  0.00  0.00    -0.082 HD
ATOM     26  C   UNL     1      -8.147 -28.705  -5.598  0.00  0.00    -0.064 C 
ATOM     27  C   UNL     1      -7.067 -28.867  -6.704  0.00  0.00    +0.066 C 
ENDBRANCH  19  20
ENDBRANCH  18  19
ENDBRANCH  14  15
ENDBRANCH  12  13
TORSDOF 6
ENDMDL
MODEL 5
REMARK VINA RESULT:      -7.6     26.238     32.230
REMARK  Name = C:\Users\Docking\Desktop\test protocol\1iep_ligandH.pdb
REMARK  8 active torsions:
REMARK  status: ('A' for Active; 'I' for Inactive)
REMARK    1  A    between atoms: _5  and  _11
REMARK    2  A    between atoms: _19  and  _21
REMARK    3  A    between atoms: _22  and  _66
REMARK    4  A    between atoms: _27  and  _30
REMARK    5  A    between atoms: _32  and  _33
REMARK    6  A    between atoms: _38  and  _43
REMARK    7  A    between atoms: _43  and  _46
REMARK    8  A    between atoms: _53  and  _55
REMARK                            x       y       z     vdW  Elec       q    Type
REMARK                         _______ _______ _______ _____ _____    ______ ____
ROOT
ATOM     10  C   UNL     1       0.737 -32.414  -4.154  0.00  0.00    +0.038 A 
ATOM     11  C   UNL     1       1.213 -31.952  -2.901  0.00  0.00    +0.047 A 
ATOM     12  C   UNL     1       2.585 -32.194  -2.481  0.00  0.00    +0.035 A 
ATOM     32  C   UNL     1       3.446 -32.907  -3.366  0.00  0.00    +0.024 A 
ATOM     33  C   UNL     1       2.978 -33.384  -4.643  0.00  0.00    +0.007 A 
ATOM     34  C   UNL     1       1.625 -33.151  -5.061  0.00  0.00    -0.029 A 
ATOM     35  C   UNL     1       1.177 -33.692  -6.439  0.00  0.00    +0.045 C 
ENDROOT
BRANCH  10   9
ATOM      4  C   UNL     1      -2.641 -29.697  -6.214  0.00  0.00    +0.077 A 
ATOM      5  C   UNL     1      -1.687 -28.697  -6.598  0.00  0.00    +0.048 A 
ATOM      6  C   UNL     1      -0.338 -28.917  -6.240  0.00  0.00    +0.116 A 
ATOM      7  N   UNL     1       0.019 -30.055  -5.550  0.00  0.00    -0.223 NA
ATOM      8  C   UNL     1      -0.927 -30.999  -5.193  0.00  0.00    +0.220 A 
ATOM      9  N   UNL     1      -0.590 -32.154  -4.506  0.00  0.00    -0.283 N 
ATOM     36  H   UNL     1      -1.318 -32.822  -4.255  0.00  0.00    +0.155 HD
ATOM     37  N   UNL     1      -2.222 -30.811  -5.522  0.00  0.00    -0.214 NA
BRANCH   4   3
ATOM      1  C   UNL     1      -6.378 -30.640  -6.884  0.00  0.00    +0.020 A 
ATOM      2  C   UNL     1      -4.972 -30.779  -6.582  0.00  0.00    +0.013 A 
ATOM      3  C   UNL     1      -4.104 -29.610  -6.522  0.00  0.00    +0.019 A 
ATOM     38  C   UNL     1      -4.695 -28.304  -6.773  0.00  0.00    +0.120 A 
ATOM     39  N   UNL     1      -6.052 -28.201  -7.063  0.00  0.00    -0.263 NA
ATOM     40  C   UNL     1      -6.896 -29.319  -7.125  0.00  0.00    +0.111 A 
ENDBRANCH   4   3
ENDBRANCH  10   9
BRANCH  12  13
ATOM     13  N   UNL     1       3.122 -31.756  -1.217  0.00  0.00    -0.281 N 
ATOM     14  C   UNL     1       3.487 -30.473  -0.845  0.00  0.00    +0.248 C 
ATOM     30  O   UNL     1       3.608 -29.536  -1.621  0.00  0.00    -0.270 OA
ATOM     31  H   UNL     1       3.248 -32.481  -0.510  0.00  0.00    +0.155 HD
BRANCH  14  15
ATOM     15  C   UNL     1       3.774 -30.192   0.594  0.00  0.00    +0.037 A 
ATOM     16  C   UNL     1       3.056 -29.142   1.322  0.00  0.00    +0.013 A 
ATOM     17  C   UNL     1       3.365 -28.881   2.705  0.00  0.00    +0.005 A 
ATOM     18  C   UNL     1       4.396 -29.672   3.371  0.00  0.00    -0.033 A 
ATOM     28  C   UNL     1       5.089 -30.711   2.627  0.00  0.00    +0.005 A 
ATOM     29  C   UNL     1       4.791 -30.970   1.271  0.00  0.00    +0.013 A 
BRANCH  18  19
ATOM     19  C   UNL     1       4.805 -29.448   4.839  0.00  0.00    +0.119 C 
BRANCH  19  20
ATOM     20  N   UNL     1       6.159 -29.925   5.252  0.00  0.00    -0.302 NA
ATOM     21  C   UNL     1       6.340 -29.894   6.773  0.00  0.00    +0.066 C 
ATOM     22  C   UNL     1       7.753 -30.417   7.189  0.00  0.00    -0.064 C 
ATOM     23  N   UNL     1       8.828 -29.577   6.498  0.00  0.00    +0.379 N 
ATOM     24  C   UNL     1      10.158 -30.029   6.932  0.00  0.00    -0.096 C 
ATOM     25  H   UNL     1       8.702 -28.522   6.836  0.00  0.00    -0.082 HD
ATOM     26  C   UNL     1       8.654 -29.600   4.986  0.00  0.00    -0.064 C 
ATOM     27  C   UNL     1       7.236 -29.106   4.585  0.00  0.00    +0.066 C 
ENDBRANCH  19  20
ENDBRANCH  18  19
ENDBRANCH  14  15
ENDBRANCH  12  13
TORSDOF 6
ENDMDL
