MODEL 1
REMARK VINA RESULT:      -7.5      0.000      0.000
REMARK  Name = C:\Users\Docking\Desktop\test protocol\1iep_ligandH.pdb
REMARK  8 active torsions:
REMARK  status: ('A' for Active; 'I' for Inactive)
REMARK    1  A    between atoms: _5  and  _11
REMARK    2  A    between atoms: _19  and  _21
REMARK    3  A    between atoms: _22  and  _66
REMARK    4  A    between atoms: _27  and  _30
REMARK    5  A    between atoms: _32  and  _33
REMARK    6  A    between atoms: _38  and  _43
REMARK    7  A    between atoms: _43  and  _46
REMARK    8  A    between atoms: _53  and  _55
REMARK                            x       y       z     vdW  Elec       q    Type
REMARK                         _______ _______ _______ _____ _____    ______ ____
ROOT
ATOM     10  C   UNL     1      -8.813  14.705  -3.446  0.00  0.00    +0.038 A 
ATOM     11  C   UNL     1      -8.406  15.951  -2.904  0.00  0.00    +0.047 A 
ATOM     12  C   UNL     1      -9.314  17.087  -2.864  0.00  0.00    +0.035 A 
ATOM     32  C   UNL     1     -10.630  16.918  -3.384  0.00  0.00    +0.024 A 
ATOM     33  C   UNL     1     -11.060  15.659  -3.939  0.00  0.00    +0.007 A 
ATOM     34  C   UNL     1     -10.168  14.535  -3.983  0.00  0.00    -0.029 A 
ATOM     35  C   UNL     1     -10.681  13.211  -4.596  0.00  0.00    +0.045 C 
ENDROOT
BRANCH  10   9
ATOM      4  C   UNL     1      -5.099  12.341  -5.358  0.00  0.00    +0.077 A 
ATOM      5  C   UNL     1      -4.984  13.277  -6.440  0.00  0.00    +0.048 A 
ATOM      6  C   UNL     1      -5.905  14.349  -6.471  0.00  0.00    +0.116 A 
ATOM      7  N   UNL     1      -6.864  14.466  -5.489  0.00  0.00    -0.223 NA
ATOM      8  C   UNL     1      -6.949  13.545  -4.461  0.00  0.00    +0.220 A 
ATOM      9  N   UNL     1      -7.900  13.648  -3.458  0.00  0.00    -0.283 N 
ATOM     36  H   UNL     1      -7.935  12.943  -2.721  0.00  0.00    +0.155 HD
ATOM     37  N   UNL     1      -6.082  12.512  -4.409  0.00  0.00    -0.214 NA
BRANCH   4   3
ATOM      1  C   UNL     1      -3.436   8.824  -5.766  0.00  0.00    +0.020 A 
ATOM      2  C   UNL     1      -4.333   9.938  -5.972  0.00  0.00    +0.013 A 
ATOM      3  C   UNL     1      -4.198  11.158  -5.186  0.00  0.00    +0.019 A 
ATOM     38  C   UNL     1      -3.136  11.219  -4.193  0.00  0.00    +0.120 A 
ATOM     39  N   UNL     1      -2.289  10.130  -4.016  0.00  0.00    -0.263 NA
ATOM     40  C   UNL     1      -2.410   8.951  -4.765  0.00  0.00    +0.111 A 
ENDBRANCH   4   3
ENDBRANCH  10   9
BRANCH  12  13
ATOM     13  N   UNL     1      -8.954  18.378  -2.333  0.00  0.00    -0.281 N 
ATOM     14  C   UNL     1      -9.277  18.910  -1.096  0.00  0.00    +0.248 C 
ATOM     30  O   UNL     1     -10.110  18.438  -0.337  0.00  0.00    -0.270 OA
ATOM     31  H   UNL     1      -8.393  18.972  -2.944  0.00  0.00    +0.155 HD
BRANCH  14  15
ATOM     15  C   UNL     1      -8.586  20.156  -0.643  0.00  0.00    +0.037 A 
ATOM     16  C   UNL     1      -9.328  21.400  -0.425  0.00  0.00    +0.013 A 
ATOM     17  C   UNL     1      -8.635  22.592  -0.004  0.00  0.00    +0.005 A 
ATOM     18  C   UNL     1      -7.189  22.543   0.203  0.00  0.00    -0.033 A 
ATOM     28  C   UNL     1      -6.479  21.294  -0.015  0.00  0.00    +0.005 A 
ATOM     29  C   UNL     1      -7.155  20.125  -0.428  0.00  0.00    +0.013 A 
BRANCH  18  19
ATOM     19  C   UNL     1      -6.364  23.771   0.632  0.00  0.00    +0.119 C 
BRANCH  19  20
ATOM     20  N   UNL     1      -4.958  23.530   1.072  0.00  0.00    -0.302 NA
ATOM     21  C   UNL     1      -4.511  24.532   2.141  0.00  0.00    +0.066 C 
ATOM     22  C   UNL     1      -3.045  24.251   2.606  0.00  0.00    -0.064 C 
ATOM     23  N   UNL     1      -2.111  24.298   1.396  0.00  0.00    +0.379 N 
ATOM     24  C   UNL     1      -0.724  24.092   1.838  0.00  0.00    -0.096 C 
ATOM     25  H   UNL     1      -2.177  25.320   0.956  0.00  0.00    -0.082 HD
ATOM     26  C   UNL     1      -2.550  23.307   0.327  0.00  0.00    -0.064 C 
ATOM     27  C   UNL     1      -4.017  23.576  -0.107  0.00  0.00    +0.066 C 
ENDBRANCH  19  20
ENDBRANCH  18  19
ENDBRANCH  14  15
ENDBRANCH  12  13
TORSDOF 6
ENDMDL
MODEL 2
REMARK VINA RESULT:      -7.5     14.077     18.129
REMARK  Name = C:\Users\Docking\Desktop\test protocol\1iep_ligandH.pdb
REMARK  8 active torsions:
REMARK  status: ('A' for Active; 'I' for Inactive)
REMARK    1  A    between atoms: _5  and  _11
REMARK    2  A    between atoms: _19  and  _21
REMARK    3  A    between atoms: _22  and  _66
REMARK    4  A    between atoms: _27  and  _30
REMARK    5  A    between atoms: _32  and  _33
REMARK    6  A    between atoms: _38  and  _43
REMARK    7  A    between atoms: _43  and  _46
REMARK    8  A    between atoms: _53  and  _55
REMARK                            x       y       z     vdW  Elec       q    Type
REMARK                         _______ _______ _______ _____ _____    ______ ____
ROOT
ATOM     10  C   UNL     1       3.067  32.406   3.586  0.00  0.00    +0.038 A 
ATOM     11  C   UNL     1       1.822  32.057   4.168  0.00  0.00    +0.047 A 
ATOM     12  C   UNL     1       1.582  32.229   5.593  0.00  0.00    +0.035 A 
ATOM     32  C   UNL     1       2.633  32.761   6.395  0.00  0.00    +0.024 A 
ATOM     33  C   UNL     1       3.906  33.120   5.821  0.00  0.00    +0.007 A 
ATOM     34  C   UNL     1       4.149  32.950   4.416  0.00  0.00    -0.029 A 
ATOM     35  C   UNL     1       5.535  33.345   3.856  0.00  0.00    +0.045 C 
ENDROOT
BRANCH  10   9
ATOM      4  C   UNL     1       3.547  29.600  -0.278  0.00  0.00    +0.077 A 
ATOM      5  C   UNL     1       3.468  28.403   0.508  0.00  0.00    +0.048 A 
ATOM      6  C   UNL     1       3.311  28.553   1.904  0.00  0.00    +0.116 A 
ATOM      7  N   UNL     1       3.239  29.811   2.462  0.00  0.00    -0.223 NA
ATOM      8  C   UNL     1       3.321  30.945   1.675  0.00  0.00    +0.220 A 
ATOM      9  N   UNL     1       3.243  32.220   2.213  0.00  0.00    -0.283 N 
ATOM     36  H   UNL     1       3.315  33.032   1.600  0.00  0.00    +0.155 HD
ATOM     37  N   UNL     1       3.472  30.829   0.339  0.00  0.00    -0.214 NA
BRANCH   4   3
ATOM      1  C   UNL     1       2.829  29.318  -4.113  0.00  0.00    +0.020 A 
ATOM      2  C   UNL     1       2.620  29.298  -2.684  0.00  0.00    +0.013 A 
ATOM      3  C   UNL     1       3.710  29.606  -1.766  0.00  0.00    +0.019 A 
ATOM     38  C   UNL     1       5.009  29.934  -2.332  0.00  0.00    +0.120 A 
ATOM     39  N   UNL     1       5.182  29.944  -3.713  0.00  0.00    -0.263 NA
ATOM     40  C   UNL     1       4.141  29.648  -4.605  0.00  0.00    +0.111 A 
ENDBRANCH   4   3
ENDBRANCH  10   9
BRANCH  12  13
ATOM     13  N   UNL     1       0.341  31.886   6.240  0.00  0.00    -0.281 N 
ATOM     14  C   UNL     1      -0.715  32.724   6.558  0.00  0.00    +0.248 C 
ATOM     30  O   UNL     1      -0.662  33.945   6.524  0.00  0.00    -0.270 OA
ATOM     31  H   UNL     1       0.226  30.905   6.496  0.00  0.00    +0.155 HD
BRANCH  14  15
ATOM     15  C   UNL     1      -2.013  32.121   6.989  0.00  0.00    +0.037 A 
ATOM     16  C   UNL     1      -2.371  32.020   8.406  0.00  0.00    +0.013 A 
ATOM     17  C   UNL     1      -3.621  31.418   8.795  0.00  0.00    +0.005 A 
ATOM     18  C   UNL     1      -4.524  30.913   7.764  0.00  0.00    -0.033 A 
ATOM     28  C   UNL     1      -4.147  31.030   6.365  0.00  0.00    +0.005 A 
ATOM     29  C   UNL     1      -2.921  31.619   5.980  0.00  0.00    +0.013 A 
BRANCH  18  19
ATOM     19  C   UNL     1      -5.869  30.236   8.088  0.00  0.00    +0.119 C 
BRANCH  19  20
ATOM     20  N   UNL     1      -6.432  29.306   7.064  0.00  0.00    -0.302 NA
ATOM     21  C   UNL     1      -7.798  29.772   6.553  0.00  0.00    +0.066 C 
ATOM     22  C   UNL     1      -8.361  28.799   5.466  0.00  0.00    -0.064 C 
ATOM     23  N   UNL     1      -8.453  27.387   6.047  0.00  0.00    +0.379 N 
ATOM     24  C   UNL     1      -9.036  26.482   5.047  0.00  0.00    -0.096 C 
ATOM     25  H   UNL     1      -9.149  27.425   6.917  0.00  0.00    -0.082 HD
ATOM     26  C   UNL     1      -7.099  26.917   6.560  0.00  0.00    -0.064 C 
ATOM     27  C   UNL     1      -6.535  27.906   7.618  0.00  0.00    +0.066 C 
ENDBRANCH  19  20
ENDBRANCH  18  19
ENDBRANCH  14  15
ENDBRANCH  12  13
TORSDOF 6
ENDMDL
MODEL 3
REMARK VINA RESULT:      -7.4      8.097     15.363
REMARK  Name = C:\Users\Docking\Desktop\test protocol\1iep_ligandH.pdb
REMARK  8 active torsions:
REMARK  status: ('A' for Active; 'I' for Inactive)
REMARK    1  A    between atoms: _5  and  _11
REMARK    2  A    between atoms: _19  and  _21
REMARK    3  A    between atoms: _22  and  _66
REMARK    4  A    between atoms: _27  and  _30
REMARK    5  A    between atoms: _32  and  _33
REMARK    6  A    between atoms: _38  and  _43
REMARK    7  A    between atoms: _43  and  _46
REMARK    8  A    between atoms: _53  and  _55
REMARK                            x       y       z     vdW  Elec       q    Type
REMARK                         _______ _______ _______ _____ _____    ______ ____
ROOT
ATOM     10  C   UNL     1      -5.962  11.622  -6.391  0.00  0.00    +0.038 A 
ATOM     11  C   UNL     1      -5.285  10.376  -6.391  0.00  0.00    +0.047 A 
ATOM     12  C   UNL     1      -3.869  10.287  -6.071  0.00  0.00    +0.035 A 
ATOM     32  C   UNL     1      -3.173  11.489  -5.751  0.00  0.00    +0.024 A 
ATOM     33  C   UNL     1      -3.844  12.765  -5.747  0.00  0.00    +0.007 A 
ATOM     34  C   UNL     1      -5.240  12.859  -6.065  0.00  0.00    -0.029 A 
ATOM     35  C   UNL     1      -5.907  14.254  -6.051  0.00  0.00    +0.045 C 
ENDROOT
BRANCH  10   9
ATOM      4  C   UNL     1     -10.557  10.660  -5.394  0.00  0.00    +0.077 A 
ATOM      5  C   UNL     1     -10.217  10.028  -4.152  0.00  0.00    +0.048 A 
ATOM      6  C   UNL     1      -8.847   9.964  -3.810  0.00  0.00    +0.116 A 
ATOM      7  N   UNL     1      -7.898  10.497  -4.654  0.00  0.00    -0.223 NA
ATOM      8  C   UNL     1      -8.260  11.099  -5.845  0.00  0.00    +0.220 A 
ATOM      9  N   UNL     1      -7.322  11.649  -6.706  0.00  0.00    -0.283 N 
ATOM     36  H   UNL     1      -7.629  12.078  -7.579  0.00  0.00    +0.155 HD
ATOM     37  N   UNL     1      -9.561  11.171  -6.195  0.00  0.00    -0.214 NA
BRANCH   4   3
ATOM      1  C   UNL     1     -13.693  10.822  -7.727  0.00  0.00    +0.020 A 
ATOM      2  C   UNL     1     -12.321  10.670  -7.298  0.00  0.00    +0.013 A 
ATOM      3  C   UNL     1     -11.961  10.808  -5.892  0.00  0.00    +0.019 A 
ATOM     38  C   UNL     1     -13.020  11.102  -4.939  0.00  0.00    +0.120 A 
ATOM     39  N   UNL     1     -14.332  11.244  -5.381  0.00  0.00    -0.263 NA
ATOM     40  C   UNL     1     -14.690  11.115  -6.731  0.00  0.00    +0.111 A 
ENDBRANCH   4   3
ENDBRANCH  10   9
BRANCH  12  13
ATOM     13  N   UNL     1      -3.128   9.051  -6.063  0.00  0.00    -0.281 N 
ATOM     14  C   UNL     1      -3.259   7.984  -5.188  0.00  0.00    +0.248 C 
ATOM     30  O   UNL     1      -3.891   8.022  -4.143  0.00  0.00    -0.270 OA
ATOM     31  H   UNL     1      -2.420   8.949  -6.791  0.00  0.00    +0.155 HD
BRANCH  14  15
ATOM     15  C   UNL     1      -2.578   6.695  -5.515  0.00  0.00    +0.037 A 
ATOM     16  C   UNL     1      -1.281   6.672  -6.197  0.00  0.00    +0.013 A 
ATOM     17  C   UNL     1      -0.654   5.414  -6.515  0.00  0.00    +0.005 A 
ATOM     18  C   UNL     1      -1.322   4.167  -6.149  0.00  0.00    -0.033 A 
ATOM     28  C   UNL     1      -2.606   4.219  -5.468  0.00  0.00    +0.005 A 
ATOM     29  C   UNL     1      -3.224   5.450  -5.156  0.00  0.00    +0.013 A 
BRANCH  18  19
ATOM     19  C   UNL     1      -0.736   2.779  -6.468  0.00  0.00    +0.119 C 
BRANCH  19  20
ATOM     20  N   UNL     1      -1.498   1.918  -7.421  0.00  0.00    -0.302 NA
ATOM     21  C   UNL     1      -1.375   0.431  -7.076  0.00  0.00    +0.066 C 
ATOM     22  C   UNL     1      -2.197  -0.454  -8.069  0.00  0.00    -0.064 C 
ATOM     23  N   UNL     1      -1.720  -0.188  -9.498  0.00  0.00    +0.379 N 
ATOM     24  C   UNL     1      -2.451  -1.061 -10.429  0.00  0.00    -0.096 C 
ATOM     25  H   UNL     1      -0.641  -0.464  -9.552  0.00  0.00    -0.082 HD
ATOM     26  C   UNL     1      -1.837   1.288  -9.849  0.00  0.00    -0.064 C 
ATOM     27  C   UNL     1      -1.041   2.161  -8.838  0.00  0.00    +0.066 C 
ENDBRANCH  19  20
ENDBRANCH  18  19
ENDBRANCH  14  15
ENDBRANCH  12  13
TORSDOF 6
ENDMDL
MODEL 4
REMARK VINA RESULT:      -7.4      2.270     11.851
REMARK  Name = C:\Users\Docking\Desktop\test protocol\1iep_ligandH.pdb
REMARK  8 active torsions:
REMARK  status: ('A' for Active; 'I' for Inactive)
REMARK    1  A    between atoms: _5  and  _11
REMARK    2  A    between atoms: _19  and  _21
REMARK    3  A    between atoms: _22  and  _66
REMARK    4  A    between atoms: _27  and  _30
REMARK    5  A    between atoms: _32  and  _33
REMARK    6  A    between atoms: _38  and  _43
REMARK    7  A    between atoms: _43  and  _46
REMARK    8  A    between atoms: _53  and  _55
REMARK                            x       y       z     vdW  Elec       q    Type
REMARK                         _______ _______ _______ _____ _____    ______ ____
ROOT
ATOM     10  C   UNL     1      -9.574  17.192  -3.227  0.00  0.00    +0.038 A 
ATOM     11  C   UNL     1      -8.700  16.171  -3.681  0.00  0.00    +0.047 A 
ATOM     12  C   UNL     1      -9.212  14.877  -4.104  0.00  0.00    +0.035 A 
ATOM     32  C   UNL     1     -10.619  14.658  -4.055  0.00  0.00    +0.024 A 
ATOM     33  C   UNL     1     -11.521  15.684  -3.595  0.00  0.00    +0.007 A 
ATOM     34  C   UNL     1     -11.022  16.962  -3.173  0.00  0.00    -0.029 A 
ATOM     35  C   UNL     1     -12.035  18.023  -2.683  0.00  0.00    +0.045 C 
ENDROOT
BRANCH  10   9
ATOM      4  C   UNL     1      -7.366  20.008  -0.027  0.00  0.00    +0.077 A 
ATOM      5  C   UNL     1      -7.319  18.959   0.951  0.00  0.00    +0.048 A 
ATOM      6  C   UNL     1      -7.881  17.713   0.594  0.00  0.00    +0.116 A 
ATOM      7  N   UNL     1      -8.444  17.539  -0.651  0.00  0.00    -0.223 NA
ATOM      8  C   UNL     1      -8.474  18.571  -1.571  0.00  0.00    +0.220 A 
ATOM      9  N   UNL     1      -9.028  18.416  -2.832  0.00  0.00    -0.283 N 
ATOM     36  H   UNL     1      -9.038  19.204  -3.479  0.00  0.00    +0.155 HD
ATOM     37  N   UNL     1      -7.946  19.771  -1.253  0.00  0.00    -0.214 NA
BRANCH   4   3
ATOM      1  C   UNL     1      -5.192  23.248  -0.299  0.00  0.00    +0.020 A 
ATOM      2  C   UNL     1      -5.689  21.916  -0.558  0.00  0.00    +0.013 A 
ATOM      3  C   UNL     1      -6.812  21.380   0.200  0.00  0.00    +0.019 A 
ATOM     38  C   UNL     1      -7.416  22.224   1.220  0.00  0.00    +0.120 A 
ATOM     39  N   UNL     1      -6.916  23.502   1.448  0.00  0.00    -0.263 NA
ATOM     40  C   UNL     1      -5.834  24.028   0.726  0.00  0.00    +0.111 A 
ENDBRANCH   4   3
ENDBRANCH  10   9
BRANCH  12  13
ATOM     13  N   UNL     1      -8.373  13.799  -4.567  0.00  0.00    -0.281 N 
ATOM     14  C   UNL     1      -7.536  13.786  -5.671  0.00  0.00    +0.248 C 
ATOM     30  O   UNL     1      -7.544  14.629  -6.555  0.00  0.00    -0.270 OA
ATOM     31  H   UNL     1      -8.399  12.943  -4.014  0.00  0.00    +0.155 HD
BRANCH  14  15
ATOM     15  C   UNL     1      -6.559  12.665  -5.823  0.00  0.00    +0.037 A 
ATOM     16  C   UNL     1      -6.984  11.267  -5.716  0.00  0.00    +0.013 A 
ATOM     17  C   UNL     1      -6.018  10.205  -5.849  0.00  0.00    +0.005 A 
ATOM     18  C   UNL     1      -4.616  10.538  -6.092  0.00  0.00    -0.033 A 
ATOM     28  C   UNL     1      -4.223  11.934  -6.199  0.00  0.00    +0.005 A 
ATOM     29  C   UNL     1      -5.167  12.977  -6.068  0.00  0.00    +0.013 A 
BRANCH  18  19
ATOM     19  C   UNL     1      -3.514   9.471  -6.226  0.00  0.00    +0.119 C 
BRANCH  19  20
ATOM     20  N   UNL     1      -3.650   8.239  -5.394  0.00  0.00    -0.302 NA
ATOM     21  C   UNL     1      -3.347   8.507  -3.917  0.00  0.00    +0.066 C 
ATOM     22  C   UNL     1      -3.516   7.212  -3.057  0.00  0.00    -0.064 C 
ATOM     23  N   UNL     1      -2.603   6.115  -3.607  0.00  0.00    +0.379 N 
ATOM     24  C   UNL     1      -2.717   4.915  -2.765  0.00  0.00    -0.096 C 
ATOM     25  H   UNL     1      -1.553   6.481  -3.534  0.00  0.00    -0.082 HD
ATOM     26  C   UNL     1      -2.896   5.844  -5.076  0.00  0.00    -0.064 C 
ATOM     27  C   UNL     1      -2.754   7.143  -5.917  0.00  0.00    +0.066 C 
ENDBRANCH  19  20
ENDBRANCH  18  19
ENDBRANCH  14  15
ENDBRANCH  12  13
TORSDOF 6
ENDMDL
MODEL 5
REMARK VINA RESULT:      -7.3      7.903     15.235
REMARK  Name = C:\Users\Docking\Desktop\test protocol\1iep_ligandH.pdb
REMARK  8 active torsions:
REMARK  status: ('A' for Active; 'I' for Inactive)
REMARK    1  A    between atoms: _5  and  _11
REMARK    2  A    between atoms: _19  and  _21
REMARK    3  A    between atoms: _22  and  _66
REMARK    4  A    between atoms: _27  and  _30
REMARK    5  A    between atoms: _32  and  _33
REMARK    6  A    between atoms: _38  and  _43
REMARK    7  A    between atoms: _43  and  _46
REMARK    8  A    between atoms: _53  and  _55
REMARK                            x       y       z     vdW  Elec       q    Type
REMARK                         _______ _______ _______ _____ _____    ______ ____
ROOT
ATOM     10  C   UNL     1      -6.184  11.597  -5.496  0.00  0.00    +0.038 A 
ATOM     11  C   UNL     1      -5.481  10.368  -5.581  0.00  0.00    +0.047 A 
ATOM     12  C   UNL     1      -4.128  10.310  -6.110  0.00  0.00    +0.035 A 
ATOM     32  C   UNL     1      -3.519  11.524  -6.542  0.00  0.00    +0.024 A 
ATOM     33  C   UNL     1      -4.219  12.782  -6.464  0.00  0.00    +0.007 A 
ATOM     34  C   UNL     1      -5.555  12.845  -5.945  0.00  0.00    -0.029 A 
ATOM     35  C   UNL     1      -6.260  14.220  -5.891  0.00  0.00    +0.045 C 
ENDROOT
BRANCH  10   9
ATOM      4  C   UNL     1     -10.953  11.534  -6.032  0.00  0.00    +0.077 A 
ATOM      5  C   UNL     1     -10.852  11.533  -7.463  0.00  0.00    +0.048 A 
ATOM      6  C   UNL     1      -9.554  11.556  -8.021  0.00  0.00    +0.116 A 
ATOM      7  N   UNL     1      -8.447  11.578  -7.200  0.00  0.00    -0.223 NA
ATOM      8  C   UNL     1      -8.581  11.580  -5.824  0.00  0.00    +0.220 A 
ATOM      9  N   UNL     1      -7.482  11.594  -4.979  0.00  0.00    -0.283 N 
ATOM     36  H   UNL     1      -7.622  11.603  -3.969  0.00  0.00    +0.155 HD
ATOM     37  N   UNL     1      -9.809  11.560  -5.266  0.00  0.00    -0.214 NA
BRANCH   4   3
ATOM      1  C   UNL     1     -13.689  11.985  -3.273  0.00  0.00    +0.020 A 
ATOM      2  C   UNL     1     -12.410  12.034  -3.942  0.00  0.00    +0.013 A 
ATOM      3  C   UNL     1     -12.255  11.508  -5.293  0.00  0.00    +0.019 A 
ATOM     38  C   UNL     1     -13.424  10.935  -5.943  0.00  0.00    +0.120 A 
ATOM     39  N   UNL     1     -14.642  10.899  -5.273  0.00  0.00    -0.263 NA
ATOM     40  C   UNL     1     -14.803  11.401  -3.973  0.00  0.00    +0.111 A 
ENDBRANCH   4   3
ENDBRANCH  10   9
BRANCH  12  13
ATOM     13  N   UNL     1      -3.368   9.090  -6.228  0.00  0.00    -0.281 N 
ATOM     14  C   UNL     1      -2.696   8.405  -5.228  0.00  0.00    +0.248 C 
ATOM     30  O   UNL     1      -2.468   8.855  -4.115  0.00  0.00    -0.270 OA
ATOM     31  H   UNL     1      -3.319   8.682  -7.161  0.00  0.00    +0.155 HD
BRANCH  14  15
ATOM     15  C   UNL     1      -2.193   7.026  -5.510  0.00  0.00    +0.037 A 
ATOM     16  C   UNL     1      -0.862   6.806  -6.082  0.00  0.00    +0.013 A 
ATOM     17  C   UNL     1      -0.407   5.466  -6.360  0.00  0.00    +0.005 A 
ATOM     18  C   UNL     1      -1.285   4.336  -6.066  0.00  0.00    -0.033 A 
ATOM     28  C   UNL     1      -2.598   4.584  -5.494  0.00  0.00    +0.005 A 
ATOM     29  C   UNL     1      -3.048   5.895  -5.221  0.00  0.00    +0.013 A 
BRANCH  18  19
ATOM     19  C   UNL     1      -0.891   2.875  -6.350  0.00  0.00    +0.119 C 
BRANCH  19  20
ATOM     20  N   UNL     1      -1.638   2.163  -7.429  0.00  0.00    -0.302 NA
ATOM     21  C   UNL     1      -1.887   0.692  -7.081  0.00  0.00    +0.066 C 
ATOM     22  C   UNL     1      -2.689  -0.032  -8.211  0.00  0.00    -0.064 C 
ATOM     23  N   UNL     1      -1.928   0.091  -9.532  0.00  0.00    +0.379 N 
ATOM     24  C   UNL     1      -2.651  -0.638 -10.585  0.00  0.00    -0.096 C 
ATOM     25  H   UNL     1      -0.937  -0.402  -9.399  0.00  0.00    -0.082 HD
ATOM     26  C   UNL     1      -1.674   1.550  -9.884  0.00  0.00    -0.064 C 
ATOM     27  C   UNL     1      -0.902   2.268  -8.742  0.00  0.00    +0.066 C 
ENDBRANCH  19  20
ENDBRANCH  18  19
ENDBRANCH  14  15
ENDBRANCH  12  13
TORSDOF 6
ENDMDL
