MODEL 1
REMARK VINA RESULT:      -9.2      0.000      0.000
REMARK  Name = C:\Users\Docking\Desktop\test protocol\1iep_ligandH.pdb
REMARK  8 active torsions:
REMARK  status: ('A' for Active; 'I' for Inactive)
REMARK    1  A    between atoms: _5  and  _11
REMARK    2  A    between atoms: _19  and  _21
REMARK    3  A    between atoms: _22  and  _66
REMARK    4  A    between atoms: _27  and  _30
REMARK    5  A    between atoms: _32  and  _33
REMARK    6  A    between atoms: _38  and  _43
REMARK    7  A    between atoms: _43  and  _46
REMARK    8  A    between atoms: _53  and  _55
REMARK                            x       y       z     vdW  Elec       q    Type
REMARK                         _______ _______ _______ _____ _____    ______ ____
ROOT
ATOM     10  C   UNL     1       4.540   5.423  20.345  0.00  0.00    +0.038 A 
ATOM     11  C   UNL     1       5.634   5.807  21.162  0.00  0.00    +0.047 A 
ATOM     12  C   UNL     1       5.422   6.358  22.492  0.00  0.00    +0.035 A 
ATOM     32  C   UNL     1       4.083   6.500  22.959  0.00  0.00    +0.024 A 
ATOM     33  C   UNL     1       2.960   6.115  22.140  0.00  0.00    +0.007 A 
ATOM     34  C   UNL     1       3.162   5.574  20.827  0.00  0.00    -0.029 A 
ATOM     35  C   UNL     1       1.921   5.185  19.991  0.00  0.00    +0.045 C 
ENDROOT
BRANCH  10   9
ATOM      4  C   UNL     1       5.325   5.930  15.637  0.00  0.00    +0.077 A 
ATOM      5  C   UNL     1       5.175   7.355  15.705  0.00  0.00    +0.048 A 
ATOM      6  C   UNL     1       4.889   7.917  16.969  0.00  0.00    +0.116 A 
ATOM      7  N   UNL     1       4.765   7.105  18.076  0.00  0.00    -0.223 NA
ATOM      8  C   UNL     1       4.914   5.734  17.975  0.00  0.00    +0.220 A 
ATOM      9  N   UNL     1       4.801   4.900  19.076  0.00  0.00    -0.283 N 
ATOM     36  H   UNL     1       4.911   3.893  18.959  0.00  0.00    +0.155 HD
ATOM     37  N   UNL     1       5.186   5.173  16.779  0.00  0.00    -0.214 NA
BRANCH   4   3
ATOM      1  C   UNL     1       6.227   5.093  11.924  0.00  0.00    +0.020 A 
ATOM      2  C   UNL     1       5.938   5.857  13.115  0.00  0.00    +0.013 A 
ATOM      3  C   UNL     1       5.631   5.187  14.373  0.00  0.00    +0.019 A 
ATOM     38  C   UNL     1       5.625   3.732  14.391  0.00  0.00    +0.120 A 
ATOM     39  N   UNL     1       5.905   3.023  13.227  0.00  0.00    -0.263 NA
ATOM     40  C   UNL     1       6.201   3.657  12.011  0.00  0.00    +0.111 A 
ENDBRANCH   4   3
ENDBRANCH  10   9
BRANCH  12  13
ATOM     13  N   UNL     1       6.492   6.773  23.364  0.00  0.00    -0.281 N 
ATOM     14  C   UNL     1       6.946   8.060  23.602  0.00  0.00    +0.248 C 
ATOM     30  O   UNL     1       6.637   9.036  22.935  0.00  0.00    -0.270 OA
ATOM     31  H   UNL     1       6.975   6.028  23.866  0.00  0.00    +0.155 HD
BRANCH  14  15
ATOM     15  C   UNL     1       7.890   8.295  24.737  0.00  0.00    +0.037 A 
ATOM     16  C   UNL     1       8.534   7.178  25.433  0.00  0.00    +0.013 A 
ATOM     17  C   UNL     1       9.427   7.431  26.536  0.00  0.00    +0.005 A 
ATOM     18  C   UNL     1       9.682   8.809  26.949  0.00  0.00    -0.033 A 
ATOM     28  C   UNL     1       9.034   9.898  26.238  0.00  0.00    +0.005 A 
ATOM     29  C   UNL     1       8.157   9.654  25.157  0.00  0.00    +0.013 A 
BRANCH  18  19
ATOM     19  C   UNL     1      10.604   9.171  28.128  0.00  0.00    +0.119 C 
BRANCH  19  20
ATOM     20  N   UNL     1      11.940   9.751  27.798  0.00  0.00    -0.302 NA
ATOM     21  C   UNL     1      13.034   9.249  28.744  0.00  0.00    +0.066 C 
ATOM     22  C   UNL     1      14.429   9.848  28.371  0.00  0.00    -0.064 C 
ATOM     23  N   UNL     1      14.349  11.375  28.399  0.00  0.00    +0.379 N 
ATOM     24  C   UNL     1      15.673  11.942  28.105  0.00  0.00    -0.096 C 
ATOM     25  H   UNL     1      14.073  11.680  29.435  0.00  0.00    -0.082 HD
ATOM     26  C   UNL     1      13.262  11.883  27.463  0.00  0.00    -0.064 C 
ATOM     27  C   UNL     1      11.885  11.259  27.824  0.00  0.00    +0.066 C 
ENDBRANCH  19  20
ENDBRANCH  18  19
ENDBRANCH  14  15
ENDBRANCH  12  13
TORSDOF 6
ENDMDL
MODEL 2
REMARK VINA RESULT:      -9.1      1.675      2.562
REMARK  Name = C:\Users\Docking\Desktop\test protocol\1iep_ligandH.pdb
REMARK  8 active torsions:
REMARK  status: ('A' for Active; 'I' for Inactive)
REMARK    1  A    between atoms: _5  and  _11
REMARK    2  A    between atoms: _19  and  _21
REMARK    3  A    between atoms: _22  and  _66
REMARK    4  A    between atoms: _27  and  _30
REMARK    5  A    between atoms: _32  and  _33
REMARK    6  A    between atoms: _38  and  _43
REMARK    7  A    between atoms: _43  and  _46
REMARK    8  A    between atoms: _53  and  _55
REMARK                            x       y       z     vdW  Elec       q    Type
REMARK                         _______ _______ _______ _____ _____    ______ ____
ROOT
ATOM     10  C   UNL     1       4.489   5.033  20.625  0.00  0.00    +0.038 A 
ATOM     11  C   UNL     1       5.617   5.456  21.374  0.00  0.00    +0.047 A 
ATOM     12  C   UNL     1       5.463   6.254  22.580  0.00  0.00    +0.035 A 
ATOM     32  C   UNL     1       4.145   6.600  22.997  0.00  0.00    +0.024 A 
ATOM     33  C   UNL     1       2.987   6.179  22.248  0.00  0.00    +0.007 A 
ATOM     34  C   UNL     1       3.133   5.394  21.055  0.00  0.00    -0.029 A 
ATOM     35  C   UNL     1       1.857   4.976  20.288  0.00  0.00    +0.045 C 
ENDROOT
BRANCH  10   9
ATOM      4  C   UNL     1       5.440   4.609  15.939  0.00  0.00    +0.077 A 
ATOM      5  C   UNL     1       5.505   6.032  15.764  0.00  0.00    +0.048 A 
ATOM      6  C   UNL     1       5.280   6.837  16.903  0.00  0.00    +0.116 A 
ATOM      7  N   UNL     1       5.012   6.253  18.122  0.00  0.00    -0.223 NA
ATOM      8  C   UNL     1       4.955   4.878  18.256  0.00  0.00    +0.220 A 
ATOM      9  N   UNL     1       4.696   4.269  19.474  0.00  0.00    -0.283 N 
ATOM     36  H   UNL     1       4.655   3.251  19.531  0.00  0.00    +0.155 HD
ATOM     37  N   UNL     1       5.165   4.087  17.183  0.00  0.00    -0.214 NA
BRANCH   4   3
ATOM      1  C   UNL     1       6.562   1.458  13.912  0.00  0.00    +0.020 A 
ATOM      2  C   UNL     1       6.380   2.373  15.015  0.00  0.00    +0.013 A 
ATOM      3  C   UNL     1       5.657   3.626  14.832  0.00  0.00    +0.019 A 
ATOM     38  C   UNL     1       5.126   3.923  13.510  0.00  0.00    +0.120 A 
ATOM     39  N   UNL     1       5.318   3.023  12.467  0.00  0.00    -0.263 NA
ATOM     40  C   UNL     1       6.014   1.816  12.631  0.00  0.00    +0.111 A 
ENDBRANCH   4   3
ENDBRANCH  10   9
BRANCH  12  13
ATOM     13  N   UNL     1       6.571   6.720  23.377  0.00  0.00    -0.281 N 
ATOM     14  C   UNL     1       6.955   8.029  23.619  0.00  0.00    +0.248 C 
ATOM     30  O   UNL     1       6.528   8.998  23.010  0.00  0.00    -0.270 OA
ATOM     31  H   UNL     1       7.142   5.997  23.815  0.00  0.00    +0.155 HD
BRANCH  14  15
ATOM     15  C   UNL     1       7.971   8.298  24.682  0.00  0.00    +0.037 A 
ATOM     16  C   UNL     1       8.349   9.667  25.042  0.00  0.00    +0.013 A 
ATOM     17  C   UNL     1       9.344   9.899  26.059  0.00  0.00    +0.005 A 
ATOM     18  C   UNL     1       9.967   8.757  26.724  0.00  0.00    -0.033 A 
ATOM     28  C   UNL     1       9.570   7.410  26.351  0.00  0.00    +0.005 A 
ATOM     29  C   UNL     1       8.595   7.179  25.354  0.00  0.00    +0.013 A 
BRANCH  18  19
ATOM     19  C   UNL     1      11.053   8.910  27.805  0.00  0.00    +0.119 C 
BRANCH  19  20
ATOM     20  N   UNL     1      10.699   9.696  29.025  0.00  0.00    -0.302 NA
ATOM     21  C   UNL     1      11.796   9.630  30.090  0.00  0.00    +0.066 C 
ATOM     22  C   UNL     1      11.419  10.476  31.349  0.00  0.00    -0.064 C 
ATOM     23  N   UNL     1      10.086   9.979  31.913  0.00  0.00    +0.379 N 
ATOM     24  C   UNL     1       9.757  10.734  33.131  0.00  0.00    -0.096 C 
ATOM     25  H   UNL     1      10.220   8.911  32.203  0.00  0.00    -0.082 HD
ATOM     26  C   UNL     1       8.990  10.039  30.859  0.00  0.00    -0.064 C 
ATOM     27  C   UNL     1       9.388   9.219  29.600  0.00  0.00    +0.066 C 
ENDBRANCH  19  20
ENDBRANCH  18  19
ENDBRANCH  14  15
ENDBRANCH  12  13
TORSDOF 6
ENDMDL
MODEL 3
REMARK VINA RESULT:      -9.0      1.838      2.503
REMARK  Name = C:\Users\Docking\Desktop\test protocol\1iep_ligandH.pdb
REMARK  8 active torsions:
REMARK  status: ('A' for Active; 'I' for Inactive)
REMARK    1  A    between atoms: _5  and  _11
REMARK    2  A    between atoms: _19  and  _21
REMARK    3  A    between atoms: _22  and  _66
REMARK    4  A    between atoms: _27  and  _30
REMARK    5  A    between atoms: _32  and  _33
REMARK    6  A    between atoms: _38  and  _43
REMARK    7  A    between atoms: _43  and  _46
REMARK    8  A    between atoms: _53  and  _55
REMARK                            x       y       z     vdW  Elec       q    Type
REMARK                         _______ _______ _______ _____ _____    ______ ____
ROOT
ATOM     10  C   UNL     1       4.332   6.101  20.361  0.00  0.00    +0.038 A 
ATOM     11  C   UNL     1       5.414   6.652  21.093  0.00  0.00    +0.047 A 
ATOM     12  C   UNL     1       5.276   6.986  22.502  0.00  0.00    +0.035 A 
ATOM     32  C   UNL     1       4.023   6.742  23.135  0.00  0.00    +0.024 A 
ATOM     33  C   UNL     1       2.912   6.183  22.405  0.00  0.00    +0.007 A 
ATOM     34  C   UNL     1       3.041   5.855  21.015  0.00  0.00    -0.029 A 
ATOM     35  C   UNL     1       1.815   5.264  20.281  0.00  0.00    +0.045 C 
ENDROOT
BRANCH  10   9
ATOM      4  C   UNL     1       4.416   7.329  15.722  0.00  0.00    +0.077 A 
ATOM      5  C   UNL     1       4.027   8.680  16.011  0.00  0.00    +0.048 A 
ATOM      6  C   UNL     1       3.808   9.015  17.366  0.00  0.00    +0.116 A 
ATOM      7  N   UNL     1       3.969   8.064  18.350  0.00  0.00    -0.223 NA
ATOM      8  C   UNL     1       4.344   6.770  18.036  0.00  0.00    +0.220 A 
ATOM      9  N   UNL     1       4.519   5.799  19.010  0.00  0.00    -0.283 N 
ATOM     36  H   UNL     1       4.789   4.855  18.737  0.00  0.00    +0.155 HD
ATOM     37  N   UNL     1       4.557   6.424  16.750  0.00  0.00    -0.214 NA
BRANCH   4   3
ATOM      1  C   UNL     1       6.094   5.593  12.644  0.00  0.00    +0.020 A 
ATOM      2  C   UNL     1       5.880   6.060  13.995  0.00  0.00    +0.013 A 
ATOM      3  C   UNL     1       4.687   6.822  14.339  0.00  0.00    +0.019 A 
ATOM     38  C   UNL     1       3.721   7.096  13.286  0.00  0.00    +0.120 A 
ATOM     39  N   UNL     1       3.954   6.635  11.994  0.00  0.00    -0.263 NA
ATOM     40  C   UNL     1       5.099   5.902  11.651  0.00  0.00    +0.111 A 
ENDBRANCH   4   3
ENDBRANCH  10   9
BRANCH  12  13
ATOM     13  N   UNL     1       6.337   7.556  23.295  0.00  0.00    -0.281 N 
ATOM     14  C   UNL     1       6.225   8.412  24.379  0.00  0.00    +0.248 C 
ATOM     30  O   UNL     1       5.198   8.990  24.699  0.00  0.00    -0.270 OA
ATOM     31  H   UNL     1       7.286   7.296  23.025  0.00  0.00    +0.155 HD
BRANCH  14  15
ATOM     15  C   UNL     1       7.433   8.674  25.219  0.00  0.00    +0.037 A 
ATOM     16  C   UNL     1       7.824  10.039  25.583  0.00  0.00    +0.013 A 
ATOM     17  C   UNL     1       9.003  10.265  26.380  0.00  0.00    +0.005 A 
ATOM     18  C   UNL     1       9.800   9.123  26.821  0.00  0.00    -0.033 A 
ATOM     28  C   UNL     1       9.387   7.780  26.450  0.00  0.00    +0.005 A 
ATOM     29  C   UNL     1       8.232   7.554  25.668  0.00  0.00    +0.013 A 
BRANCH  18  19
ATOM     19  C   UNL     1      11.085   9.272  27.657  0.00  0.00    +0.119 C 
BRANCH  19  20
ATOM     20  N   UNL     1      10.966   9.961  28.977  0.00  0.00    -0.302 NA
ATOM     21  C   UNL     1      12.291   9.966  29.744  0.00  0.00    +0.066 C 
ATOM     22  C   UNL     1      12.154  10.709  31.112  0.00  0.00    -0.064 C 
ATOM     23  N   UNL     1      11.051  10.048  31.941  0.00  0.00    +0.379 N 
ATOM     24  C   UNL     1      10.959  10.708  33.251  0.00  0.00    -0.096 C 
ATOM     25  H   UNL     1      11.350   8.988  32.116  0.00  0.00    -0.082 HD
ATOM     26  C   UNL     1       9.730  10.036  31.184  0.00  0.00    -0.064 C 
ATOM     27  C   UNL     1       9.885   9.321  29.813  0.00  0.00    +0.066 C 
ENDBRANCH  19  20
ENDBRANCH  18  19
ENDBRANCH  14  15
ENDBRANCH  12  13
TORSDOF 6
ENDMDL
MODEL 4
REMARK VINA RESULT:      -8.8      2.483      3.500
REMARK  Name = C:\Users\Docking\Desktop\test protocol\1iep_ligandH.pdb
REMARK  8 active torsions:
REMARK  status: ('A' for Active; 'I' for Inactive)
REMARK    1  A    between atoms: _5  and  _11
REMARK    2  A    between atoms: _19  and  _21
REMARK    3  A    between atoms: _22  and  _66
REMARK    4  A    between atoms: _27  and  _30
REMARK    5  A    between atoms: _32  and  _33
REMARK    6  A    between atoms: _38  and  _43
REMARK    7  A    between atoms: _43  and  _46
REMARK    8  A    between atoms: _53  and  _55
REMARK                            x       y       z     vdW  Elec       q    Type
REMARK                         _______ _______ _______ _____ _____    ______ ____
ROOT
ATOM     10  C   UNL     1       4.660   4.288  18.591  0.00  0.00    +0.038 A 
ATOM     11  C   UNL     1       5.429   5.074  19.487  0.00  0.00    +0.047 A 
ATOM     12  C   UNL     1       4.816   5.719  20.638  0.00  0.00    +0.035 A 
ATOM     32  C   UNL     1       3.418   5.539  20.849  0.00  0.00    +0.024 A 
ATOM     33  C   UNL     1       2.621   4.743  19.948  0.00  0.00    +0.007 A 
ATOM     34  C   UNL     1       3.220   4.107  18.809  0.00  0.00    -0.029 A 
ATOM     35  C   UNL     1       2.316   3.272  17.873  0.00  0.00    +0.045 C 
ENDROOT
BRANCH  10   9
ATOM      4  C   UNL     1       6.055   4.260  13.999  0.00  0.00    +0.077 A 
ATOM      5  C   UNL     1       5.434   5.527  13.741  0.00  0.00    +0.048 A 
ATOM      6  C   UNL     1       4.760   6.150  14.815  0.00  0.00    +0.116 A 
ATOM      7  N   UNL     1       4.716   5.541  16.051  0.00  0.00    -0.223 NA
ATOM      8  C   UNL     1       5.324   4.318  16.265  0.00  0.00    +0.220 A 
ATOM      9  N   UNL     1       5.300   3.692  17.502  0.00  0.00    -0.283 N 
ATOM     36  H   UNL     1       5.754   2.786  17.618  0.00  0.00    +0.155 HD
ATOM     37  N   UNL     1       5.973   3.702  15.255  0.00  0.00    -0.214 NA
BRANCH   4   3
ATOM      1  C   UNL     1       8.495   1.737  12.271  0.00  0.00    +0.020 A 
ATOM      2  C   UNL     1       7.796   2.463  13.306  0.00  0.00    +0.013 A 
ATOM      3  C   UNL     1       6.808   3.479  12.967  0.00  0.00    +0.019 A 
ATOM     38  C   UNL     1       6.547   3.738  11.558  0.00  0.00    +0.120 A 
ATOM     39  N   UNL     1       7.237   3.024  10.583  0.00  0.00    -0.263 NA
ATOM     40  C   UNL     1       8.191   2.045  10.898  0.00  0.00    +0.111 A 
ENDBRANCH   4   3
ENDBRANCH  10   9
BRANCH  12  13
ATOM     13  N   UNL     1       5.544   6.536  21.577  0.00  0.00    -0.281 N 
ATOM     14  C   UNL     1       5.158   6.919  22.851  0.00  0.00    +0.248 C 
ATOM     30  O   UNL     1       4.027   6.793  23.298  0.00  0.00    -0.270 OA
ATOM     31  H   UNL     1       6.455   6.872  21.265  0.00  0.00    +0.155 HD
BRANCH  14  15
ATOM     15  C   UNL     1       6.170   7.546  23.755  0.00  0.00    +0.037 A 
ATOM     16  C   UNL     1       7.301   8.306  23.217  0.00  0.00    +0.013 A 
ATOM     17  C   UNL     1       8.273   8.886  24.110  0.00  0.00    +0.005 A 
ATOM     18  C   UNL     1       8.116   8.709  25.552  0.00  0.00    -0.033 A 
ATOM     28  C   UNL     1       6.981   7.955  26.058  0.00  0.00    +0.005 A 
ATOM     29  C   UNL     1       6.028   7.384  25.186  0.00  0.00    +0.013 A 
BRANCH  18  19
ATOM     19  C   UNL     1       9.115   9.275  26.578  0.00  0.00    +0.119 C 
BRANCH  19  20
ATOM     20  N   UNL     1       8.583   9.632  27.926  0.00  0.00    -0.302 NA
ATOM     21  C   UNL     1       8.147  11.098  28.002  0.00  0.00    +0.066 C 
ATOM     22  C   UNL     1       7.572  11.449  29.413  0.00  0.00    -0.064 C 
ATOM     23  N   UNL     1       8.623  11.140  30.481  0.00  0.00    +0.379 N 
ATOM     24  C   UNL     1       8.106  11.523  31.803  0.00  0.00    -0.096 C 
ATOM     25  H   UNL     1       9.515  11.774  30.270  0.00  0.00    -0.082 HD
ATOM     26  C   UNL     1       9.063   9.685  30.410  0.00  0.00    -0.064 C 
ATOM     27  C   UNL     1       9.606   9.339  28.996  0.00  0.00    +0.066 C 
ENDBRANCH  19  20
ENDBRANCH  18  19
ENDBRANCH  14  15
ENDBRANCH  12  13
TORSDOF 6
ENDMDL
MODEL 5
REMARK VINA RESULT:      -8.5      5.170     13.151
REMARK  Name = C:\Users\Docking\Desktop\test protocol\1iep_ligandH.pdb
REMARK  8 active torsions:
REMARK  status: ('A' for Active; 'I' for Inactive)
REMARK    1  A    between atoms: _5  and  _11
REMARK    2  A    between atoms: _19  and  _21
REMARK    3  A    between atoms: _22  and  _66
REMARK    4  A    between atoms: _27  and  _30
REMARK    5  A    between atoms: _32  and  _33
REMARK    6  A    between atoms: _38  and  _43
REMARK    7  A    between atoms: _43  and  _46
REMARK    8  A    between atoms: _53  and  _55
REMARK                            x       y       z     vdW  Elec       q    Type
REMARK                         _______ _______ _______ _____ _____    ______ ____
ROOT
ATOM     10  C   UNL     1       5.164   6.018  18.082  0.00  0.00    +0.038 A 
ATOM     11  C   UNL     1       5.457   4.722  17.587  0.00  0.00    +0.047 A 
ATOM     12  C   UNL     1       4.844   4.227  16.364  0.00  0.00    +0.035 A 
ATOM     32  C   UNL     1       3.937   5.080  15.670  0.00  0.00    +0.024 A 
ATOM     33  C   UNL     1       3.627   6.400  16.160  0.00  0.00    +0.007 A 
ATOM     34  C   UNL     1       4.227   6.893  17.366  0.00  0.00    -0.029 A 
ATOM     35  C   UNL     1       3.853   8.314  17.849  0.00  0.00    +0.045 C 
ENDROOT
BRANCH  10   9
ATOM      4  C   UNL     1       5.133   6.882  22.803  0.00  0.00    +0.077 A 
ATOM      5  C   UNL     1       3.762   6.479  22.928  0.00  0.00    +0.048 A 
ATOM      6  C   UNL     1       3.098   6.064  21.752  0.00  0.00    +0.116 A 
ATOM      7  N   UNL     1       3.766   6.055  20.547  0.00  0.00    -0.223 NA
ATOM      8  C   UNL     1       5.088   6.451  20.461  0.00  0.00    +0.220 A 
ATOM      9  N   UNL     1       5.782   6.442  19.261  0.00  0.00    -0.283 N 
ATOM     36  H   UNL     1       6.754   6.749  19.238  0.00  0.00    +0.155 HD
ATOM     37  N   UNL     1       5.744   6.854  21.569  0.00  0.00    -0.214 NA
BRANCH   4   3
ATOM      1  C   UNL     1       6.361   8.748  26.015  0.00  0.00    +0.020 A 
ATOM      2  C   UNL     1       5.513   8.337  24.919  0.00  0.00    +0.013 A 
ATOM      3  C   UNL     1       5.970   7.344  23.956  0.00  0.00    +0.019 A 
ATOM     38  C   UNL     1       7.301   6.781  24.131  0.00  0.00    +0.120 A 
ATOM     39  N   UNL     1       8.095   7.197  25.194  0.00  0.00    -0.263 NA
ATOM     40  C   UNL     1       7.667   8.153  26.127  0.00  0.00    +0.111 A 
ENDBRANCH   4   3
ENDBRANCH  10   9
BRANCH  12  13
ATOM     13  N   UNL     1       5.097   2.917  15.817  0.00  0.00    -0.281 N 
ATOM     14  C   UNL     1       5.958   2.576  14.787  0.00  0.00    +0.248 C 
ATOM     30  O   UNL     1       6.485   3.380  14.032  0.00  0.00    -0.270 OA
ATOM     31  H   UNL     1       4.579   2.148  16.241  0.00  0.00    +0.155 HD
BRANCH  14  15
ATOM     15  C   UNL     1       6.267   1.133  14.551  0.00  0.00    +0.037 A 
ATOM     16  C   UNL     1       7.447   0.724  13.786  0.00  0.00    +0.013 A 
ATOM     17  C   UNL     1       7.712  -0.675  13.559  0.00  0.00    +0.005 A 
ATOM     18  C   UNL     1       6.795  -1.675  14.100  0.00  0.00    -0.033 A 
ATOM     28  C   UNL     1       5.634  -1.241  14.860  0.00  0.00    +0.005 A 
ATOM     29  C   UNL     1       5.370   0.129  15.084  0.00  0.00    +0.013 A 
BRANCH  18  19
ATOM     19  C   UNL     1       6.988  -3.188  13.889  0.00  0.00    +0.119 C 
BRANCH  19  20
ATOM     20  N   UNL     1       7.867  -3.907  14.859  0.00  0.00    -0.302 NA
ATOM     21  C   UNL     1       8.806  -4.895  14.160  0.00  0.00    +0.066 C 
ATOM     22  C   UNL     1       9.734  -5.622  15.186  0.00  0.00    -0.064 C 
ATOM     23  N   UNL     1       8.874  -6.337  16.230  0.00  0.00    +0.379 N 
ATOM     24  C   UNL     1       9.743  -7.069  17.163  0.00  0.00    -0.096 C 
ATOM     25  H   UNL     1       8.246  -7.086  15.694  0.00  0.00    -0.082 HD
ATOM     26  C   UNL     1       7.936  -5.363  16.928  0.00  0.00    -0.064 C 
ATOM     27  C   UNL     1       7.039  -4.624  15.896  0.00  0.00    +0.066 C 
ENDBRANCH  19  20
ENDBRANCH  18  19
ENDBRANCH  14  15
ENDBRANCH  12  13
TORSDOF 6
ENDMDL
