MODEL 1
REMARK VINA RESULT:      -6.7      0.000      0.000
REMARK  Name = C:\Users\Docking\Desktop\test protocol\1iep_ligandH.pdb
REMARK  8 active torsions:
REMARK  status: ('A' for Active; 'I' for Inactive)
REMARK    1  A    between atoms: _5  and  _11
REMARK    2  A    between atoms: _19  and  _21
REMARK    3  A    between atoms: _22  and  _66
REMARK    4  A    between atoms: _27  and  _30
REMARK    5  A    between atoms: _32  and  _33
REMARK    6  A    between atoms: _38  and  _43
REMARK    7  A    between atoms: _43  and  _46
REMARK    8  A    between atoms: _53  and  _55
REMARK                            x       y       z     vdW  Elec       q    Type
REMARK                         _______ _______ _______ _____ _____    ______ ____
ROOT
ATOM     10  C   UNL     1       8.353  82.699 -50.924  0.00  0.00    +0.038 A 
ATOM     11  C   UNL     1       8.151  83.754 -49.998  0.00  0.00    +0.047 A 
ATOM     12  C   UNL     1       7.665  83.492 -48.652  0.00  0.00    +0.035 A 
ATOM     32  C   UNL     1       7.397  82.141 -48.282  0.00  0.00    +0.024 A 
ATOM     33  C   UNL     1       7.596  81.057 -49.211  0.00  0.00    +0.007 A 
ATOM     34  C   UNL     1       8.073  81.310 -50.540  0.00  0.00    -0.029 A 
ATOM     35  C   UNL     1       8.262  80.109 -51.496  0.00  0.00    +0.045 C 
ENDROOT
BRANCH  10   9
ATOM      4  C   UNL     1       7.784  84.595 -55.296  0.00  0.00    +0.077 A 
ATOM      5  C   UNL     1       6.430  84.978 -55.018  0.00  0.00    +0.048 A 
ATOM      6  C   UNL     1       5.915  84.663 -53.741  0.00  0.00    +0.116 A 
ATOM      7  N   UNL     1       6.705  84.013 -52.817  0.00  0.00    -0.223 NA
ATOM      8  C   UNL     1       8.007  83.655 -53.118  0.00  0.00    +0.220 A 
ATOM      9  N   UNL     1       8.821  83.008 -52.203  0.00  0.00    -0.283 N 
ATOM     36  H   UNL     1       9.774  82.755 -52.466  0.00  0.00    +0.155 HD
ATOM     37  N   UNL     1       8.521  83.944 -54.332  0.00  0.00    -0.214 NA
BRANCH   4   3
ATOM      1  C   UNL     1      10.308  84.461 -58.282  0.00  0.00    +0.020 A 
ATOM      2  C   UNL     1       9.684  84.167 -57.012  0.00  0.00    +0.013 A 
ATOM      3  C   UNL     1       8.471  84.862 -56.599  0.00  0.00    +0.019 A 
ATOM     38  C   UNL     1       7.910  85.856 -57.502  0.00  0.00    +0.120 A 
ATOM     39  N   UNL     1       8.533  86.119 -58.717  0.00  0.00    -0.263 NA
ATOM     40  C   UNL     1       9.702  85.459 -59.124  0.00  0.00    +0.111 A 
ENDBRANCH   4   3
ENDBRANCH  10   9
BRANCH  12  13
ATOM     13  N   UNL     1       7.433  84.523 -47.672  0.00  0.00    -0.281 N 
ATOM     14  C   UNL     1       6.218  85.035 -47.245  0.00  0.00    +0.248 C 
ATOM     30  O   UNL     1       5.149  84.831 -47.801  0.00  0.00    -0.270 OA
ATOM     31  H   UNL     1       8.265  84.925 -47.240  0.00  0.00    +0.155 HD
BRANCH  14  15
ATOM     15  C   UNL     1       6.189  85.911 -46.035  0.00  0.00    +0.037 A 
ATOM     16  C   UNL     1       7.363  86.690 -45.632  0.00  0.00    +0.013 A 
ATOM     17  C   UNL     1       7.314  87.514 -44.451  0.00  0.00    +0.005 A 
ATOM     18  C   UNL     1       6.084  87.565 -43.664  0.00  0.00    -0.033 A 
ATOM     28  C   UNL     1       4.932  86.787 -44.089  0.00  0.00    +0.005 A 
ATOM     29  C   UNL     1       4.977  85.977 -45.246  0.00  0.00    +0.013 A 
BRANCH  18  19
ATOM     19  C   UNL     1       5.948  88.401 -42.378  0.00  0.00    +0.119 C 
BRANCH  19  20
ATOM     20  N   UNL     1       6.740  87.963 -41.190  0.00  0.00    -0.302 NA
ATOM     21  C   UNL     1       6.523  86.481 -40.870  0.00  0.00    +0.066 C 
ATOM     22  C   UNL     1       7.376  86.033 -39.639  0.00  0.00    -0.064 C 
ATOM     23  N   UNL     1       7.023  86.905 -38.433  0.00  0.00    +0.379 N 
ATOM     24  C   UNL     1       7.781  86.449 -37.259  0.00  0.00    -0.096 C 
ATOM     25  H   UNL     1       5.940  86.757 -38.215  0.00  0.00    -0.082 HD
ATOM     26  C   UNL     1       7.233  88.380 -38.743  0.00  0.00    -0.064 C 
ATOM     27  C   UNL     1       6.403  88.808 -39.986  0.00  0.00    +0.066 C 
ENDBRANCH  19  20
ENDBRANCH  18  19
ENDBRANCH  14  15
ENDBRANCH  12  13
TORSDOF 6
ENDMDL
MODEL 2
REMARK VINA RESULT:      -6.5      6.588     15.723
REMARK  Name = C:\Users\Docking\Desktop\test protocol\1iep_ligandH.pdb
REMARK  8 active torsions:
REMARK  status: ('A' for Active; 'I' for Inactive)
REMARK    1  A    between atoms: _5  and  _11
REMARK    2  A    between atoms: _19  and  _21
REMARK    3  A    between atoms: _22  and  _66
REMARK    4  A    between atoms: _27  and  _30
REMARK    5  A    between atoms: _32  and  _33
REMARK    6  A    between atoms: _38  and  _43
REMARK    7  A    between atoms: _43  and  _46
REMARK    8  A    between atoms: _53  and  _55
REMARK                            x       y       z     vdW  Elec       q    Type
REMARK                         _______ _______ _______ _____ _____    ______ ____
ROOT
ATOM     10  C   UNL     1      11.197  81.294 -54.346  0.00  0.00    +0.038 A 
ATOM     11  C   UNL     1      10.538  81.043 -55.576  0.00  0.00    +0.047 A 
ATOM     12  C   UNL     1      11.168  80.248 -56.619  0.00  0.00    +0.035 A 
ATOM     32  C   UNL     1      12.470  79.722 -56.374  0.00  0.00    +0.024 A 
ATOM     33  C   UNL     1      13.155  79.969 -55.130  0.00  0.00    +0.007 A 
ATOM     34  C   UNL     1      12.539  80.754 -54.098  0.00  0.00    -0.029 A 
ATOM     35  C   UNL     1      13.323  80.992 -52.787  0.00  0.00    +0.045 C 
ENDROOT
BRANCH  10   9
ATOM      4  C   UNL     1       8.251  81.759 -50.585  0.00  0.00    +0.077 A 
ATOM      5  C   UNL     1       7.965  80.353 -50.560  0.00  0.00    +0.048 A 
ATOM      6  C   UNL     1       8.591  79.546 -51.537  0.00  0.00    +0.116 A 
ATOM      7  N   UNL     1       9.438  80.114 -52.464  0.00  0.00    -0.223 NA
ATOM      8  C   UNL     1       9.691  81.473 -52.461  0.00  0.00    +0.220 A 
ATOM      9  N   UNL     1      10.545  82.064 -53.380  0.00  0.00    -0.283 N 
ATOM     36  H   UNL     1      10.700  83.071 -53.349  0.00  0.00    +0.155 HD
ATOM     37  N   UNL     1       9.104  82.265 -51.540  0.00  0.00    -0.214 NA
BRANCH   4   3
ATOM      1  C   UNL     1       5.724  83.904 -48.508  0.00  0.00    +0.020 A 
ATOM      2  C   UNL     1       6.234  82.943 -49.458  0.00  0.00    +0.013 A 
ATOM      3  C   UNL     1       7.669  82.741 -49.617  0.00  0.00    +0.019 A 
ATOM     38  C   UNL     1       8.568  83.534 -48.791  0.00  0.00    +0.120 A 
ATOM     39  N   UNL     1       8.048  84.453 -47.885  0.00  0.00    -0.263 NA
ATOM     40  C   UNL     1       6.669  84.657 -47.725  0.00  0.00    +0.111 A 
ENDBRANCH   4   3
ENDBRANCH  10   9
BRANCH  12  13
ATOM     13  N   UNL     1      10.550  79.967 -57.891  0.00  0.00    -0.281 N 
ATOM     14  C   UNL     1       9.668  78.944 -58.202  0.00  0.00    +0.248 C 
ATOM     30  O   UNL     1       9.441  77.984 -57.481  0.00  0.00    -0.270 OA
ATOM     31  H   UNL     1      10.793  80.597 -58.655  0.00  0.00    +0.155 HD
BRANCH  14  15
ATOM     15  C   UNL     1       8.945  78.987 -59.509  0.00  0.00    +0.037 A 
ATOM     16  C   UNL     1       9.418  78.222 -60.665  0.00  0.00    +0.013 A 
ATOM     17  C   UNL     1       8.712  78.295 -61.920  0.00  0.00    +0.005 A 
ATOM     18  C   UNL     1       7.522  79.136 -62.023  0.00  0.00    -0.033 A 
ATOM     28  C   UNL     1       7.071  79.881 -60.859  0.00  0.00    +0.005 A 
ATOM     29  C   UNL     1       7.762  79.813 -59.629  0.00  0.00    +0.013 A 
BRANCH  18  19
ATOM     19  C   UNL     1       6.718  79.290 -63.328  0.00  0.00    +0.119 C 
BRANCH  19  20
ATOM     20  N   UNL     1       5.680  78.256 -63.617  0.00  0.00    -0.302 NA
ATOM     21  C   UNL     1       5.589  77.936 -65.112  0.00  0.00    +0.066 C 
ATOM     22  C   UNL     1       4.514  76.837 -65.394  0.00  0.00    -0.064 C 
ATOM     23  N   UNL     1       3.159  77.302 -64.857  0.00  0.00    +0.379 N 
ATOM     24  C   UNL     1       2.135  76.296 -65.173  0.00  0.00    -0.096 C 
ATOM     25  H   UNL     1       2.888  78.241 -65.393  0.00  0.00    -0.082 HD
ATOM     26  C   UNL     1       3.241  77.625 -63.372  0.00  0.00    -0.064 C 
ATOM     27  C   UNL     1       4.333  78.697 -63.099  0.00  0.00    +0.066 C 
ENDBRANCH  19  20
ENDBRANCH  18  19
ENDBRANCH  14  15
ENDBRANCH  12  13
TORSDOF 6
ENDMDL
MODEL 3
REMARK VINA RESULT:      -6.4     36.136     40.960
REMARK  Name = C:\Users\Docking\Desktop\test protocol\1iep_ligandH.pdb
REMARK  8 active torsions:
REMARK  status: ('A' for Active; 'I' for Inactive)
REMARK    1  A    between atoms: _5  and  _11
REMARK    2  A    between atoms: _19  and  _21
REMARK    3  A    between atoms: _22  and  _66
REMARK    4  A    between atoms: _27  and  _30
REMARK    5  A    between atoms: _32  and  _33
REMARK    6  A    between atoms: _38  and  _43
REMARK    7  A    between atoms: _43  and  _46
REMARK    8  A    between atoms: _53  and  _55
REMARK                            x       y       z     vdW  Elec       q    Type
REMARK                         _______ _______ _______ _____ _____    ______ ____
ROOT
ATOM     10  C   UNL     1     -15.045  60.430 -76.637  0.00  0.00    +0.038 A 
ATOM     11  C   UNL     1     -13.919  61.053 -76.041  0.00  0.00    +0.047 A 
ATOM     12  C   UNL     1     -12.614  61.022 -76.683  0.00  0.00    +0.035 A 
ATOM     32  C   UNL     1     -12.492  60.348 -77.933  0.00  0.00    +0.024 A 
ATOM     33  C   UNL     1     -13.626  59.708 -78.552  0.00  0.00    +0.007 A 
ATOM     34  C   UNL     1     -14.915  59.734 -77.923  0.00  0.00    -0.029 A 
ATOM     35  C   UNL     1     -16.094  59.025 -78.629  0.00  0.00    +0.045 C 
ENDROOT
BRANCH  10   9
ATOM      4  C   UNL     1     -19.050  62.744 -75.355  0.00  0.00    +0.077 A 
ATOM      5  C   UNL     1     -18.647  63.941 -76.036  0.00  0.00    +0.048 A 
ATOM      6  C   UNL     1     -17.398  63.922 -76.698  0.00  0.00    +0.116 A 
ATOM      7  N   UNL     1     -16.620  62.785 -76.674  0.00  0.00    -0.223 NA
ATOM      8  C   UNL     1     -17.037  61.648 -76.007  0.00  0.00    +0.220 A 
ATOM      9  N   UNL     1     -16.274  60.491 -75.977  0.00  0.00    -0.283 N 
ATOM     36  H   UNL     1     -16.614  59.676 -75.467  0.00  0.00    +0.155 HD
ATOM     37  N   UNL     1     -18.225  61.642 -75.366  0.00  0.00    -0.214 NA
BRANCH   4   3
ATOM      1  C   UNL     1     -22.859  62.706 -74.469  0.00  0.00    +0.020 A 
ATOM      2  C   UNL     1     -21.640  62.853 -75.230  0.00  0.00    +0.013 A 
ATOM      3  C   UNL     1     -20.343  62.607 -74.613  0.00  0.00    +0.019 A 
ATOM     38  C   UNL     1     -20.313  62.211 -73.213  0.00  0.00    +0.120 A 
ATOM     39  N   UNL     1     -21.504  62.079 -72.505  0.00  0.00    -0.263 NA
ATOM     40  C   UNL     1     -22.758  62.314 -73.088  0.00  0.00    +0.111 A 
ENDBRANCH   4   3
ENDBRANCH  10   9
BRANCH  12  13
ATOM     13  N   UNL     1     -11.433  61.630 -76.122  0.00  0.00    -0.281 N 
ATOM     14  C   UNL     1     -10.530  61.074 -75.230  0.00  0.00    +0.248 C 
ATOM     30  O   UNL     1     -10.720  60.037 -74.611  0.00  0.00    -0.270 OA
ATOM     31  H   UNL     1     -11.239  62.586 -76.418  0.00  0.00    +0.155 HD
BRANCH  14  15
ATOM     15  C   UNL     1      -9.237  61.779 -74.978  0.00  0.00    +0.037 A 
ATOM     16  C   UNL     1      -9.006  62.525 -73.739  0.00  0.00    +0.013 A 
ATOM     17  C   UNL     1      -7.755  63.210 -73.529  0.00  0.00    +0.005 A 
ATOM     18  C   UNL     1      -6.724  63.150 -74.562  0.00  0.00    -0.033 A 
ATOM     28  C   UNL     1      -6.977  62.398 -75.780  0.00  0.00    +0.005 A 
ATOM     29  C   UNL     1      -8.202  61.726 -75.989  0.00  0.00    +0.013 A 
BRANCH  18  19
ATOM     19  C   UNL     1      -5.367  63.868 -74.432  0.00  0.00    +0.119 C 
BRANCH  19  20
ATOM     20  N   UNL     1      -5.250  64.923 -73.382  0.00  0.00    -0.302 NA
ATOM     21  C   UNL     1      -5.522  66.323 -73.942  0.00  0.00    +0.066 C 
ATOM     22  C   UNL     1      -5.417  67.412 -72.825  0.00  0.00    -0.064 C 
ATOM     23  N   UNL     1      -4.032  67.346 -72.180  0.00  0.00    +0.379 N 
ATOM     24  C   UNL     1      -3.910  68.407 -71.170  0.00  0.00    -0.096 C 
ATOM     25  H   UNL     1      -3.279  67.549 -72.977  0.00  0.00    -0.082 HD
ATOM     26  C   UNL     1      -3.752  65.957 -71.624  0.00  0.00    -0.064 C 
ATOM     27  C   UNL     1      -3.888  64.879 -72.735  0.00  0.00    +0.066 C 
ENDBRANCH  19  20
ENDBRANCH  18  19
ENDBRANCH  14  15
ENDBRANCH  12  13
TORSDOF 6
ENDMDL
MODEL 4
REMARK VINA RESULT:      -6.3     22.834     29.228
REMARK  Name = C:\Users\Docking\Desktop\test protocol\1iep_ligandH.pdb
REMARK  8 active torsions:
REMARK  status: ('A' for Active; 'I' for Inactive)
REMARK    1  A    between atoms: _5  and  _11
REMARK    2  A    between atoms: _19  and  _21
REMARK    3  A    between atoms: _22  and  _66
REMARK    4  A    between atoms: _27  and  _30
REMARK    5  A    between atoms: _32  and  _33
REMARK    6  A    between atoms: _38  and  _43
REMARK    7  A    between atoms: _43  and  _46
REMARK    8  A    between atoms: _53  and  _55
REMARK                            x       y       z     vdW  Elec       q    Type
REMARK                         _______ _______ _______ _____ _____    ______ ____
ROOT
ATOM     10  C   UNL     1      -2.857  72.404 -65.899  0.00  0.00    +0.038 A 
ATOM     11  C   UNL     1      -2.924  71.412 -66.911  0.00  0.00    +0.047 A 
ATOM     12  C   UNL     1      -3.823  70.275 -66.792  0.00  0.00    +0.035 A 
ATOM     32  C   UNL     1      -4.641  70.180 -65.629  0.00  0.00    +0.024 A 
ATOM     33  C   UNL     1      -4.585  71.178 -64.590  0.00  0.00    +0.007 A 
ATOM     34  C   UNL     1      -3.698  72.301 -64.701  0.00  0.00    -0.029 A 
ATOM     35  C   UNL     1      -3.675  73.337 -63.553  0.00  0.00    +0.045 C 
ENDROOT
BRANCH  10   9
ATOM      4  C   UNL     1       1.421  74.498 -65.303  0.00  0.00    +0.077 A 
ATOM      5  C   UNL     1       1.936  73.374 -64.575  0.00  0.00    +0.048 A 
ATOM      6  C   UNL     1       1.065  72.280 -64.370  0.00  0.00    +0.116 A 
ATOM      7  N   UNL     1      -0.222  72.318 -64.860  0.00  0.00    -0.223 NA
ATOM      8  C   UNL     1      -0.688  73.418 -65.556  0.00  0.00    +0.220 A 
ATOM      9  N   UNL     1      -1.976  73.475 -66.065  0.00  0.00    -0.283 N 
ATOM     36  H   UNL     1      -2.284  74.307 -66.567  0.00  0.00    +0.155 HD
ATOM     37  N   UNL     1       0.124  74.476 -65.765  0.00  0.00    -0.214 NA
BRANCH   4   3
ATOM      1  C   UNL     1       3.097  78.021 -65.025  0.00  0.00    +0.020 A 
ATOM      2  C   UNL     1       2.312  76.857 -64.686  0.00  0.00    +0.013 A 
ATOM      3  C   UNL     1       2.219  75.728 -65.604  0.00  0.00    +0.019 A 
ATOM     38  C   UNL     1       2.940  75.809 -66.865  0.00  0.00    +0.120 A 
ATOM     39  N   UNL     1       3.688  76.944 -67.165  0.00  0.00    -0.263 NA
ATOM     40  C   UNL     1       3.782  78.037 -66.291  0.00  0.00    +0.111 A 
ENDBRANCH   4   3
ENDBRANCH  10   9
BRANCH  12  13
ATOM     13  N   UNL     1      -3.928  69.233 -67.783  0.00  0.00    -0.281 N 
ATOM     14  C   UNL     1      -4.595  69.277 -68.997  0.00  0.00    +0.248 C 
ATOM     30  O   UNL     1      -5.385  70.152 -69.320  0.00  0.00    -0.270 OA
ATOM     31  H   UNL     1      -3.454  68.357 -67.564  0.00  0.00    +0.155 HD
BRANCH  14  15
ATOM     15  C   UNL     1      -4.361  68.184 -69.989  0.00  0.00    +0.037 A 
ATOM     16  C   UNL     1      -3.141  68.141 -70.799  0.00  0.00    +0.013 A 
ATOM     17  C   UNL     1      -2.948  67.085 -71.761  0.00  0.00    +0.005 A 
ATOM     18  C   UNL     1      -3.979  66.062 -71.917  0.00  0.00    -0.033 A 
ATOM     28  C   UNL     1      -5.177  66.125 -71.097  0.00  0.00    +0.005 A 
ATOM     29  C   UNL     1      -5.370  67.160 -70.154  0.00  0.00    +0.013 A 
BRANCH  18  19
ATOM     19  C   UNL     1      -3.867  64.910 -72.934  0.00  0.00    +0.119 C 
BRANCH  19  20
ATOM     20  N   UNL     1      -5.133  64.233 -73.343  0.00  0.00    -0.302 NA
ATOM     21  C   UNL     1      -4.940  62.728 -73.549  0.00  0.00    +0.066 C 
ATOM     22  C   UNL     1      -6.280  62.033 -73.954  0.00  0.00    -0.064 C 
ATOM     23  N   UNL     1      -6.828  62.687 -75.224  0.00  0.00    +0.379 N 
ATOM     24  C   UNL     1      -8.057  61.998 -75.641  0.00  0.00    -0.096 C 
ATOM     25  H   UNL     1      -6.071  62.546 -76.030  0.00  0.00    -0.082 HD
ATOM     26  C   UNL     1      -7.020  64.185 -75.029  0.00  0.00    -0.064 C 
ATOM     27  C   UNL     1      -5.689  64.861 -74.597  0.00  0.00    +0.066 C 
ENDBRANCH  19  20
ENDBRANCH  18  19
ENDBRANCH  14  15
ENDBRANCH  12  13
TORSDOF 6
ENDMDL
MODEL 5
REMARK VINA RESULT:      -6.3     26.807     32.506
REMARK  Name = C:\Users\Docking\Desktop\test protocol\1iep_ligandH.pdb
REMARK  8 active torsions:
REMARK  status: ('A' for Active; 'I' for Inactive)
REMARK    1  A    between atoms: _5  and  _11
REMARK    2  A    between atoms: _19  and  _21
REMARK    3  A    between atoms: _22  and  _66
REMARK    4  A    between atoms: _27  and  _30
REMARK    5  A    between atoms: _32  and  _33
REMARK    6  A    between atoms: _38  and  _43
REMARK    7  A    between atoms: _43  and  _46
REMARK    8  A    between atoms: _53  and  _55
REMARK                            x       y       z     vdW  Elec       q    Type
REMARK                         _______ _______ _______ _____ _____    ______ ____
ROOT
ATOM     10  C   UNL     1     -11.190  76.880 -77.716  0.00  0.00    +0.038 A 
ATOM     11  C   UNL     1     -10.781  77.704 -76.636  0.00  0.00    +0.047 A 
ATOM     12  C   UNL     1     -11.743  78.499 -75.889  0.00  0.00    +0.035 A 
ATOM     32  C   UNL     1     -13.116  78.429 -76.268  0.00  0.00    +0.024 A 
ATOM     33  C   UNL     1     -13.549  77.599 -77.364  0.00  0.00    +0.007 A 
ATOM     34  C   UNL     1     -12.604  76.814 -78.106  0.00  0.00    -0.029 A 
ATOM     35  C   UNL     1     -13.124  75.946 -79.276  0.00  0.00    +0.045 C 
ENDROOT
BRANCH  10   9
ATOM      4  C   UNL     1      -7.644  76.484 -80.926  0.00  0.00    +0.077 A 
ATOM      5  C   UNL     1      -7.742  77.867 -81.294  0.00  0.00    +0.048 A 
ATOM      6  C   UNL     1      -8.724  78.644 -80.639  0.00  0.00    +0.116 A 
ATOM      7  N   UNL     1      -9.540  78.071 -79.688  0.00  0.00    -0.223 NA
ATOM      8  C   UNL     1      -9.419  76.733 -79.357  0.00  0.00    +0.220 A 
ATOM      9  N   UNL     1     -10.224  76.138 -78.398  0.00  0.00    -0.283 N 
ATOM     36  H   UNL     1     -10.108  75.147 -78.188  0.00  0.00    +0.155 HD
ATOM     37  N   UNL     1      -8.491  75.969 -79.970  0.00  0.00    -0.214 NA
BRANCH   4   3
ATOM      1  C   UNL     1      -5.706  73.224 -81.885  0.00  0.00    +0.020 A 
ATOM      2  C   UNL     1      -6.685  74.098 -81.280  0.00  0.00    +0.013 A 
ATOM      3  C   UNL     1      -6.654  75.534 -81.526  0.00  0.00    +0.019 A 
ATOM     38  C   UNL     1      -5.612  76.058 -82.396  0.00  0.00    +0.120 A 
ATOM     39  N   UNL     1      -4.682  75.193 -82.964  0.00  0.00    -0.263 NA
ATOM     40  C   UNL     1      -4.701  73.809 -82.733  0.00  0.00    +0.111 A 
ENDBRANCH   4   3
ENDBRANCH  10   9
BRANCH  12  13
ATOM     13  N   UNL     1     -11.386  79.359 -74.789  0.00  0.00    -0.281 N 
ATOM     14  C   UNL     1     -11.284  80.741 -74.786  0.00  0.00    +0.248 C 
ATOM     30  O   UNL     1     -11.277  81.435 -75.792  0.00  0.00    -0.270 OA
ATOM     31  H   UNL     1     -11.183  78.893 -73.904  0.00  0.00    +0.155 HD
BRANCH  14  15
ATOM     15  C   UNL     1     -11.156  81.453 -73.478  0.00  0.00    +0.037 A 
ATOM     16  C   UNL     1     -10.264  82.605 -73.324  0.00  0.00    +0.013 A 
ATOM     17  C   UNL     1     -10.147  83.263 -72.047  0.00  0.00    +0.005 A 
ATOM     18  C   UNL     1     -10.926  82.770 -70.913  0.00  0.00    -0.033 A 
ATOM     28  C   UNL     1     -11.807  81.629 -71.095  0.00  0.00    +0.005 A 
ATOM     29  C   UNL     1     -11.924  80.980 -72.345  0.00  0.00    +0.013 A 
BRANCH  18  19
ATOM     19  C   UNL     1     -10.848  83.398 -69.509  0.00  0.00    +0.119 C 
BRANCH  19  20
ATOM     20  N   UNL     1      -9.735  84.360 -69.251  0.00  0.00    -0.302 NA
ATOM     21  C   UNL     1      -8.606  83.728 -68.433  0.00  0.00    +0.066 C 
ATOM     22  C   UNL     1      -7.441  84.742 -68.192  0.00  0.00    -0.064 C 
ATOM     23  N   UNL     1      -7.988  85.985 -67.489  0.00  0.00    +0.379 N 
ATOM     24  C   UNL     1      -6.884  86.916 -67.209  0.00  0.00    -0.096 C 
ATOM     25  H   UNL     1      -8.413  85.661 -66.511  0.00  0.00    -0.082 HD
ATOM     26  C   UNL     1      -9.113  86.619 -68.295  0.00  0.00    -0.064 C 
ATOM     27  C   UNL     1     -10.252  85.594 -68.554  0.00  0.00    +0.066 C 
ENDBRANCH  19  20
ENDBRANCH  18  19
ENDBRANCH  14  15
ENDBRANCH  12  13
TORSDOF 6
ENDMDL
