MODEL 1
REMARK VINA RESULT:      -7.4      0.000      0.000
REMARK  Name = C:\Users\Docking\Desktop\test protocol\1iep_ligandH.pdb
REMARK  8 active torsions:
REMARK  status: ('A' for Active; 'I' for Inactive)
REMARK    1  A    between atoms: _5  and  _11
REMARK    2  A    between atoms: _19  and  _21
REMARK    3  A    between atoms: _22  and  _66
REMARK    4  A    between atoms: _27  and  _30
REMARK    5  A    between atoms: _32  and  _33
REMARK    6  A    between atoms: _38  and  _43
REMARK    7  A    between atoms: _43  and  _46
REMARK    8  A    between atoms: _53  and  _55
REMARK                            x       y       z     vdW  Elec       q    Type
REMARK                         _______ _______ _______ _____ _____    ______ ____
ROOT
ATOM     10  C   UNL     1      24.178  33.083  23.453  0.00  0.00    +0.038 A 
ATOM     11  C   UNL     1      25.481  32.656  23.092  0.00  0.00    +0.047 A 
ATOM     12  C   UNL     1      25.962  32.781  21.725  0.00  0.00    +0.035 A 
ATOM     32  C   UNL     1      25.089  33.348  20.751  0.00  0.00    +0.024 A 
ATOM     33  C   UNL     1      23.761  33.787  21.101  0.00  0.00    +0.007 A 
ATOM     34  C   UNL     1      23.280  33.664  22.447  0.00  0.00    -0.029 A 
ATOM     35  C   UNL     1      21.845  34.145  22.764  0.00  0.00    +0.045 C 
ENDROOT
BRANCH  10   9
ATOM      4  C   UNL     1      22.886  30.400  27.218  0.00  0.00    +0.077 A 
ATOM      5  C   UNL     1      23.013  29.183  26.469  0.00  0.00    +0.048 A 
ATOM      6  C   UNL     1      23.406  29.291  25.117  0.00  0.00    +0.116 A 
ATOM      7  N   UNL     1      23.652  30.530  24.564  0.00  0.00    -0.223 NA
ATOM      8  C   UNL     1      23.518  31.684  25.314  0.00  0.00    +0.220 A 
ATOM      9  N   UNL     1      23.768  32.940  24.781  0.00  0.00    -0.283 N 
ATOM     36  H   UNL     1      23.651  33.767  25.365  0.00  0.00    +0.155 HD
ATOM     37  N   UNL     1      23.143  31.608  26.607  0.00  0.00    -0.214 NA
BRANCH   4   3
ATOM      1  C   UNL     1      22.833  29.913  31.099  0.00  0.00    +0.020 A 
ATOM      2  C   UNL     1      23.267  29.836  29.723  0.00  0.00    +0.013 A 
ATOM      3  C   UNL     1      22.483  30.450  28.659  0.00  0.00    +0.019 A 
ATOM     38  C   UNL     1      21.255  31.140  29.024  0.00  0.00    +0.120 A 
ATOM     39  N   UNL     1      20.861  31.197  30.357  0.00  0.00    -0.263 NA
ATOM     40  C   UNL     1      21.607  30.608  31.389  0.00  0.00    +0.111 A 
ENDBRANCH   4   3
ENDBRANCH  10   9
BRANCH  12  13
ATOM     13  N   UNL     1      27.272  32.357  21.298  0.00  0.00    -0.281 N 
ATOM     14  C   UNL     1      27.775  31.067  21.245  0.00  0.00    +0.248 C 
ATOM     30  O   UNL     1      27.243  30.096  21.762  0.00  0.00    -0.270 OA
ATOM     31  H   UNL     1      27.906  33.098  20.998  0.00  0.00    +0.155 HD
BRANCH  14  15
ATOM     15  C   UNL     1      29.062  30.823  20.525  0.00  0.00    +0.037 A 
ATOM     16  C   UNL     1      29.538  29.463  20.260  0.00  0.00    +0.013 A 
ATOM     17  C   UNL     1      30.792  29.256  19.579  0.00  0.00    +0.005 A 
ATOM     18  C   UNL     1      31.578  30.413  19.158  0.00  0.00    -0.033 A 
ATOM     28  C   UNL     1      31.080  31.751  19.429  0.00  0.00    +0.005 A 
ATOM     29  C   UNL     1      29.852  31.958  20.097  0.00  0.00    +0.013 A 
BRANCH  18  19
ATOM     19  C   UNL     1      32.937  30.285  18.445  0.00  0.00    +0.119 C 
BRANCH  19  20
ATOM     20  N   UNL     1      34.165  30.483  19.272  0.00  0.00    -0.302 NA
ATOM     21  C   UNL     1      35.280  31.179  18.487  0.00  0.00    +0.066 C 
ATOM     22  C   UNL     1      36.549  31.398  19.374  0.00  0.00    -0.064 C 
ATOM     23  N   UNL     1      37.028  30.050  19.917  0.00  0.00    +0.379 N 
ATOM     24  C   UNL     1      38.254  30.246  20.704  0.00  0.00    -0.096 C 
ATOM     25  H   UNL     1      37.285  29.407  19.044  0.00  0.00    -0.082 HD
ATOM     26  C   UNL     1      35.923  29.351  20.696  0.00  0.00    -0.064 C 
ATOM     27  C   UNL     1      34.657  29.164  19.815  0.00  0.00    +0.066 C 
ENDBRANCH  19  20
ENDBRANCH  18  19
ENDBRANCH  14  15
ENDBRANCH  12  13
TORSDOF 6
ENDMDL
MODEL 2
REMARK VINA RESULT:      -7.0     15.202     18.171
REMARK  Name = C:\Users\Docking\Desktop\test protocol\1iep_ligandH.pdb
REMARK  8 active torsions:
REMARK  status: ('A' for Active; 'I' for Inactive)
REMARK    1  A    between atoms: _5  and  _11
REMARK    2  A    between atoms: _19  and  _21
REMARK    3  A    between atoms: _22  and  _66
REMARK    4  A    between atoms: _27  and  _30
REMARK    5  A    between atoms: _32  and  _33
REMARK    6  A    between atoms: _38  and  _43
REMARK    7  A    between atoms: _43  and  _46
REMARK    8  A    between atoms: _53  and  _55
REMARK                            x       y       z     vdW  Elec       q    Type
REMARK                         _______ _______ _______ _____ _____    ______ ____
ROOT
ATOM     10  C   UNL     1      35.814  15.153  28.435  0.00  0.00    +0.038 A 
ATOM     11  C   UNL     1      35.703  16.560  28.301  0.00  0.00    +0.047 A 
ATOM     12  C   UNL     1      34.863  17.154  27.272  0.00  0.00    +0.035 A 
ATOM     32  C   UNL     1      34.147  16.284  26.399  0.00  0.00    +0.024 A 
ATOM     33  C   UNL     1      34.249  14.851  26.521  0.00  0.00    +0.007 A 
ATOM     34  C   UNL     1      35.078  14.260  27.532  0.00  0.00    -0.029 A 
ATOM     35  C   UNL     1      35.154  12.717  27.613  0.00  0.00    +0.045 C 
ENDROOT
BRANCH  10   9
ATOM      4  C   UNL     1      36.518  13.454  32.869  0.00  0.00    +0.077 A 
ATOM      5  C   UNL     1      35.139  13.636  33.221  0.00  0.00    +0.048 A 
ATOM      6  C   UNL     1      34.283  14.175  32.235  0.00  0.00    +0.116 A 
ATOM      7  N   UNL     1      34.780  14.505  30.993  0.00  0.00    -0.223 NA
ATOM      8  C   UNL     1      36.115  14.319  30.686  0.00  0.00    +0.220 A 
ATOM      9  N   UNL     1      36.635  14.636  29.441  0.00  0.00    -0.283 N 
ATOM     36  H   UNL     1      37.627  14.491  29.256  0.00  0.00    +0.155 HD
ATOM     37  N   UNL     1      36.953  13.807  31.611  0.00  0.00    -0.214 NA
BRANCH   4   3
ATOM      1  C   UNL     1      38.248  11.847  35.988  0.00  0.00    +0.020 A 
ATOM      2  C   UNL     1      37.218  12.381  35.126  0.00  0.00    +0.013 A 
ATOM      3  C   UNL     1      37.545  12.892  33.802  0.00  0.00    +0.019 A 
ATOM     38  C   UNL     1      38.936  12.848  33.375  0.00  0.00    +0.120 A 
ATOM     39  N   UNL     1      39.907  12.330  34.227  0.00  0.00    -0.263 NA
ATOM     40  C   UNL     1      39.603  11.837  35.504  0.00  0.00    +0.111 A 
ENDBRANCH   4   3
ENDBRANCH  10   9
BRANCH  12  13
ATOM     13  N   UNL     1      34.719  18.576  27.082  0.00  0.00    -0.281 N 
ATOM     14  C   UNL     1      35.614  19.452  26.491  0.00  0.00    +0.248 C 
ATOM     30  O   UNL     1      36.775  19.178  26.224  0.00  0.00    -0.270 OA
ATOM     31  H   UNL     1      33.850  18.987  27.426  0.00  0.00    +0.155 HD
BRANCH  14  15
ATOM     15  C   UNL     1      35.158  20.836  26.160  0.00  0.00    +0.037 A 
ATOM     16  C   UNL     1      35.360  21.947  27.094  0.00  0.00    +0.013 A 
ATOM     17  C   UNL     1      34.895  23.269  26.757  0.00  0.00    +0.005 A 
ATOM     18  C   UNL     1      34.225  23.488  25.478  0.00  0.00    -0.033 A 
ATOM     28  C   UNL     1      34.043  22.370  24.567  0.00  0.00    +0.005 A 
ATOM     29  C   UNL     1      34.496  21.072  24.894  0.00  0.00    +0.013 A 
BRANCH  18  19
ATOM     19  C   UNL     1      33.678  24.861  25.045  0.00  0.00    +0.119 C 
BRANCH  19  20
ATOM     20  N   UNL     1      34.551  25.700  24.171  0.00  0.00    -0.302 NA
ATOM     21  C   UNL     1      36.000  25.731  24.666  0.00  0.00    +0.066 C 
ATOM     22  C   UNL     1      36.904  26.595  23.728  0.00  0.00    -0.064 C 
ATOM     23  N   UNL     1      36.333  28.011  23.637  0.00  0.00    +0.379 N 
ATOM     24  C   UNL     1      37.213  28.842  22.802  0.00  0.00    -0.096 C 
ATOM     25  H   UNL     1      36.335  28.443  24.664  0.00  0.00    -0.082 HD
ATOM     26  C   UNL     1      34.892  27.990  23.147  0.00  0.00    -0.064 C 
ATOM     27  C   UNL     1      34.008  27.105  24.070  0.00  0.00    +0.066 C 
ENDBRANCH  19  20
ENDBRANCH  18  19
ENDBRANCH  14  15
ENDBRANCH  12  13
TORSDOF 6
ENDMDL
MODEL 3
REMARK VINA RESULT:      -7.0     15.448     18.743
REMARK  Name = C:\Users\Docking\Desktop\test protocol\1iep_ligandH.pdb
REMARK  8 active torsions:
REMARK  status: ('A' for Active; 'I' for Inactive)
REMARK    1  A    between atoms: _5  and  _11
REMARK    2  A    between atoms: _19  and  _21
REMARK    3  A    between atoms: _22  and  _66
REMARK    4  A    between atoms: _27  and  _30
REMARK    5  A    between atoms: _32  and  _33
REMARK    6  A    between atoms: _38  and  _43
REMARK    7  A    between atoms: _43  and  _46
REMARK    8  A    between atoms: _53  and  _55
REMARK                            x       y       z     vdW  Elec       q    Type
REMARK                         _______ _______ _______ _____ _____    ______ ____
ROOT
ATOM     10  C   UNL     1      35.350  14.491  28.664  0.00  0.00    +0.038 A 
ATOM     11  C   UNL     1      35.014  15.864  28.558  0.00  0.00    +0.047 A 
ATOM     12  C   UNL     1      34.662  16.457  27.277  0.00  0.00    +0.035 A 
ATOM     32  C   UNL     1      34.661  15.620  26.123  0.00  0.00    +0.024 A 
ATOM     33  C   UNL     1      35.000  14.221  26.213  0.00  0.00    +0.007 A 
ATOM     34  C   UNL     1      35.350  13.632  27.473  0.00  0.00    -0.029 A 
ATOM     35  C   UNL     1      35.712  12.129  27.509  0.00  0.00    +0.045 C 
ENDROOT
BRANCH  10   9
ATOM      4  C   UNL     1      38.522  13.440  32.109  0.00  0.00    +0.077 A 
ATOM      5  C   UNL     1      39.620  13.938  31.332  0.00  0.00    +0.048 A 
ATOM      6  C   UNL     1      39.327  14.449  30.047  0.00  0.00    +0.116 A 
ATOM      7  N   UNL     1      38.029  14.457  29.586  0.00  0.00    -0.223 NA
ATOM      8  C   UNL     1      36.993  13.968  30.360  0.00  0.00    +0.220 A 
ATOM      9  N   UNL     1      35.679  13.974  29.919  0.00  0.00    -0.283 N 
ATOM     36  H   UNL     1      34.944  13.598  30.518  0.00  0.00    +0.155 HD
ATOM     37  N   UNL     1      37.247  13.474  31.590  0.00  0.00    -0.214 NA
BRANCH   4   3
ATOM      1  C   UNL     1      37.737  12.091  35.696  0.00  0.00    +0.020 A 
ATOM      2  C   UNL     1      37.539  12.644  34.376  0.00  0.00    +0.013 A 
ATOM      3  C   UNL     1      38.671  12.872  33.486  0.00  0.00    +0.019 A 
ATOM     38  C   UNL     1      40.000  12.527  33.966  0.00  0.00    +0.120 A 
ATOM     39  N   UNL     1      40.161  11.998  35.243  0.00  0.00    -0.263 NA
ATOM     40  C   UNL     1      39.079  11.776  36.109  0.00  0.00    +0.111 A 
ENDBRANCH   4   3
ENDBRANCH  10   9
BRANCH  12  13
ATOM     13  N   UNL     1      34.320  17.847  27.107  0.00  0.00    -0.281 N 
ATOM     14  C   UNL     1      35.177  18.916  26.900  0.00  0.00    +0.248 C 
ATOM     30  O   UNL     1      36.390  18.867  27.043  0.00  0.00    -0.270 OA
ATOM     31  H   UNL     1      33.326  18.071  27.144  0.00  0.00    +0.155 HD
BRANCH  14  15
ATOM     15  C   UNL     1      34.603  20.233  26.488  0.00  0.00    +0.037 A 
ATOM     16  C   UNL     1      34.318  20.532  25.082  0.00  0.00    +0.013 A 
ATOM     17  C   UNL     1      33.780  21.816  24.710  0.00  0.00    +0.005 A 
ATOM     18  C   UNL     1      33.521  22.812  25.748  0.00  0.00    -0.033 A 
ATOM     28  C   UNL     1      33.808  22.487  27.135  0.00  0.00    +0.005 A 
ATOM     29  C   UNL     1      34.336  21.229  27.503  0.00  0.00    +0.013 A 
BRANCH  18  19
ATOM     19  C   UNL     1      32.968  24.216  25.440  0.00  0.00    +0.119 C 
BRANCH  19  20
ATOM     20  N   UNL     1      33.763  25.077  24.515  0.00  0.00    -0.302 NA
ATOM     21  C   UNL     1      35.154  25.389  25.075  0.00  0.00    +0.066 C 
ATOM     22  C   UNL     1      35.981  26.272  24.084  0.00  0.00    -0.064 C 
ATOM     23  N   UNL     1      35.213  27.562  23.793  0.00  0.00    +0.379 N 
ATOM     24  C   UNL     1      36.014  28.420  22.907  0.00  0.00    -0.096 C 
ATOM     25  H   UNL     1      35.080  28.102  24.759  0.00  0.00    -0.082 HD
ATOM     26  C   UNL     1      33.828  27.261  23.238  0.00  0.00    -0.064 C 
ATOM     27  C   UNL     1      33.025  26.358  24.217  0.00  0.00    +0.066 C 
ENDBRANCH  19  20
ENDBRANCH  18  19
ENDBRANCH  14  15
ENDBRANCH  12  13
TORSDOF 6
ENDMDL
MODEL 4
REMARK VINA RESULT:      -7.0     23.931     27.274
REMARK  Name = C:\Users\Docking\Desktop\test protocol\1iep_ligandH.pdb
REMARK  8 active torsions:
REMARK  status: ('A' for Active; 'I' for Inactive)
REMARK    1  A    between atoms: _5  and  _11
REMARK    2  A    between atoms: _19  and  _21
REMARK    3  A    between atoms: _22  and  _66
REMARK    4  A    between atoms: _27  and  _30
REMARK    5  A    between atoms: _32  and  _33
REMARK    6  A    between atoms: _38  and  _43
REMARK    7  A    between atoms: _43  and  _46
REMARK    8  A    between atoms: _53  and  _55
REMARK                            x       y       z     vdW  Elec       q    Type
REMARK                         _______ _______ _______ _____ _____    ______ ____
ROOT
ATOM     10  C   UNL     1      34.566  12.660  31.636  0.00  0.00    +0.038 A 
ATOM     11  C   UNL     1      34.036  11.372  31.907  0.00  0.00    +0.047 A 
ATOM     12  C   UNL     1      32.620  11.183  32.181  0.00  0.00    +0.035 A 
ATOM     32  C   UNL     1      31.771  12.328  32.169  0.00  0.00    +0.024 A 
ATOM     33  C   UNL     1      32.293  13.645  31.897  0.00  0.00    +0.007 A 
ATOM     34  C   UNL     1      33.689  13.837  31.628  0.00  0.00    -0.029 A 
ATOM     35  C   UNL     1      34.195  15.272  31.350  0.00  0.00    +0.045 C 
ENDROOT
BRANCH  10   9
ATOM      4  C   UNL     1      39.142  12.847  33.072  0.00  0.00    +0.077 A 
ATOM      5  C   UNL     1      38.776  12.714  34.453  0.00  0.00    +0.048 A 
ATOM      6  C   UNL     1      37.399  12.607  34.752  0.00  0.00    +0.116 A 
ATOM      7  N   UNL     1      36.467  12.632  33.737  0.00  0.00    -0.223 NA
ATOM      8  C   UNL     1      36.853  12.764  32.416  0.00  0.00    +0.220 A 
ATOM      9  N   UNL     1      35.933  12.783  31.380  0.00  0.00    -0.283 N 
ATOM     36  H   UNL     1      36.258  12.889  30.419  0.00  0.00    +0.155 HD
ATOM     37  N   UNL     1      38.162  12.869  32.105  0.00  0.00    -0.214 NA
BRANCH   4   3
ATOM      1  C   UNL     1      43.035  12.552  32.824  0.00  0.00    +0.020 A 
ATOM      2  C   UNL     1      41.688  12.409  33.327  0.00  0.00    +0.013 A 
ATOM      3  C   UNL     1      40.557  12.966  32.596  0.00  0.00    +0.019 A 
ATOM     38  C   UNL     1      40.824  13.667  31.349  0.00  0.00    +0.120 A 
ATOM     39  N   UNL     1      42.132  13.791  30.890  0.00  0.00    -0.263 NA
ATOM     40  C   UNL     1      43.229  13.260  31.586  0.00  0.00    +0.111 A 
ENDBRANCH   4   3
ENDBRANCH  10   9
BRANCH  12  13
ATOM     13  N   UNL     1      32.027   9.901  32.471  0.00  0.00    -0.281 N 
ATOM     14  C   UNL     1      31.696   8.895  31.578  0.00  0.00    +0.248 C 
ATOM     30  O   UNL     1      31.663   9.032  30.364  0.00  0.00    -0.270 OA
ATOM     31  H   UNL     1      31.827   9.713  33.453  0.00  0.00    +0.155 HD
BRANCH  14  15
ATOM     15  C   UNL     1      31.335   7.547  32.111  0.00  0.00    +0.037 A 
ATOM     16  C   UNL     1      29.936   7.140  32.265  0.00  0.00    +0.013 A 
ATOM     17  C   UNL     1      29.615   5.840  32.798  0.00  0.00    +0.005 A 
ATOM     18  C   UNL     1      30.697   4.935  33.180  0.00  0.00    -0.033 A 
ATOM     28  C   UNL     1      32.076   5.362  33.012  0.00  0.00    +0.005 A 
ATOM     29  C   UNL     1      32.394   6.637  32.491  0.00  0.00    +0.013 A 
BRANCH  18  19
ATOM     19  C   UNL     1      30.447   3.538  33.777  0.00  0.00    +0.119 C 
BRANCH  19  20
ATOM     20  N   UNL     1      31.425   3.043  34.791  0.00  0.00    -0.302 NA
ATOM     21  C   UNL     1      32.166   1.791  34.312  0.00  0.00    +0.066 C 
ATOM     22  C   UNL     1      33.201   1.300  35.377  0.00  0.00    -0.064 C 
ATOM     23  N   UNL     1      32.480   1.030  36.698  0.00  0.00    +0.379 N 
ATOM     24  C   UNL     1      33.440   0.513  37.684  0.00  0.00    -0.096 C 
ATOM     25  H   UNL     1      31.722   0.234  36.514  0.00  0.00    -0.082 HD
ATOM     26  C   UNL     1      31.739   2.269  37.180  0.00  0.00    -0.064 C 
ATOM     27  C   UNL     1      30.734   2.766  36.104  0.00  0.00    +0.066 C 
ENDBRANCH  19  20
ENDBRANCH  18  19
ENDBRANCH  14  15
ENDBRANCH  12  13
TORSDOF 6
ENDMDL
MODEL 5
REMARK VINA RESULT:      -6.9     15.339     18.089
REMARK  Name = C:\Users\Docking\Desktop\test protocol\1iep_ligandH.pdb
REMARK  8 active torsions:
REMARK  status: ('A' for Active; 'I' for Inactive)
REMARK    1  A    between atoms: _5  and  _11
REMARK    2  A    between atoms: _19  and  _21
REMARK    3  A    between atoms: _22  and  _66
REMARK    4  A    between atoms: _27  and  _30
REMARK    5  A    between atoms: _32  and  _33
REMARK    6  A    between atoms: _38  and  _43
REMARK    7  A    between atoms: _43  and  _46
REMARK    8  A    between atoms: _53  and  _55
REMARK                            x       y       z     vdW  Elec       q    Type
REMARK                         _______ _______ _______ _____ _____    ______ ____
ROOT
ATOM     10  C   UNL     1      35.972  15.675  29.589  0.00  0.00    +0.038 A 
ATOM     11  C   UNL     1      35.346  16.838  29.074  0.00  0.00    +0.047 A 
ATOM     12  C   UNL     1      36.045  18.114  29.033  0.00  0.00    +0.035 A 
ATOM     32  C   UNL     1      37.382  18.167  29.523  0.00  0.00    +0.024 A 
ATOM     33  C   UNL     1      38.033  16.994  30.051  0.00  0.00    +0.007 A 
ATOM     34  C   UNL     1      37.348  15.734  30.096  0.00  0.00    -0.029 A 
ATOM     35  C   UNL     1      38.093  14.511  30.679  0.00  0.00    +0.045 C 
ENDROOT
BRANCH  10   9
ATOM      4  C   UNL     1      32.932  12.588  31.654  0.00  0.00    +0.077 A 
ATOM      5  C   UNL     1      32.781  13.420  32.813  0.00  0.00    +0.048 A 
ATOM      6  C   UNL     1      33.509  14.630  32.841  0.00  0.00    +0.116 A 
ATOM      7  N   UNL     1      34.323  14.974  31.784  0.00  0.00    -0.223 NA
ATOM      8  C   UNL     1      34.447  14.148  30.682  0.00  0.00    +0.220 A 
ATOM      9  N   UNL     1      35.254  14.477  29.604  0.00  0.00    -0.283 N 
ATOM     36  H   UNL     1      35.324  13.837  28.813  0.00  0.00    +0.155 HD
ATOM     37  N   UNL     1      33.764  12.985  30.631  0.00  0.00    -0.214 NA
BRANCH   4   3
ATOM      1  C   UNL     1      32.093   8.767  31.657  0.00  0.00    +0.020 A 
ATOM      2  C   UNL     1      32.817  10.002  31.851  0.00  0.00    +0.013 A 
ATOM      3  C   UNL     1      32.226  11.280  31.474  0.00  0.00    +0.019 A 
ATOM     38  C   UNL     1      30.889  11.273  30.899  0.00  0.00    +0.120 A 
ATOM     39  N   UNL     1      30.216  10.068  30.723  0.00  0.00    -0.263 NA
ATOM     40  C   UNL     1      30.776   8.832  31.080  0.00  0.00    +0.111 A 
ENDBRANCH   4   3
ENDBRANCH  10   9
BRANCH  12  13
ATOM     13  N   UNL     1      35.458  19.330  28.529  0.00  0.00    -0.281 N 
ATOM     14  C   UNL     1      35.756  19.995  27.350  0.00  0.00    +0.248 C 
ATOM     30  O   UNL     1      36.728  19.757  26.649  0.00  0.00    -0.270 OA
ATOM     31  H   UNL     1      34.735  19.753  29.111  0.00  0.00    +0.155 HD
BRANCH  14  15
ATOM     15  C   UNL     1      34.850  21.091  26.891  0.00  0.00    +0.037 A 
ATOM     16  C   UNL     1      35.296  22.487  26.871  0.00  0.00    +0.013 A 
ATOM     17  C   UNL     1      34.396  23.527  26.440  0.00  0.00    +0.005 A 
ATOM     18  C   UNL     1      33.041  23.175  26.023  0.00  0.00    -0.033 A 
ATOM     28  C   UNL     1      32.627  21.782  26.047  0.00  0.00    +0.005 A 
ATOM     29  C   UNL     1      33.505  20.760  26.470  0.00  0.00    +0.013 A 
BRANCH  18  19
ATOM     19  C   UNL     1      32.007  24.223  25.568  0.00  0.00    +0.119 C 
BRANCH  19  20
ATOM     20  N   UNL     1      30.724  23.714  24.998  0.00  0.00    -0.302 NA
ATOM     21  C   UNL     1      30.725  23.742  23.467  0.00  0.00    +0.066 C 
ATOM     22  C   UNL     1      29.383  23.185  22.887  0.00  0.00    -0.064 C 
ATOM     23  N   UNL     1      28.214  23.999  23.444  0.00  0.00    +0.379 N 
ATOM     24  C   UNL     1      26.956  23.516  22.856  0.00  0.00    -0.096 C 
ATOM     25  H   UNL     1      28.354  25.057  23.120  0.00  0.00    -0.082 HD
ATOM     26  C   UNL     1      28.208  23.979  24.966  0.00  0.00    -0.064 C 
ATOM     27  C   UNL     1      29.556  24.507  25.531  0.00  0.00    +0.066 C 
ENDBRANCH  19  20
ENDBRANCH  18  19
ENDBRANCH  14  15
ENDBRANCH  12  13
TORSDOF 6
ENDMDL
