MODEL 1
REMARK VINA RESULT:      -9.4      0.000      0.000
REMARK  Name = C:\Users\Docking\Desktop\test protocol\1iep_ligandH.pdb
REMARK  8 active torsions:
REMARK  status: ('A' for Active; 'I' for Inactive)
REMARK    1  A    between atoms: _5  and  _11
REMARK    2  A    between atoms: _19  and  _21
REMARK    3  A    between atoms: _22  and  _66
REMARK    4  A    between atoms: _27  and  _30
REMARK    5  A    between atoms: _32  and  _33
REMARK    6  A    between atoms: _38  and  _43
REMARK    7  A    between atoms: _43  and  _46
REMARK    8  A    between atoms: _53  and  _55
REMARK                            x       y       z     vdW  Elec       q    Type
REMARK                         _______ _______ _______ _____ _____    ______ ____
ROOT
ATOM     10  C   UNL     1       9.779  -6.909 -22.891  0.00  0.00    +0.038 A 
ATOM     11  C   UNL     1      10.073  -5.716 -22.181  0.00  0.00    +0.047 A 
ATOM     12  C   UNL     1      11.316  -4.995 -22.405  0.00  0.00    +0.035 A 
ATOM     32  C   UNL     1      12.237  -5.515 -23.362  0.00  0.00    +0.024 A 
ATOM     33  C   UNL     1      11.954  -6.726 -24.091  0.00  0.00    +0.007 A 
ATOM     34  C   UNL     1      10.731  -7.444 -23.872  0.00  0.00    -0.029 A 
ATOM     35  C   UNL     1      10.483  -8.740 -24.678  0.00  0.00    +0.045 C 
ENDROOT
BRANCH  10   9
ATOM      4  C   UNL     1       7.109 -10.080 -20.472  0.00  0.00    +0.077 A 
ATOM      5  C   UNL     1       8.222 -10.492 -19.666  0.00  0.00    +0.048 A 
ATOM      6  C   UNL     1       9.466  -9.868 -19.910  0.00  0.00    +0.116 A 
ATOM      7  N   UNL     1       9.577  -8.905 -20.890  0.00  0.00    -0.223 NA
ATOM      8  C   UNL     1       8.484  -8.533 -21.651  0.00  0.00    +0.220 A 
ATOM      9  N   UNL     1       8.571  -7.561 -22.636  0.00  0.00    -0.283 N 
ATOM     36  H   UNL     1       7.743  -7.320 -23.181  0.00  0.00    +0.155 HD
ATOM     37  N   UNL     1       7.285  -9.115 -21.438  0.00  0.00    -0.214 NA
BRANCH   4   3
ATOM      1  C   UNL     1       4.104 -12.414 -19.562  0.00  0.00    +0.020 A 
ATOM      2  C   UNL     1       5.456 -11.914 -19.671  0.00  0.00    +0.013 A 
ATOM      3  C   UNL     1       5.729 -10.644 -20.332  0.00  0.00    +0.019 A 
ATOM     38  C   UNL     1       4.604  -9.898 -20.875  0.00  0.00    +0.120 A 
ATOM     39  N   UNL     1       3.313 -10.405 -20.756  0.00  0.00    -0.263 NA
ATOM     40  C   UNL     1       3.038 -11.627 -20.124  0.00  0.00    +0.111 A 
ENDBRANCH   4   3
ENDBRANCH  10   9
BRANCH  12  13
ATOM     13  N   UNL     1      11.673  -3.784 -21.709  0.00  0.00    -0.281 N 
ATOM     14  C   UNL     1      11.492  -2.476 -22.128  0.00  0.00    +0.248 C 
ATOM     30  O   UNL     1      11.186  -2.150 -23.265  0.00  0.00    -0.270 OA
ATOM     31  H   UNL     1      12.113  -3.905 -20.797  0.00  0.00    +0.155 HD
BRANCH  14  15
ATOM     15  C   UNL     1      11.692  -1.368 -21.144  0.00  0.00    +0.037 A 
ATOM     16  C   UNL     1      12.937  -0.596 -21.112  0.00  0.00    +0.013 A 
ATOM     17  C   UNL     1      13.111   0.455 -20.141  0.00  0.00    +0.005 A 
ATOM     18  C   UNL     1      12.035   0.742 -19.195  0.00  0.00    -0.033 A 
ATOM     28  C   UNL     1      10.808  -0.036 -19.253  0.00  0.00    +0.005 A 
ATOM     29  C   UNL     1      10.635  -1.068 -20.202  0.00  0.00    +0.013 A 
BRANCH  18  19
ATOM     19  C   UNL     1      12.142   1.832 -18.112  0.00  0.00    +0.119 C 
BRANCH  19  20
ATOM     20  N   UNL     1      12.822   1.462 -16.836  0.00  0.00    -0.302 NA
ATOM     21  C   UNL     1      11.950   0.559 -15.960  0.00  0.00    +0.066 C 
ATOM     22  C   UNL     1      12.686   0.164 -14.638  0.00  0.00    -0.064 C 
ATOM     23  N   UNL     1      13.084   1.432 -13.881  0.00  0.00    +0.379 N 
ATOM     24  C   UNL     1      13.725   1.064 -12.610  0.00  0.00    -0.096 C 
ATOM     25  H   UNL     1      12.149   1.989 -13.639  0.00  0.00    -0.082 HD
ATOM     26  C   UNL     1      13.950   2.337 -14.746  0.00  0.00    -0.064 C 
ATOM     27  C   UNL     1      13.221   2.700 -16.069  0.00  0.00    +0.066 C 
ENDBRANCH  19  20
ENDBRANCH  18  19
ENDBRANCH  14  15
ENDBRANCH  12  13
TORSDOF 6
ENDMDL
MODEL 2
REMARK VINA RESULT:      -8.7      2.328     12.657
REMARK  Name = C:\Users\Docking\Desktop\test protocol\1iep_ligandH.pdb
REMARK  8 active torsions:
REMARK  status: ('A' for Active; 'I' for Inactive)
REMARK    1  A    between atoms: _5  and  _11
REMARK    2  A    between atoms: _19  and  _21
REMARK    3  A    between atoms: _22  and  _66
REMARK    4  A    between atoms: _27  and  _30
REMARK    5  A    between atoms: _32  and  _33
REMARK    6  A    between atoms: _38  and  _43
REMARK    7  A    between atoms: _43  and  _46
REMARK    8  A    between atoms: _53  and  _55
REMARK                            x       y       z     vdW  Elec       q    Type
REMARK                         _______ _______ _______ _____ _____    ______ ____
ROOT
ATOM     10  C   UNL     1      11.879  -4.090 -21.830  0.00  0.00    +0.038 A 
ATOM     11  C   UNL     1      10.715  -4.873 -21.622  0.00  0.00    +0.047 A 
ATOM     12  C   UNL     1      10.384  -5.979 -22.507  0.00  0.00    +0.035 A 
ATOM     32  C   UNL     1      11.264  -6.262 -23.592  0.00  0.00    +0.024 A 
ATOM     33  C   UNL     1      12.451  -5.476 -23.819  0.00  0.00    +0.007 A 
ATOM     34  C   UNL     1      12.781  -4.382 -22.950  0.00  0.00    -0.029 A 
ATOM     35  C   UNL     1      14.063  -3.569 -23.244  0.00  0.00    +0.045 C 
ENDROOT
BRANCH  10   9
ATOM      4  C   UNL     1      11.928   0.573 -20.692  0.00  0.00    +0.077 A 
ATOM      5  C   UNL     1      11.398   0.951 -21.971  0.00  0.00    +0.048 A 
ATOM      6  C   UNL     1      11.133  -0.084 -22.895  0.00  0.00    +0.116 A 
ATOM      7  N   UNL     1      11.383  -1.396 -22.556  0.00  0.00    -0.223 NA
ATOM      8  C   UNL     1      11.896  -1.726 -21.315  0.00  0.00    +0.220 A 
ATOM      9  N   UNL     1      12.148  -3.040 -20.949  0.00  0.00    -0.283 N 
ATOM     36  H   UNL     1      12.534  -3.241 -20.027  0.00  0.00    +0.155 HD
ATOM     37  N   UNL     1      12.159  -0.756 -20.415  0.00  0.00    -0.214 NA
BRANCH   4   3
ATOM      1  C   UNL     1      13.328   3.672 -18.759  0.00  0.00    +0.020 A 
ATOM      2  C   UNL     1      13.039   2.759 -19.841  0.00  0.00    +0.013 A 
ATOM      3  C   UNL     1      12.257   1.552 -19.608  0.00  0.00    +0.019 A 
ATOM     38  C   UNL     1      11.777   1.296 -18.259  0.00  0.00    +0.120 A 
ATOM     39  N   UNL     1      12.072   2.192 -17.236  0.00  0.00    -0.263 NA
ATOM     40  C   UNL     1      12.825   3.356 -17.448  0.00  0.00    +0.111 A 
ENDBRANCH   4   3
ENDBRANCH  10   9
BRANCH  12  13
ATOM     13  N   UNL     1       9.212  -6.803 -22.351  0.00  0.00    -0.281 N 
ATOM     14  C   UNL     1       9.129  -8.071 -21.799  0.00  0.00    +0.248 C 
ATOM     30  O   UNL     1      10.093  -8.779 -21.547  0.00  0.00    -0.270 OA
ATOM     31  H   UNL     1       8.336  -6.404 -22.689  0.00  0.00    +0.155 HD
BRANCH  14  15
ATOM     15  C   UNL     1       7.781  -8.640 -21.495  0.00  0.00    +0.037 A 
ATOM     16  C   UNL     1       7.044  -8.247 -20.291  0.00  0.00    +0.013 A 
ATOM     17  C   UNL     1       5.753  -8.824 -20.013  0.00  0.00    +0.005 A 
ATOM     18  C   UNL     1       5.189  -9.800 -20.943  0.00  0.00    -0.033 A 
ATOM     28  C   UNL     1       5.939 -10.168 -22.132  0.00  0.00    +0.005 A 
ATOM     29  C   UNL     1       7.206  -9.605 -22.407  0.00  0.00    +0.013 A 
BRANCH  18  19
ATOM     19  C   UNL     1       3.827 -10.483 -20.715  0.00  0.00    +0.119 C 
BRANCH  19  20
ATOM     20  N   UNL     1       3.713 -11.924 -21.091  0.00  0.00    -0.302 NA
ATOM     21  C   UNL     1       2.667 -12.150 -22.186  0.00  0.00    +0.066 C 
ATOM     22  C   UNL     1       2.577 -13.660 -22.583  0.00  0.00    -0.064 C 
ATOM     23  N   UNL     1       2.251 -14.492 -21.342  0.00  0.00    +0.379 N 
ATOM     24  C   UNL     1       2.108 -15.905 -21.722  0.00  0.00    -0.096 C 
ATOM     25  H   UNL     1       1.266 -14.145 -20.952  0.00  0.00    -0.082 HD
ATOM     26  C   UNL     1       3.284 -14.270 -20.247  0.00  0.00    -0.064 C 
ATOM     27  C   UNL     1       3.387 -12.763 -19.880  0.00  0.00    +0.066 C 
ENDBRANCH  19  20
ENDBRANCH  18  19
ENDBRANCH  14  15
ENDBRANCH  12  13
TORSDOF 6
ENDMDL
MODEL 3
REMARK VINA RESULT:      -8.4      1.246      1.768
REMARK  Name = C:\Users\Docking\Desktop\test protocol\1iep_ligandH.pdb
REMARK  8 active torsions:
REMARK  status: ('A' for Active; 'I' for Inactive)
REMARK    1  A    between atoms: _5  and  _11
REMARK    2  A    between atoms: _19  and  _21
REMARK    3  A    between atoms: _22  and  _66
REMARK    4  A    between atoms: _27  and  _30
REMARK    5  A    between atoms: _32  and  _33
REMARK    6  A    between atoms: _38  and  _43
REMARK    7  A    between atoms: _43  and  _46
REMARK    8  A    between atoms: _53  and  _55
REMARK                            x       y       z     vdW  Elec       q    Type
REMARK                         _______ _______ _______ _____ _____    ______ ____
ROOT
ATOM     10  C   UNL     1      10.302  -7.442 -22.255  0.00  0.00    +0.038 A 
ATOM     11  C   UNL     1      10.503  -6.175 -21.650  0.00  0.00    +0.047 A 
ATOM     12  C   UNL     1      11.414  -5.200 -22.230  0.00  0.00    +0.035 A 
ATOM     32  C   UNL     1      12.102  -5.548 -23.429  0.00  0.00    +0.024 A 
ATOM     33  C   UNL     1      11.910  -6.832 -24.057  0.00  0.00    +0.007 A 
ATOM     34  C   UNL     1      11.015  -7.798 -23.488  0.00  0.00    -0.029 A 
ATOM     35  C   UNL     1      10.853  -9.161 -24.201  0.00  0.00    +0.045 C 
ENDROOT
BRANCH  10   9
ATOM      4  C   UNL     1       6.057  -9.667 -22.001  0.00  0.00    +0.077 A 
ATOM      5  C   UNL     1       5.552  -8.961 -23.144  0.00  0.00    +0.048 A 
ATOM      6  C   UNL     1       6.414  -8.029 -23.764  0.00  0.00    +0.116 A 
ATOM      7  N   UNL     1       7.685  -7.826 -23.270  0.00  0.00    -0.223 NA
ATOM      8  C   UNL     1       8.140  -8.522 -22.165  0.00  0.00    +0.220 A 
ATOM      9  N   UNL     1       9.416  -8.340 -21.656  0.00  0.00    -0.283 N 
ATOM     36  H   UNL     1       9.712  -8.867 -20.834  0.00  0.00    +0.155 HD
ATOM     37  N   UNL     1       7.335  -9.417 -21.554  0.00  0.00    -0.214 NA
BRANCH   4   3
ATOM      1  C   UNL     1       4.856 -13.032 -20.410  0.00  0.00    +0.020 A 
ATOM      2  C   UNL     1       5.654 -12.089 -21.159  0.00  0.00    +0.013 A 
ATOM      3  C   UNL     1       5.268 -10.686 -21.240  0.00  0.00    +0.019 A 
ATOM     38  C   UNL     1       4.060 -10.266 -20.545  0.00  0.00    +0.120 A 
ATOM     39  N   UNL     1       3.311 -11.198 -19.832  0.00  0.00    -0.263 NA
ATOM     40  C   UNL     1       3.672 -12.551 -19.749  0.00  0.00    +0.111 A 
ENDBRANCH   4   3
ENDBRANCH  10   9
BRANCH  12  13
ATOM     13  N   UNL     1      11.665  -3.901 -21.656  0.00  0.00    -0.281 N 
ATOM     14  C   UNL     1      11.332  -2.661 -22.177  0.00  0.00    +0.248 C 
ATOM     30  O   UNL     1      10.955  -2.472 -23.324  0.00  0.00    -0.270 OA
ATOM     31  H   UNL     1      12.146  -3.895 -20.757  0.00  0.00    +0.155 HD
BRANCH  14  15
ATOM     15  C   UNL     1      11.447  -1.456 -21.301  0.00  0.00    +0.037 A 
ATOM     16  C   UNL     1      12.348  -0.352 -21.643  0.00  0.00    +0.013 A 
ATOM     17  C   UNL     1      12.453   0.792 -20.772  0.00  0.00    +0.005 A 
ATOM     18  C   UNL     1      11.653   0.838 -19.551  0.00  0.00    -0.033 A 
ATOM     28  C   UNL     1      10.764  -0.269 -19.238  0.00  0.00    +0.005 A 
ATOM     29  C   UNL     1      10.659  -1.392 -20.089  0.00  0.00    +0.013 A 
BRANCH  18  19
ATOM     19  C   UNL     1      11.718   2.009 -18.552  0.00  0.00    +0.119 C 
BRANCH  19  20
ATOM     20  N   UNL     1      12.613   1.849 -17.367  0.00  0.00    -0.302 NA
ATOM     21  C   UNL     1      13.957   1.219 -17.744  0.00  0.00    +0.066 C 
ATOM     22  C   UNL     1      14.889   1.080 -16.496  0.00  0.00    -0.064 C 
ATOM     23  N   UNL     1      14.182   0.248 -15.425  0.00  0.00    +0.379 N 
ATOM     24  C   UNL     1      15.079   0.066 -14.274  0.00  0.00    -0.096 C 
ATOM     25  H   UNL     1      13.979  -0.759 -15.858  0.00  0.00    -0.082 HD
ATOM     26  C   UNL     1      12.843   0.866 -15.047  0.00  0.00    -0.064 C 
ATOM     27  C   UNL     1      11.936   1.027 -16.298  0.00  0.00    +0.066 C 
ENDBRANCH  19  20
ENDBRANCH  18  19
ENDBRANCH  14  15
ENDBRANCH  12  13
TORSDOF 6
ENDMDL
MODEL 4
REMARK VINA RESULT:      -8.2      1.794     12.212
REMARK  Name = C:\Users\Docking\Desktop\test protocol\1iep_ligandH.pdb
REMARK  8 active torsions:
REMARK  status: ('A' for Active; 'I' for Inactive)
REMARK    1  A    between atoms: _5  and  _11
REMARK    2  A    between atoms: _19  and  _21
REMARK    3  A    between atoms: _22  and  _66
REMARK    4  A    between atoms: _27  and  _30
REMARK    5  A    between atoms: _32  and  _33
REMARK    6  A    between atoms: _38  and  _43
REMARK    7  A    between atoms: _43  and  _46
REMARK    8  A    between atoms: _53  and  _55
REMARK                            x       y       z     vdW  Elec       q    Type
REMARK                         _______ _______ _______ _____ _____    ______ ____
ROOT
ATOM     10  C   UNL     1      12.226   1.236 -19.078  0.00  0.00    +0.038 A 
ATOM     11  C   UNL     1      11.733  -0.000 -19.568  0.00  0.00    +0.047 A 
ATOM     12  C   UNL     1      11.642  -0.262 -20.996  0.00  0.00    +0.035 A 
ATOM     32  C   UNL     1      12.065   0.757 -21.898  0.00  0.00    +0.024 A 
ATOM     33  C   UNL     1      12.568   2.020 -21.418  0.00  0.00    +0.007 A 
ATOM     34  C   UNL     1      12.657   2.285 -20.010  0.00  0.00    -0.029 A 
ATOM     35  C   UNL     1      13.198   3.660 -19.552  0.00  0.00    +0.045 C 
ENDROOT
BRANCH  10   9
ATOM      4  C   UNL     1      14.563   1.096 -14.888  0.00  0.00    +0.077 A 
ATOM      5  C   UNL     1      15.744   0.557 -15.498  0.00  0.00    +0.048 A 
ATOM      6  C   UNL     1      15.707   0.324 -16.891  0.00  0.00    +0.116 A 
ATOM      7  N   UNL     1      14.568   0.613 -17.611  0.00  0.00    -0.223 NA
ATOM      8  C   UNL     1      13.445   1.130 -16.992  0.00  0.00    +0.220 A 
ATOM      9  N   UNL     1      12.291   1.434 -17.697  0.00  0.00    -0.283 N 
ATOM     36  H   UNL     1      11.481   1.807 -17.203  0.00  0.00    +0.155 HD
ATOM     37  N   UNL     1      13.455   1.360 -15.662  0.00  0.00    -0.214 NA
BRANCH   4   3
ATOM      1  C   UNL     1      13.176   2.211 -11.405  0.00  0.00    +0.020 A 
ATOM      2  C   UNL     1      13.235   1.935 -12.822  0.00  0.00    +0.013 A 
ATOM      3  C   UNL     1      14.448   1.400 -13.427  0.00  0.00    +0.019 A 
ATOM     38  C   UNL     1      15.592   1.152 -12.563  0.00  0.00    +0.120 A 
ATOM     39  N   UNL     1      15.507   1.429 -11.202  0.00  0.00    -0.263 NA
ATOM     40  C   UNL     1      14.345   1.946 -10.609  0.00  0.00    +0.111 A 
ENDBRANCH   4   3
ENDBRANCH  10   9
BRANCH  12  13
ATOM     13  N   UNL     1      11.142  -1.495 -21.551  0.00  0.00    -0.281 N 
ATOM     14  C   UNL     1      11.779  -2.724 -21.607  0.00  0.00    +0.248 C 
ATOM     30  O   UNL     1      12.967  -2.898 -21.377  0.00  0.00    -0.270 OA
ATOM     31  H   UNL     1      10.205  -1.458 -21.952  0.00  0.00    +0.155 HD
BRANCH  14  15
ATOM     15  C   UNL     1      10.986  -3.933 -21.986  0.00  0.00    +0.037 A 
ATOM     16  C   UNL     1      11.038  -5.159 -21.186  0.00  0.00    +0.013 A 
ATOM     17  C   UNL     1      10.276  -6.315 -21.584  0.00  0.00    +0.005 A 
ATOM     18  C   UNL     1       9.453  -6.251 -22.789  0.00  0.00    -0.033 A 
ATOM     28  C   UNL     1       9.415  -5.020 -23.561  0.00  0.00    +0.005 A 
ATOM     29  C   UNL     1      10.161  -3.884 -23.175  0.00  0.00    +0.013 A 
BRANCH  18  19
ATOM     19  C   UNL     1       8.623  -7.443 -23.300  0.00  0.00    +0.119 C 
BRANCH  19  20
ATOM     20  N   UNL     1       8.073  -8.382 -22.277  0.00  0.00    -0.302 NA
ATOM     21  C   UNL     1       7.769  -9.762 -22.868  0.00  0.00    +0.066 C 
ATOM     22  C   UNL     1       7.217 -10.738 -21.779  0.00  0.00    -0.064 C 
ATOM     23  N   UNL     1       5.964 -10.133 -21.144  0.00  0.00    +0.379 N 
ATOM     24  C   UNL     1       5.408 -11.075 -20.161  0.00  0.00    -0.096 C 
ATOM     25  H   UNL     1       5.206 -10.001 -21.951  0.00  0.00    -0.082 HD
ATOM     26  C   UNL     1       6.256  -8.760 -20.556  0.00  0.00    -0.064 C 
ATOM     27  C   UNL     1       6.833  -7.806 -21.640  0.00  0.00    +0.066 C 
ENDBRANCH  19  20
ENDBRANCH  18  19
ENDBRANCH  14  15
ENDBRANCH  12  13
TORSDOF 6
ENDMDL
MODEL 5
REMARK VINA RESULT:      -8.2      7.453     15.219
REMARK  Name = C:\Users\Docking\Desktop\test protocol\1iep_ligandH.pdb
REMARK  8 active torsions:
REMARK  status: ('A' for Active; 'I' for Inactive)
REMARK    1  A    between atoms: _5  and  _11
REMARK    2  A    between atoms: _19  and  _21
REMARK    3  A    between atoms: _22  and  _66
REMARK    4  A    between atoms: _27  and  _30
REMARK    5  A    between atoms: _32  and  _33
REMARK    6  A    between atoms: _38  and  _43
REMARK    7  A    between atoms: _43  and  _46
REMARK    8  A    between atoms: _53  and  _55
REMARK                            x       y       z     vdW  Elec       q    Type
REMARK                         _______ _______ _______ _____ _____    ______ ____
ROOT
ATOM     10  C   UNL     1       8.155 -10.495 -19.671  0.00  0.00    +0.038 A 
ATOM     11  C   UNL     1       7.210 -11.553 -19.634  0.00  0.00    +0.047 A 
ATOM     12  C   UNL     1       5.926 -11.439 -20.307  0.00  0.00    +0.035 A 
ATOM     32  C   UNL     1       5.637 -10.235 -21.013  0.00  0.00    +0.024 A 
ATOM     33  C   UNL     1       6.585  -9.149 -21.060  0.00  0.00    +0.007 A 
ATOM     34  C   UNL     1       7.852  -9.255 -20.396  0.00  0.00    -0.029 A 
ATOM     35  C   UNL     1       8.827  -8.057 -20.475  0.00  0.00    +0.045 C 
ENDROOT
BRANCH  10   9
ATOM      4  C   UNL     1      12.579 -12.324 -19.331  0.00  0.00    +0.077 A 
ATOM      5  C   UNL     1      12.443 -13.037 -20.569  0.00  0.00    +0.048 A 
ATOM      6  C   UNL     1      11.216 -12.913 -21.258  0.00  0.00    +0.116 A 
ATOM      7  N   UNL     1      10.208 -12.130 -20.740  0.00  0.00    -0.223 NA
ATOM      8  C   UNL     1      10.371 -11.457 -19.543  0.00  0.00    +0.220 A 
ATOM      9  N   UNL     1       9.372 -10.658 -19.007  0.00  0.00    -0.283 N 
ATOM     36  H   UNL     1       9.529 -10.184 -18.118  0.00  0.00    +0.155 HD
ATOM     37  N   UNL     1      11.532 -11.561 -18.865  0.00  0.00    -0.214 NA
BRANCH   4   3
ATOM      1  C   UNL     1      15.478 -13.526 -16.996  0.00  0.00    +0.020 A 
ATOM      2  C   UNL     1      14.276 -13.552 -17.797  0.00  0.00    +0.013 A 
ATOM      3  C   UNL     1      13.816 -12.353 -18.488  0.00  0.00    +0.019 A 
ATOM     38  C   UNL     1      14.602 -11.137 -18.347  0.00  0.00    +0.120 A 
ATOM     39  N   UNL     1      15.754 -11.142 -17.567  0.00  0.00    -0.263 NA
ATOM     40  C   UNL     1      16.205 -12.289 -16.897  0.00  0.00    +0.111 A 
ENDBRANCH   4   3
ENDBRANCH  10   9
BRANCH  12  13
ATOM     13  N   UNL     1       4.924 -12.477 -20.297  0.00  0.00    -0.281 N 
ATOM     14  C   UNL     1       4.665 -13.419 -21.278  0.00  0.00    +0.248 C 
ATOM     30  O   UNL     1       5.117 -13.379 -22.412  0.00  0.00    -0.270 OA
ATOM     31  H   UNL     1       4.335 -12.521 -19.465  0.00  0.00    +0.155 HD
BRANCH  14  15
ATOM     15  C   UNL     1       3.761 -14.565 -20.957  0.00  0.00    +0.037 A 
ATOM     16  C   UNL     1       2.931 -14.564 -19.749  0.00  0.00    +0.013 A 
ATOM     17  C   UNL     1       2.081 -15.690 -19.454  0.00  0.00    +0.005 A 
ATOM     18  C   UNL     1       2.054 -16.827 -20.371  0.00  0.00    -0.033 A 
ATOM     28  C   UNL     1       2.883 -16.800 -21.565  0.00  0.00    +0.005 A 
ATOM     29  C   UNL     1       3.719 -15.699 -21.856  0.00  0.00    +0.013 A 
BRANCH  18  19
ATOM     19  C   UNL     1       1.193 -18.079 -20.125  0.00  0.00    +0.119 C 
BRANCH  19  20
ATOM     20  N   UNL     1       1.770 -19.146 -19.253  0.00  0.00    -0.302 NA
ATOM     21  C   UNL     1       2.036 -20.440 -20.028  0.00  0.00    +0.066 C 
ATOM     22  C   UNL     1       2.660 -21.537 -19.106  0.00  0.00    -0.064 C 
ATOM     23  N   UNL     1       1.727 -21.797 -17.923  0.00  0.00    +0.379 N 
ATOM     24  C   UNL     1       2.283 -22.869 -17.085  0.00  0.00    -0.096 C 
ATOM     25  H   UNL     1       0.754 -22.157 -18.332  0.00  0.00    -0.082 HD
ATOM     26  C   UNL     1       1.455 -20.515 -17.148  0.00  0.00    -0.064 C 
ATOM     27  C   UNL     1       0.862 -19.421 -18.080  0.00  0.00    +0.066 C 
ENDBRANCH  19  20
ENDBRANCH  18  19
ENDBRANCH  14  15
ENDBRANCH  12  13
TORSDOF 6
ENDMDL
