MODEL 1
REMARK VINA RESULT:      -7.7      0.000      0.000
REMARK  Name = C:\Users\Docking\Desktop\test protocol\1iep_ligandH.pdb
REMARK  8 active torsions:
REMARK  status: ('A' for Active; 'I' for Inactive)
REMARK    1  A    between atoms: _5  and  _11
REMARK    2  A    between atoms: _19  and  _21
REMARK    3  A    between atoms: _22  and  _66
REMARK    4  A    between atoms: _27  and  _30
REMARK    5  A    between atoms: _32  and  _33
REMARK    6  A    between atoms: _38  and  _43
REMARK    7  A    between atoms: _43  and  _46
REMARK    8  A    between atoms: _53  and  _55
REMARK                            x       y       z     vdW  Elec       q    Type
REMARK                         _______ _______ _______ _____ _____    ______ ____
ROOT
ATOM     10  C   UNL     1       7.285  -6.160   3.578  0.00  0.00    +0.038 A 
ATOM     11  C   UNL     1       6.847  -5.680   4.839  0.00  0.00    +0.047 A 
ATOM     12  C   UNL     1       6.762  -6.563   5.992  0.00  0.00    +0.035 A 
ATOM     32  C   UNL     1       7.133  -7.929   5.825  0.00  0.00    +0.024 A 
ATOM     33  C   UNL     1       7.579  -8.434   4.550  0.00  0.00    +0.007 A 
ATOM     34  C   UNL     1       7.662  -7.569   3.409  0.00  0.00    -0.029 A 
ATOM     35  C   UNL     1       8.140  -8.166   2.065  0.00  0.00    +0.045 C 
ENDROOT
BRANCH  10   9
ATOM      4  C   UNL     1       5.295  -3.859  -0.135  0.00  0.00    +0.077 A 
ATOM      5  C   UNL     1       4.032  -4.508   0.064  0.00  0.00    +0.048 A 
ATOM      6  C   UNL     1       3.937  -5.433   1.128  0.00  0.00    +0.116 A 
ATOM      7  N   UNL     1       5.031  -5.682   1.928  0.00  0.00    -0.223 NA
ATOM      8  C   UNL     1       6.236  -5.039   1.708  0.00  0.00    +0.220 A 
ATOM      9  N   UNL     1       7.347  -5.268   2.505  0.00  0.00    -0.283 N 
ATOM     36  H   UNL     1       8.220  -4.780   2.306  0.00  0.00    +0.155 HD
ATOM     37  N   UNL     1       6.352  -4.153   0.698  0.00  0.00    -0.214 NA
BRANCH   4   3
ATOM      1  C   UNL     1       6.583  -0.725  -2.089  0.00  0.00    +0.020 A 
ATOM      2  C   UNL     1       6.367  -1.663  -1.012  0.00  0.00    +0.013 A 
ATOM      3  C   UNL     1       5.551  -2.854  -1.215  0.00  0.00    +0.019 A 
ATOM     38  C   UNL     1       4.965  -3.068  -2.529  0.00  0.00    +0.120 A 
ATOM     39  N   UNL     1       5.190  -2.146  -3.547  0.00  0.00    -0.263 NA
ATOM     40  C   UNL     1       5.972  -0.995  -3.363  0.00  0.00    +0.111 A 
ENDBRANCH   4   3
ENDBRANCH  10   9
BRANCH  12  13
ATOM     13  N   UNL     1       6.318  -6.135   7.295  0.00  0.00    -0.281 N 
ATOM     14  C   UNL     1       5.022  -6.091   7.781  0.00  0.00    +0.248 C 
ATOM     30  O   UNL     1       4.020  -6.213   7.091  0.00  0.00    -0.270 OA
ATOM     31  H   UNL     1       7.048  -5.826   7.937  0.00  0.00    +0.155 HD
BRANCH  14  15
ATOM     15  C   UNL     1       4.805  -5.864   9.242  0.00  0.00    +0.037 A 
ATOM     16  C   UNL     1       3.578  -6.309   9.907  0.00  0.00    +0.013 A 
ATOM     17  C   UNL     1       3.387  -6.063  11.315  0.00  0.00    +0.005 A 
ATOM     18  C   UNL     1       4.429  -5.368  12.067  0.00  0.00    -0.033 A 
ATOM     28  C   UNL     1       5.639  -4.942  11.384  0.00  0.00    +0.005 A 
ATOM     29  C   UNL     1       5.829  -5.181  10.004  0.00  0.00    +0.013 A 
BRANCH  18  19
ATOM     19  C   UNL     1       4.302  -5.044  13.568  0.00  0.00    +0.119 C 
BRANCH  19  20
ATOM     20  N   UNL     1       4.446  -6.179  14.527  0.00  0.00    -0.302 NA
ATOM     21  C   UNL     1       4.902  -5.708  15.911  0.00  0.00    +0.066 C 
ATOM     22  C   UNL     1       5.026  -6.905  16.908  0.00  0.00    -0.064 C 
ATOM     23  N   UNL     1       5.999  -7.940  16.340  0.00  0.00    +0.379 N 
ATOM     24  C   UNL     1       6.162  -9.040  17.302  0.00  0.00    -0.096 C 
ATOM     25  H   UNL     1       6.990  -7.443  16.223  0.00  0.00    -0.082 HD
ATOM     26  C   UNL     1       5.554  -8.412  14.963  0.00  0.00    -0.064 C 
ATOM     27  C   UNL     1       5.406  -7.211  13.988  0.00  0.00    +0.066 C 
ENDBRANCH  19  20
ENDBRANCH  18  19
ENDBRANCH  14  15
ENDBRANCH  12  13
TORSDOF 6
ENDMDL
MODEL 2
REMARK VINA RESULT:      -7.3     20.773     24.415
REMARK  Name = C:\Users\Docking\Desktop\test protocol\1iep_ligandH.pdb
REMARK  8 active torsions:
REMARK  status: ('A' for Active; 'I' for Inactive)
REMARK    1  A    between atoms: _5  and  _11
REMARK    2  A    between atoms: _19  and  _21
REMARK    3  A    between atoms: _22  and  _66
REMARK    4  A    between atoms: _27  and  _30
REMARK    5  A    between atoms: _32  and  _33
REMARK    6  A    between atoms: _38  and  _43
REMARK    7  A    between atoms: _43  and  _46
REMARK    8  A    between atoms: _53  and  _55
REMARK                            x       y       z     vdW  Elec       q    Type
REMARK                         _______ _______ _______ _____ _____    ______ ____
ROOT
ATOM     10  C   UNL     1      25.767  11.048  -0.366  0.00  0.00    +0.038 A 
ATOM     11  C   UNL     1      25.002   9.924   0.036  0.00  0.00    +0.047 A 
ATOM     12  C   UNL     1      25.636   8.754   0.625  0.00  0.00    +0.035 A 
ATOM     32  C   UNL     1      27.052   8.766   0.793  0.00  0.00    +0.024 A 
ATOM     33  C   UNL     1      27.844   9.901   0.389  0.00  0.00    +0.007 A 
ATOM     34  C   UNL     1      27.225  11.056  -0.195  0.00  0.00    -0.029 A 
ATOM     35  C   UNL     1      28.125  12.241  -0.616  0.00  0.00    +0.045 C 
ENDROOT
BRANCH  10   9
ATOM      4  C   UNL     1      23.871  13.391  -4.102  0.00  0.00    +0.077 A 
ATOM      5  C   UNL     1      24.253  12.356  -5.020  0.00  0.00    +0.048 A 
ATOM      6  C   UNL     1      24.942  11.242  -4.491  0.00  0.00    +0.116 A 
ATOM      7  N   UNL     1      25.223  11.177  -3.144  0.00  0.00    -0.223 NA
ATOM      8  C   UNL     1      24.842  12.192  -2.286  0.00  0.00    +0.220 A 
ATOM      9  N   UNL     1      25.106  12.144  -0.926  0.00  0.00    -0.283 N 
ATOM     36  H   UNL     1      24.815  12.917  -0.328  0.00  0.00    +0.155 HD
ATOM     37  N   UNL     1      24.184  13.268  -2.767  0.00  0.00    -0.214 NA
BRANCH   4   3
ATOM      1  C   UNL     1      21.539  16.531  -4.057  0.00  0.00    +0.020 A 
ATOM      2  C   UNL     1      22.225  15.338  -3.616  0.00  0.00    +0.013 A 
ATOM      3  C   UNL     1      23.135  14.630  -4.508  0.00  0.00    +0.019 A 
ATOM     38  C   UNL     1      23.331  15.159  -5.849  0.00  0.00    +0.120 A 
ATOM     39  N   UNL     1      22.656  16.309  -6.246  0.00  0.00    -0.263 NA
ATOM     40  C   UNL     1      21.776  16.998  -5.398  0.00  0.00    +0.111 A 
ENDBRANCH   4   3
ENDBRANCH  10   9
BRANCH  12  13
ATOM     13  N   UNL     1      24.913   7.580   1.045  0.00  0.00    -0.281 N 
ATOM     14  C   UNL     1      24.825   6.358   0.400  0.00  0.00    +0.248 C 
ATOM     30  O   UNL     1      25.185   6.156  -0.751  0.00  0.00    -0.270 OA
ATOM     31  H   UNL     1      24.403   7.660   1.925  0.00  0.00    +0.155 HD
BRANCH  14  15
ATOM     15  C   UNL     1      24.241   5.194   1.133  0.00  0.00    +0.037 A 
ATOM     16  C   UNL     1      23.893   5.288   2.553  0.00  0.00    +0.013 A 
ATOM     17  C   UNL     1      23.346   4.145   3.241  0.00  0.00    +0.005 A 
ATOM     18  C   UNL     1      23.143   2.898   2.508  0.00  0.00    -0.033 A 
ATOM     28  C   UNL     1      23.492   2.834   1.098  0.00  0.00    +0.005 A 
ATOM     29  C   UNL     1      24.029   3.951   0.421  0.00  0.00    +0.013 A 
BRANCH  18  19
ATOM     19  C   UNL     1      22.585   1.622   3.166  0.00  0.00    +0.119 C 
BRANCH  19  20
ATOM     20  N   UNL     1      21.639   0.794   2.360  0.00  0.00    -0.302 NA
ATOM     21  C   UNL     1      20.243   1.419   2.293  0.00  0.00    +0.066 C 
ATOM     22  C   UNL     1      19.272   0.552   1.427  0.00  0.00    -0.064 C 
ATOM     23  N   UNL     1      19.205  -0.863   2.004  0.00  0.00    +0.379 N 
ATOM     24  C   UNL     1      18.249  -1.665   1.227  0.00  0.00    -0.096 C 
ATOM     25  H   UNL     1      18.814  -0.785   3.045  0.00  0.00    -0.082 HD
ATOM     26  C   UNL     1      20.590  -1.491   2.077  0.00  0.00    -0.064 C 
ATOM     27  C   UNL     1      21.554  -0.607   2.915  0.00  0.00    +0.066 C 
ENDBRANCH  19  20
ENDBRANCH  18  19
ENDBRANCH  14  15
ENDBRANCH  12  13
TORSDOF 6
ENDMDL
MODEL 3
REMARK VINA RESULT:      -7.3      2.402     13.640
REMARK  Name = C:\Users\Docking\Desktop\test protocol\1iep_ligandH.pdb
REMARK  8 active torsions:
REMARK  status: ('A' for Active; 'I' for Inactive)
REMARK    1  A    between atoms: _5  and  _11
REMARK    2  A    between atoms: _19  and  _21
REMARK    3  A    between atoms: _22  and  _66
REMARK    4  A    between atoms: _27  and  _30
REMARK    5  A    between atoms: _32  and  _33
REMARK    6  A    between atoms: _38  and  _43
REMARK    7  A    between atoms: _43  and  _46
REMARK    8  A    between atoms: _53  and  _55
REMARK                            x       y       z     vdW  Elec       q    Type
REMARK                         _______ _______ _______ _____ _____    ______ ____
ROOT
ATOM     10  C   UNL     1       6.168  -6.818   5.719  0.00  0.00    +0.038 A 
ATOM     11  C   UNL     1       6.260  -5.804   4.731  0.00  0.00    +0.047 A 
ATOM     12  C   UNL     1       6.192  -6.126   3.314  0.00  0.00    +0.035 A 
ATOM     32  C   UNL     1       6.027  -7.491   2.938  0.00  0.00    +0.024 A 
ATOM     33  C   UNL     1       5.933  -8.534   3.929  0.00  0.00    +0.007 A 
ATOM     34  C   UNL     1       6.002  -8.223   5.328  0.00  0.00    -0.029 A 
ATOM     35  C   UNL     1       5.902  -9.383   6.346  0.00  0.00    +0.045 C 
ENDROOT
BRANCH  10   9
ATOM      4  C   UNL     1       4.126  -5.568   9.879  0.00  0.00    +0.077 A 
ATOM      5  C   UNL     1       2.807  -5.621   9.316  0.00  0.00    +0.048 A 
ATOM      6  C   UNL     1       2.698  -5.967   7.950  0.00  0.00    +0.116 A 
ATOM      7  N   UNL     1       3.830  -6.238   7.212  0.00  0.00    -0.223 NA
ATOM      8  C   UNL     1       5.087  -6.176   7.786  0.00  0.00    +0.220 A 
ATOM      9  N   UNL     1       6.239  -6.452   7.065  0.00  0.00    -0.283 N 
ATOM     36  H   UNL     1       7.148  -6.388   7.523  0.00  0.00    +0.155 HD
ATOM     37  N   UNL     1       5.218  -5.846   9.088  0.00  0.00    -0.214 NA
BRANCH   4   3
ATOM      1  C   UNL     1       5.952  -4.934  13.279  0.00  0.00    +0.020 A 
ATOM      2  C   UNL     1       5.737  -5.280  11.893  0.00  0.00    +0.013 A 
ATOM      3  C   UNL     1       4.404  -5.220  11.308  0.00  0.00    +0.019 A 
ATOM     38  C   UNL     1       3.300  -4.802  12.160  0.00  0.00    +0.120 A 
ATOM     39  N   UNL     1       3.537  -4.476  13.491  0.00  0.00    -0.263 NA
ATOM     40  C   UNL     1       4.816  -4.531  14.065  0.00  0.00    +0.111 A 
ENDBRANCH   4   3
ENDBRANCH  10   9
BRANCH  12  13
ATOM     13  N   UNL     1       6.287  -5.140   2.266  0.00  0.00    -0.281 N 
ATOM     14  C   UNL     1       7.047  -5.198   1.109  0.00  0.00    +0.248 C 
ATOM     30  O   UNL     1       7.929  -6.018   0.901  0.00  0.00    -0.270 OA
ATOM     31  H   UNL     1       5.727  -4.297   2.393  0.00  0.00    +0.155 HD
BRANCH  14  15
ATOM     15  C   UNL     1       6.801  -4.191   0.032  0.00  0.00    +0.037 A 
ATOM     16  C   UNL     1       6.034  -2.970   0.295  0.00  0.00    +0.013 A 
ATOM     17  C   UNL     1       5.797  -2.023  -0.766  0.00  0.00    +0.005 A 
ATOM     18  C   UNL     1       6.329  -2.293  -2.099  0.00  0.00    -0.033 A 
ATOM     28  C   UNL     1       7.092  -3.509  -2.330  0.00  0.00    +0.005 A 
ATOM     29  C   UNL     1       7.325  -4.440  -1.294  0.00  0.00    +0.013 A 
BRANCH  18  19
ATOM     19  C   UNL     1       6.107  -1.349  -3.296  0.00  0.00    +0.119 C 
BRANCH  19  20
ATOM     20  N   UNL     1       5.341  -1.887  -4.459  0.00  0.00    -0.302 NA
ATOM     21  C   UNL     1       6.265  -2.400  -5.567  0.00  0.00    +0.066 C 
ATOM     22  C   UNL     1       5.447  -2.981  -6.766  0.00  0.00    -0.064 C 
ATOM     23  N   UNL     1       4.502  -1.905  -7.304  0.00  0.00    +0.379 N 
ATOM     24  C   UNL     1       3.773  -2.429  -8.468  0.00  0.00    -0.096 C 
ATOM     25  H   UNL     1       5.126  -1.050  -7.652  0.00  0.00    -0.082 HD
ATOM     26  C   UNL     1       3.581  -1.387  -6.207  0.00  0.00    -0.064 C 
ATOM     27  C   UNL     1       4.404  -0.839  -5.008  0.00  0.00    +0.066 C 
ENDBRANCH  19  20
ENDBRANCH  18  19
ENDBRANCH  14  15
ENDBRANCH  12  13
TORSDOF 6
ENDMDL
MODEL 4
REMARK VINA RESULT:      -7.3      1.796      2.750
REMARK  Name = C:\Users\Docking\Desktop\test protocol\1iep_ligandH.pdb
REMARK  8 active torsions:
REMARK  status: ('A' for Active; 'I' for Inactive)
REMARK    1  A    between atoms: _5  and  _11
REMARK    2  A    between atoms: _19  and  _21
REMARK    3  A    between atoms: _22  and  _66
REMARK    4  A    between atoms: _27  and  _30
REMARK    5  A    between atoms: _32  and  _33
REMARK    6  A    between atoms: _38  and  _43
REMARK    7  A    between atoms: _43  and  _46
REMARK    8  A    between atoms: _53  and  _55
REMARK                            x       y       z     vdW  Elec       q    Type
REMARK                         _______ _______ _______ _____ _____    ______ ____
ROOT
ATOM     10  C   UNL     1       7.556  -6.157   3.716  0.00  0.00    +0.038 A 
ATOM     11  C   UNL     1       6.990  -5.702   4.934  0.00  0.00    +0.047 A 
ATOM     12  C   UNL     1       6.924  -6.566   6.103  0.00  0.00    +0.035 A 
ATOM     32  C   UNL     1       7.447  -7.888   5.996  0.00  0.00    +0.024 A 
ATOM     33  C   UNL     1       8.026  -8.367   4.766  0.00  0.00    +0.007 A 
ATOM     34  C   UNL     1       8.091  -7.520   3.609  0.00  0.00    -0.029 A 
ATOM     35  C   UNL     1       8.716  -8.089   2.314  0.00  0.00    +0.045 C 
ENDROOT
BRANCH  10   9
ATOM      4  C   UNL     1       5.507  -4.000  -0.050  0.00  0.00    +0.077 A 
ATOM      5  C   UNL     1       4.265  -4.688   0.157  0.00  0.00    +0.048 A 
ATOM      6  C   UNL     1       4.197  -5.594   1.239  0.00  0.00    +0.116 A 
ATOM      7  N   UNL     1       5.295  -5.789   2.048  0.00  0.00    -0.223 NA
ATOM      8  C   UNL     1       6.479  -5.111   1.820  0.00  0.00    +0.220 A 
ATOM      9  N   UNL     1       7.593  -5.286   2.626  0.00  0.00    -0.283 N 
ATOM     36  H   UNL     1       8.450  -4.772   2.420  0.00  0.00    +0.155 HD
ATOM     37  N   UNL     1       6.569  -4.241   0.792  0.00  0.00    -0.214 NA
BRANCH   4   3
ATOM      1  C   UNL     1       6.505  -0.769  -2.016  0.00  0.00    +0.020 A 
ATOM      2  C   UNL     1       6.307  -1.689  -0.920  0.00  0.00    +0.013 A 
ATOM      3  C   UNL     1       5.733  -3.009  -1.149  0.00  0.00    +0.019 A 
ATOM     38  C   UNL     1       5.370  -3.371  -2.510  0.00  0.00    +0.120 A 
ATOM     39  N   UNL     1       5.571  -2.464  -3.546  0.00  0.00    -0.263 NA
ATOM     40  C   UNL     1       6.120  -1.190  -3.338  0.00  0.00    +0.111 A 
ENDBRANCH   4   3
ENDBRANCH  10   9
BRANCH  12  13
ATOM     13  N   UNL     1       6.353  -6.162   7.364  0.00  0.00    -0.281 N 
ATOM     14  C   UNL     1       5.075  -6.409   7.838  0.00  0.00    +0.248 C 
ATOM     30  O   UNL     1       4.155  -6.835   7.157  0.00  0.00    -0.270 OA
ATOM     31  H   UNL     1       6.965  -5.629   7.981  0.00  0.00    +0.155 HD
BRANCH  14  15
ATOM     15  C   UNL     1       4.772  -6.129   9.275  0.00  0.00    +0.037 A 
ATOM     16  C   UNL     1       5.548  -5.148  10.038  0.00  0.00    +0.013 A 
ATOM     17  C   UNL     1       5.246  -4.910  11.427  0.00  0.00    +0.005 A 
ATOM     18  C   UNL     1       4.160  -5.653  12.062  0.00  0.00    -0.033 A 
ATOM     28  C   UNL     1       3.403  -6.617  11.280  0.00  0.00    +0.005 A 
ATOM     29  C   UNL     1       3.697  -6.854   9.918  0.00  0.00    +0.013 A 
BRANCH  18  19
ATOM     19  C   UNL     1       3.782  -5.479  13.545  0.00  0.00    +0.119 C 
BRANCH  19  20
ATOM     20  N   UNL     1       2.489  -4.793  13.844  0.00  0.00    -0.302 NA
ATOM     21  C   UNL     1       2.701  -3.367  14.360  0.00  0.00    +0.066 C 
ATOM     22  C   UNL     1       1.338  -2.657  14.647  0.00  0.00    -0.064 C 
ATOM     23  N   UNL     1       0.538  -3.484  15.655  0.00  0.00    +0.379 N 
ATOM     24  C   UNL     1      -0.719  -2.790  15.970  0.00  0.00    -0.096 C 
ATOM     25  H   UNL     1       1.136  -3.545  16.593  0.00  0.00    -0.082 HD
ATOM     26  C   UNL     1       0.324  -4.905  15.151  0.00  0.00    -0.064 C 
ATOM     27  C   UNL     1       1.684  -5.591  14.841  0.00  0.00    +0.066 C 
ENDBRANCH  19  20
ENDBRANCH  18  19
ENDBRANCH  14  15
ENDBRANCH  12  13
TORSDOF 6
ENDMDL
MODEL 5
REMARK VINA RESULT:      -7.1     16.490     18.026
REMARK  Name = C:\Users\Docking\Desktop\test protocol\1iep_ligandH.pdb
REMARK  8 active torsions:
REMARK  status: ('A' for Active; 'I' for Inactive)
REMARK    1  A    between atoms: _5  and  _11
REMARK    2  A    between atoms: _19  and  _21
REMARK    3  A    between atoms: _22  and  _66
REMARK    4  A    between atoms: _27  and  _30
REMARK    5  A    between atoms: _32  and  _33
REMARK    6  A    between atoms: _38  and  _43
REMARK    7  A    between atoms: _43  and  _46
REMARK    8  A    between atoms: _53  and  _55
REMARK                            x       y       z     vdW  Elec       q    Type
REMARK                         _______ _______ _______ _____ _____    ______ ____
ROOT
ATOM     10  C   UNL     1      21.059   0.305   2.345  0.00  0.00    +0.038 A 
ATOM     11  C   UNL     1      21.448  -0.697   3.270  0.00  0.00    +0.047 A 
ATOM     12  C   UNL     1      20.769  -1.982   3.318  0.00  0.00    +0.035 A 
ATOM     32  C   UNL     1      19.698  -2.214   2.406  0.00  0.00    +0.024 A 
ATOM     33  C   UNL     1      19.288  -1.207   1.460  0.00  0.00    +0.007 A 
ATOM     34  C   UNL     1      19.954   0.064   1.410  0.00  0.00    -0.029 A 
ATOM     35  C   UNL     1      19.468   1.109   0.379  0.00  0.00    +0.045 C 
ENDROOT
BRANCH  10   9
ATOM      4  C   UNL     1      24.580   3.174   0.791  0.00  0.00    +0.077 A 
ATOM      5  C   UNL     1      25.110   2.155  -0.069  0.00  0.00    +0.048 A 
ATOM      6  C   UNL     1      24.452   0.905  -0.076  0.00  0.00    +0.116 A 
ATOM      7  N   UNL     1      23.347   0.700   0.720  0.00  0.00    -0.223 NA
ATOM      8  C   UNL     1      22.862   1.703   1.539  0.00  0.00    +0.220 A 
ATOM      9  N   UNL     1      21.747   1.521   2.342  0.00  0.00    -0.283 N 
ATOM     36  H   UNL     1      21.425   2.283   2.938  0.00  0.00    +0.155 HD
ATOM     37  N   UNL     1      23.473   2.905   1.566  0.00  0.00    -0.214 NA
BRANCH   4   3
ATOM      1  C   UNL     1      24.992   7.063   0.824  0.00  0.00    +0.020 A 
ATOM      2  C   UNL     1      24.381   5.760   0.699  0.00  0.00    +0.013 A 
ATOM      3  C   UNL     1      25.162   4.548   0.908  0.00  0.00    +0.019 A 
ATOM     38  C   UNL     1      26.571   4.690   1.246  0.00  0.00    +0.120 A 
ATOM     39  N   UNL     1      27.132   5.958   1.358  0.00  0.00    -0.263 NA
ATOM     40  C   UNL     1      26.390   7.132   1.158  0.00  0.00    +0.111 A 
ENDBRANCH   4   3
ENDBRANCH  10   9
BRANCH  12  13
ATOM     13  N   UNL     1      21.114  -3.035   4.241  0.00  0.00    -0.281 N 
ATOM     14  C   UNL     1      20.880  -3.082   5.605  0.00  0.00    +0.248 C 
ATOM     30  O   UNL     1      20.526  -2.126   6.279  0.00  0.00    -0.270 OA
ATOM     31  H   UNL     1      21.590  -3.843   3.840  0.00  0.00    +0.155 HD
BRANCH  14  15
ATOM     15  C   UNL     1      21.083  -4.374   6.329  0.00  0.00    +0.037 A 
ATOM     16  C   UNL     1      21.641  -5.546   5.649  0.00  0.00    +0.013 A 
ATOM     17  C   UNL     1      21.810  -6.785   6.366  0.00  0.00    +0.005 A 
ATOM     18  C   UNL     1      21.421  -6.858   7.772  0.00  0.00    -0.033 A 
ATOM     28  C   UNL     1      20.874  -5.679   8.423  0.00  0.00    +0.005 A 
ATOM     29  C   UNL     1      20.706  -4.462   7.723  0.00  0.00    +0.013 A 
BRANCH  18  19
ATOM     19  C   UNL     1      21.546  -8.145   8.609  0.00  0.00    +0.119 C 
BRANCH  19  20
ATOM     20  N   UNL     1      21.794  -7.987  10.073  0.00  0.00    -0.302 NA
ATOM     21  C   UNL     1      23.089  -8.675  10.514  0.00  0.00    +0.066 C 
ATOM     22  C   UNL     1      23.344  -8.481  12.044  0.00  0.00    -0.064 C 
ATOM     23  N   UNL     1      22.148  -9.021  12.831  0.00  0.00    +0.379 N 
ATOM     24  C   UNL     1      22.410  -8.893  14.272  0.00  0.00    -0.096 C 
ATOM     25  H   UNL     1      22.055 -10.108  12.599  0.00  0.00    -0.082 HD
ATOM     26  C   UNL     1      20.856  -8.344  12.397  0.00  0.00    -0.064 C 
ATOM     27  C   UNL     1      20.627  -8.518  10.869  0.00  0.00    +0.066 C 
ENDBRANCH  19  20
ENDBRANCH  18  19
ENDBRANCH  14  15
ENDBRANCH  12  13
TORSDOF 6
ENDMDL
