MODEL 1
REMARK VINA RESULT:      -8.4      0.000      0.000
REMARK  Name = C:\Users\Docking\Desktop\test protocol\1iep_ligandH.pdb
REMARK  8 active torsions:
REMARK  status: ('A' for Active; 'I' for Inactive)
REMARK    1  A    between atoms: _5  and  _11
REMARK    2  A    between atoms: _19  and  _21
REMARK    3  A    between atoms: _22  and  _66
REMARK    4  A    between atoms: _27  and  _30
REMARK    5  A    between atoms: _32  and  _33
REMARK    6  A    between atoms: _38  and  _43
REMARK    7  A    between atoms: _43  and  _46
REMARK    8  A    between atoms: _53  and  _55
REMARK                            x       y       z     vdW  Elec       q    Type
REMARK                         _______ _______ _______ _____ _____    ______ ____
ROOT
ATOM     10  C   UNL     1      19.766  17.153  19.369  0.00  0.00    +0.038 A 
ATOM     11  C   UNL     1      18.427  17.306  18.929  0.00  0.00    +0.047 A 
ATOM     12  C   UNL     1      17.770  18.603  18.954  0.00  0.00    +0.035 A 
ATOM     32  C   UNL     1      18.508  19.725  19.432  0.00  0.00    +0.024 A 
ATOM     33  C   UNL     1      19.870  19.587  19.885  0.00  0.00    +0.007 A 
ATOM     34  C   UNL     1      20.522  18.309  19.864  0.00  0.00    -0.029 A 
ATOM     35  C   UNL     1      21.982  18.219  20.368  0.00  0.00    +0.045 C 
ENDROOT
BRANCH  10   9
ATOM      4  C   UNL     1      21.034  13.001  21.416  0.00  0.00    +0.077 A 
ATOM      5  C   UNL     1      20.519  13.404  22.692  0.00  0.00    +0.048 A 
ATOM      6  C   UNL     1      19.942  14.691  22.782  0.00  0.00    +0.116 A 
ATOM      7  N   UNL     1      19.889  15.505  21.671  0.00  0.00    -0.223 NA
ATOM      8  C   UNL     1      20.397  15.085  20.455  0.00  0.00    +0.220 A 
ATOM      9  N   UNL     1      20.348  15.884  19.323  0.00  0.00    -0.283 N 
ATOM     36  H   UNL     1      20.740  15.541  18.446  0.00  0.00    +0.155 HD
ATOM     37  N   UNL     1      20.954  13.861  20.344  0.00  0.00    -0.214 NA
BRANCH   4   3
ATOM      1  C   UNL     1      23.334   9.849  21.692  0.00  0.00    +0.020 A 
ATOM      2  C   UNL     1      22.754  11.140  21.980  0.00  0.00    +0.013 A 
ATOM      3  C   UNL     1      21.671  11.670  21.162  0.00  0.00    +0.019 A 
ATOM     38  C   UNL     1      21.193  10.860  20.051  0.00  0.00    +0.120 A 
ATOM     39  N   UNL     1      21.772   9.621  19.796  0.00  0.00    -0.263 NA
ATOM     40  C   UNL     1      22.816   9.102  20.576  0.00  0.00    +0.111 A 
ENDBRANCH   4   3
ENDBRANCH  10   9
BRANCH  12  13
ATOM     13  N   UNL     1      16.409  18.818  18.527  0.00  0.00    -0.281 N 
ATOM     14  C   UNL     1      15.948  19.700  17.563  0.00  0.00    +0.248 C 
ATOM     30  O   UNL     1      16.617  20.595  17.069  0.00  0.00    -0.270 OA
ATOM     31  H   UNL     1      15.700  18.251  18.992  0.00  0.00    +0.155 HD
BRANCH  14  15
ATOM     15  C   UNL     1      14.536  19.578  17.090  0.00  0.00    +0.037 A 
ATOM     16  C   UNL     1      14.179  19.829  15.691  0.00  0.00    +0.013 A 
ATOM     17  C   UNL     1      12.806  19.721  15.265  0.00  0.00    +0.005 A 
ATOM     18  C   UNL     1      11.780  19.360  16.240  0.00  0.00    -0.033 A 
ATOM     28  C   UNL     1      12.162  19.112  17.620  0.00  0.00    +0.005 A 
ATOM     29  C   UNL     1      13.507  19.217  18.042  0.00  0.00    +0.013 A 
BRANCH  18  19
ATOM     19  C   UNL     1      10.287  19.243  15.878  0.00  0.00    +0.119 C 
BRANCH  19  20
ATOM     20  N   UNL     1       9.799  20.049  14.720  0.00  0.00    -0.302 NA
ATOM     21  C   UNL     1       9.770  21.548  15.034  0.00  0.00    +0.066 C 
ATOM     22  C   UNL     1       9.278  22.378  13.805  0.00  0.00    -0.064 C 
ATOM     23  N   UNL     1       7.893  21.887  13.382  0.00  0.00    +0.379 N 
ATOM     24  C   UNL     1       7.403  22.704  12.262  0.00  0.00    -0.096 C 
ATOM     25  H   UNL     1       7.202  22.043  14.243  0.00  0.00    -0.082 HD
ATOM     26  C   UNL     1       7.912  20.397  13.070  0.00  0.00    -0.064 C 
ATOM     27  C   UNL     1       8.430  19.584  14.288  0.00  0.00    +0.066 C 
ENDBRANCH  19  20
ENDBRANCH  18  19
ENDBRANCH  14  15
ENDBRANCH  12  13
TORSDOF 6
ENDMDL
MODEL 2
REMARK VINA RESULT:      -8.3      1.429      2.423
REMARK  Name = C:\Users\Docking\Desktop\test protocol\1iep_ligandH.pdb
REMARK  8 active torsions:
REMARK  status: ('A' for Active; 'I' for Inactive)
REMARK    1  A    between atoms: _5  and  _11
REMARK    2  A    between atoms: _19  and  _21
REMARK    3  A    between atoms: _22  and  _66
REMARK    4  A    between atoms: _27  and  _30
REMARK    5  A    between atoms: _32  and  _33
REMARK    6  A    between atoms: _38  and  _43
REMARK    7  A    between atoms: _43  and  _46
REMARK    8  A    between atoms: _53  and  _55
REMARK                            x       y       z     vdW  Elec       q    Type
REMARK                         _______ _______ _______ _____ _____    ______ ____
ROOT
ATOM     10  C   UNL     1      19.911  17.248  19.328  0.00  0.00    +0.038 A 
ATOM     11  C   UNL     1      18.614  17.524  18.823  0.00  0.00    +0.047 A 
ATOM     12  C   UNL     1      18.055  18.866  18.879  0.00  0.00    +0.035 A 
ATOM     32  C   UNL     1      18.845  19.904  19.455  0.00  0.00    +0.024 A 
ATOM     33  C   UNL     1      20.164  19.640  19.974  0.00  0.00    +0.007 A 
ATOM     34  C   UNL     1      20.720  18.319  19.924  0.00  0.00    -0.029 A 
ATOM     35  C   UNL     1      22.136  18.093  20.501  0.00  0.00    +0.045 C 
ENDROOT
BRANCH  10   9
ATOM      4  C   UNL     1      20.959  12.995  21.289  0.00  0.00    +0.077 A 
ATOM      5  C   UNL     1      20.523  13.419  22.588  0.00  0.00    +0.048 A 
ATOM      6  C   UNL     1      20.043  14.742  22.711  0.00  0.00    +0.116 A 
ATOM      7  N   UNL     1      20.005  15.570  21.609  0.00  0.00    -0.223 NA
ATOM      8  C   UNL     1      20.435  15.129  20.371  0.00  0.00    +0.220 A 
ATOM      9  N   UNL     1      20.398  15.942  19.249  0.00  0.00    -0.283 N 
ATOM     36  H   UNL     1      20.731  15.582  18.354  0.00  0.00    +0.155 HD
ATOM     37  N   UNL     1      20.899  13.871  20.228  0.00  0.00    -0.214 NA
BRANCH   4   3
ATOM      1  C   UNL     1      21.525   9.473  19.682  0.00  0.00    +0.020 A 
ATOM      2  C   UNL     1      20.977  10.789  19.920  0.00  0.00    +0.013 A 
ATOM      3  C   UNL     1      21.490  11.625  20.999  0.00  0.00    +0.019 A 
ATOM     38  C   UNL     1      22.566  11.096  21.823  0.00  0.00    +0.120 A 
ATOM     39  N   UNL     1      23.072   9.825  21.571  0.00  0.00    -0.263 NA
ATOM     40  C   UNL     1      22.586   9.011  20.537  0.00  0.00    +0.111 A 
ENDBRANCH   4   3
ENDBRANCH  10   9
BRANCH  12  13
ATOM     13  N   UNL     1      16.742  19.205  18.390  0.00  0.00    -0.281 N 
ATOM     14  C   UNL     1      16.417  19.977  17.287  0.00  0.00    +0.248 C 
ATOM     30  O   UNL     1      17.211  20.675  16.674  0.00  0.00    -0.270 OA
ATOM     31  H   UNL     1      15.956  18.829  18.921  0.00  0.00    +0.155 HD
BRANCH  14  15
ATOM     15  C   UNL     1      15.003  19.987  16.804  0.00  0.00    +0.037 A 
ATOM     16  C   UNL     1      13.900  19.563  17.670  0.00  0.00    +0.013 A 
ATOM     17  C   UNL     1      12.547  19.566  17.174  0.00  0.00    +0.005 A 
ATOM     18  C   UNL     1      12.289  19.998  15.802  0.00  0.00    -0.033 A 
ATOM     28  C   UNL     1      13.401  20.419  14.965  0.00  0.00    +0.005 A 
ATOM     29  C   UNL     1      14.728  20.416  15.449  0.00  0.00    +0.013 A 
BRANCH  18  19
ATOM     19  C   UNL     1      10.879  20.014  15.181  0.00  0.00    +0.119 C 
BRANCH  19  20
ATOM     20  N   UNL     1      10.060  18.772  15.314  0.00  0.00    -0.302 NA
ATOM     21  C   UNL     1      10.762  17.553  14.709  0.00  0.00    +0.066 C 
ATOM     22  C   UNL     1       9.901  16.259  14.877  0.00  0.00    -0.064 C 
ATOM     23  N   UNL     1       8.533  16.473  14.227  0.00  0.00    +0.379 N 
ATOM     24  C   UNL     1       7.742  15.238  14.332  0.00  0.00    -0.096 C 
ATOM     25  H   UNL     1       8.701  16.677  13.144  0.00  0.00    -0.082 HD
ATOM     26  C   UNL     1       7.829  17.685  14.821  0.00  0.00    -0.064 C 
ATOM     27  C   UNL     1       8.706  18.960  14.676  0.00  0.00    +0.066 C 
ENDBRANCH  19  20
ENDBRANCH  18  19
ENDBRANCH  14  15
ENDBRANCH  12  13
TORSDOF 6
ENDMDL
MODEL 3
REMARK VINA RESULT:      -8.3      9.647     14.194
REMARK  Name = C:\Users\Docking\Desktop\test protocol\1iep_ligandH.pdb
REMARK  8 active torsions:
REMARK  status: ('A' for Active; 'I' for Inactive)
REMARK    1  A    between atoms: _5  and  _11
REMARK    2  A    between atoms: _19  and  _21
REMARK    3  A    between atoms: _22  and  _66
REMARK    4  A    between atoms: _27  and  _30
REMARK    5  A    between atoms: _32  and  _33
REMARK    6  A    between atoms: _38  and  _43
REMARK    7  A    between atoms: _43  and  _46
REMARK    8  A    between atoms: _53  and  _55
REMARK                            x       y       z     vdW  Elec       q    Type
REMARK                         _______ _______ _______ _____ _____    ______ ____
ROOT
ATOM     10  C   UNL     1       8.745  17.711  14.913  0.00  0.00    +0.038 A 
ATOM     11  C   UNL     1       7.379  17.332  14.961  0.00  0.00    +0.047 A 
ATOM     12  C   UNL     1       6.989  15.935  15.058  0.00  0.00    +0.035 A 
ATOM     32  C   UNL     1       8.016  14.948  15.105  0.00  0.00    +0.024 A 
ATOM     33  C   UNL     1       9.410  15.315  15.056  0.00  0.00    +0.007 A 
ATOM     34  C   UNL     1       9.801  16.692  14.958  0.00  0.00    -0.029 A 
ATOM     35  C   UNL     1      11.310  17.027  14.902  0.00  0.00    +0.045 C 
ENDROOT
BRANCH  10   9
ATOM      4  C   UNL     1      10.120  21.576  12.421  0.00  0.00    +0.077 A 
ATOM      5  C   UNL     1      10.240  20.822  11.205  0.00  0.00    +0.048 A 
ATOM      6  C   UNL     1       9.946  19.442  11.266  0.00  0.00    +0.116 A 
ATOM      7  N   UNL     1       9.561  18.868  12.458  0.00  0.00    -0.223 NA
ATOM      8  C   UNL     1       9.457  19.623  13.612  0.00  0.00    +0.220 A 
ATOM      9  N   UNL     1       9.064  19.068  14.820  0.00  0.00    -0.283 N 
ATOM     36  H   UNL     1       9.006  19.657  15.651  0.00  0.00    +0.155 HD
ATOM     37  N   UNL     1       9.734  20.943  13.581  0.00  0.00    -0.214 NA
BRANCH   4   3
ATOM      1  C   UNL     1       9.900  25.452  11.949  0.00  0.00    +0.020 A 
ATOM      2  C   UNL     1       9.595  24.046  11.822  0.00  0.00    +0.013 A 
ATOM      3  C   UNL     1      10.393  23.044  12.517  0.00  0.00    +0.019 A 
ATOM     38  C   UNL     1      11.503  23.503  13.339  0.00  0.00    +0.120 A 
ATOM     39  N   UNL     1      11.775  24.863  13.441  0.00  0.00    -0.263 NA
ATOM     40  C   UNL     1      11.014  25.836  12.776  0.00  0.00    +0.111 A 
ENDBRANCH   4   3
ENDBRANCH  10   9
BRANCH  12  13
ATOM     13  N   UNL     1       5.618  15.490  15.102  0.00  0.00    -0.281 N 
ATOM     14  C   UNL     1       4.822  15.294  16.219  0.00  0.00    +0.248 C 
ATOM     30  O   UNL     1       5.238  15.267  17.368  0.00  0.00    -0.270 OA
ATOM     31  H   UNL     1       5.181  15.296  14.201  0.00  0.00    +0.155 HD
BRANCH  14  15
ATOM     15  C   UNL     1       3.354  15.083  16.032  0.00  0.00    +0.037 A 
ATOM     16  C   UNL     1       2.794  14.760  14.717  0.00  0.00    +0.013 A 
ATOM     17  C   UNL     1       1.373  14.578  14.561  0.00  0.00    +0.005 A 
ATOM     18  C   UNL     1       0.501  14.719  15.724  0.00  0.00    -0.033 A 
ATOM     28  C   UNL     1       1.083  15.035  17.018  0.00  0.00    +0.005 A 
ATOM     29  C   UNL     1       2.476  15.215  17.175  0.00  0.00    +0.013 A 
BRANCH  18  19
ATOM     19  C   UNL     1      -1.029  14.563  15.646  0.00  0.00    +0.119 C 
BRANCH  19  20
ATOM     20  N   UNL     1      -1.810  15.730  15.137  0.00  0.00    -0.302 NA
ATOM     21  C   UNL     1      -1.711  15.869  13.616  0.00  0.00    +0.066 C 
ATOM     22  C   UNL     1      -2.551  17.081  13.098  0.00  0.00    -0.064 C 
ATOM     23  N   UNL     1      -2.077  18.360  13.790  0.00  0.00    +0.379 N 
ATOM     24  C   UNL     1      -2.826  19.510  13.264  0.00  0.00    -0.096 C 
ATOM     25  H   UNL     1      -1.003  18.507  13.529  0.00  0.00    -0.082 HD
ATOM     26  C   UNL     1      -2.170  18.230  15.304  0.00  0.00    -0.064 C 
ATOM     27  C   UNL     1      -1.355  17.005  15.805  0.00  0.00    +0.066 C 
ENDBRANCH  19  20
ENDBRANCH  18  19
ENDBRANCH  14  15
ENDBRANCH  12  13
TORSDOF 6
ENDMDL
MODEL 4
REMARK VINA RESULT:      -8.2      9.371     13.430
REMARK  Name = C:\Users\Docking\Desktop\test protocol\1iep_ligandH.pdb
REMARK  8 active torsions:
REMARK  status: ('A' for Active; 'I' for Inactive)
REMARK    1  A    between atoms: _5  and  _11
REMARK    2  A    between atoms: _19  and  _21
REMARK    3  A    between atoms: _22  and  _66
REMARK    4  A    between atoms: _27  and  _30
REMARK    5  A    between atoms: _32  and  _33
REMARK    6  A    between atoms: _38  and  _43
REMARK    7  A    between atoms: _43  and  _46
REMARK    8  A    between atoms: _53  and  _55
REMARK                            x       y       z     vdW  Elec       q    Type
REMARK                         _______ _______ _______ _____ _____    ______ ____
ROOT
ATOM     10  C   UNL     1       8.776  17.610  14.543  0.00  0.00    +0.038 A 
ATOM     11  C   UNL     1       7.397  17.490  14.850  0.00  0.00    +0.047 A 
ATOM     12  C   UNL     1       6.804  16.196  15.154  0.00  0.00    +0.035 A 
ATOM     32  C   UNL     1       7.646  15.047  15.139  0.00  0.00    +0.024 A 
ATOM     33  C   UNL     1       9.050  15.151  14.827  0.00  0.00    +0.007 A 
ATOM     34  C   UNL     1       9.640  16.424  14.524  0.00  0.00    -0.029 A 
ATOM     35  C   UNL     1      11.149  16.475  14.191  0.00  0.00    +0.045 C 
ENDROOT
BRANCH  10   9
ATOM      4  C   UNL     1      10.994  21.665  15.838  0.00  0.00    +0.077 A 
ATOM      5  C   UNL     1      11.109  21.236  17.202  0.00  0.00    +0.048 A 
ATOM      6  C   UNL     1      10.578  19.968  17.531  0.00  0.00    +0.116 A 
ATOM      7  N   UNL     1       9.980  19.196  16.559  0.00  0.00    -0.223 NA
ATOM      8  C   UNL     1       9.884  19.640  15.253  0.00  0.00    +0.220 A 
ATOM      9  N   UNL     1       9.293  18.876  14.259  0.00  0.00    -0.283 N 
ATOM     36  H   UNL     1       9.235  19.243  13.309  0.00  0.00    +0.155 HD
ATOM     37  N   UNL     1      10.381  20.848  14.915  0.00  0.00    -0.214 NA
BRANCH   4   3
ATOM      1  C   UNL     1      12.711  25.174  15.642  0.00  0.00    +0.020 A 
ATOM      2  C   UNL     1      12.235  23.920  16.178  0.00  0.00    +0.013 A 
ATOM      3  C   UNL     1      11.508  22.978  15.335  0.00  0.00    +0.019 A 
ATOM     38  C   UNL     1      11.280  23.339  13.944  0.00  0.00    +0.120 A 
ATOM     39  N   UNL     1      11.749  24.554  13.456  0.00  0.00    -0.263 NA
ATOM     40  C   UNL     1      12.447  25.469  14.258  0.00  0.00    +0.111 A 
ENDBRANCH   4   3
ENDBRANCH  10   9
BRANCH  12  13
ATOM     13  N   UNL     1       5.408  16.011  15.466  0.00  0.00    -0.281 N 
ATOM     14  C   UNL     1       4.758  16.287  16.657  0.00  0.00    +0.248 C 
ATOM     30  O   UNL     1       5.323  16.538  17.711  0.00  0.00    -0.270 OA
ATOM     31  H   UNL     1       4.830  15.630  14.717  0.00  0.00    +0.155 HD
BRANCH  14  15
ATOM     15  C   UNL     1       3.264  16.269  16.685  0.00  0.00    +0.037 A 
ATOM     16  C   UNL     1       2.499  17.417  17.178  0.00  0.00    +0.013 A 
ATOM     17  C   UNL     1       1.058  17.367  17.210  0.00  0.00    +0.005 A 
ATOM     18  C   UNL     1       0.374  16.163  16.746  0.00  0.00    -0.033 A 
ATOM     28  C   UNL     1       1.157  15.040  16.257  0.00  0.00    +0.005 A 
ATOM     29  C   UNL     1       2.569  15.086  16.225  0.00  0.00    +0.013 A 
BRANCH  18  19
ATOM     19  C   UNL     1      -1.159  16.013  16.764  0.00  0.00    +0.119 C 
BRANCH  19  20
ATOM     20  N   UNL     1      -1.880  16.200  15.469  0.00  0.00    -0.302 NA
ATOM     21  C   UNL     1      -1.896  14.918  14.631  0.00  0.00    +0.066 C 
ATOM     22  C   UNL     1      -2.673  15.126  13.290  0.00  0.00    -0.064 C 
ATOM     23  N   UNL     1      -2.038  16.277  12.508  0.00  0.00    +0.379 N 
ATOM     24  C   UNL     1      -2.730  16.436  11.221  0.00  0.00    -0.096 C 
ATOM     25  H   UNL     1      -0.981  15.996  12.292  0.00  0.00    -0.082 HD
ATOM     26  C   UNL     1      -2.016  17.554  13.336  0.00  0.00    -0.064 C 
ATOM     27  C   UNL     1      -1.266  17.329  14.679  0.00  0.00    +0.066 C 
ENDBRANCH  19  20
ENDBRANCH  18  19
ENDBRANCH  14  15
ENDBRANCH  12  13
TORSDOF 6
ENDMDL
MODEL 5
REMARK VINA RESULT:      -8.2      2.802     12.488
REMARK  Name = C:\Users\Docking\Desktop\test protocol\1iep_ligandH.pdb
REMARK  8 active torsions:
REMARK  status: ('A' for Active; 'I' for Inactive)
REMARK    1  A    between atoms: _5  and  _11
REMARK    2  A    between atoms: _19  and  _21
REMARK    3  A    between atoms: _22  and  _66
REMARK    4  A    between atoms: _27  and  _30
REMARK    5  A    between atoms: _32  and  _33
REMARK    6  A    between atoms: _38  and  _43
REMARK    7  A    between atoms: _43  and  _46
REMARK    8  A    between atoms: _53  and  _55
REMARK                            x       y       z     vdW  Elec       q    Type
REMARK                         _______ _______ _______ _____ _____    ______ ____
ROOT
ATOM     10  C   UNL     1      11.645  20.324  14.866  0.00  0.00    +0.038 A 
ATOM     11  C   UNL     1      12.871  19.996  15.500  0.00  0.00    +0.047 A 
ATOM     12  C   UNL     1      14.143  20.450  14.959  0.00  0.00    +0.035 A 
ATOM     32  C   UNL     1      14.129  21.240  13.773  0.00  0.00    +0.024 A 
ATOM     33  C   UNL     1      12.892  21.582  13.115  0.00  0.00    +0.007 A 
ATOM     34  C   UNL     1      11.635  21.135  13.643  0.00  0.00    -0.029 A 
ATOM     35  C   UNL     1      10.341  21.526  12.892  0.00  0.00    +0.045 C 
ENDROOT
BRANCH  10   9
ATOM      4  C   UNL     1       8.384  16.888  15.639  0.00  0.00    +0.077 A 
ATOM      5  C   UNL     1       9.101  15.944  14.833  0.00  0.00    +0.048 A 
ATOM      6  C   UNL     1      10.302  16.384  14.231  0.00  0.00    +0.116 A 
ATOM      7  N   UNL     1      10.742  17.674  14.428  0.00  0.00    -0.223 NA
ATOM      8  C   UNL     1      10.025  18.561  15.210  0.00  0.00    +0.220 A 
ATOM      9  N   UNL     1      10.453  19.861  15.428  0.00  0.00    -0.283 N 
ATOM     36  H   UNL     1       9.892  20.487  16.006  0.00  0.00    +0.155 HD
ATOM     37  N   UNL     1       8.875  18.165  15.795  0.00  0.00    -0.214 NA
BRANCH   4   3
ATOM      1  C   UNL     1       4.628  16.076  16.370  0.00  0.00    +0.020 A 
ATOM      2  C   UNL     1       5.838  16.380  15.642  0.00  0.00    +0.013 A 
ATOM      3  C   UNL     1       7.101  16.573  16.344  0.00  0.00    +0.019 A 
ATOM     38  C   UNL     1       7.105  16.450  17.794  0.00  0.00    +0.120 A 
ATOM     39  N   UNL     1       5.923  16.158  18.468  0.00  0.00    -0.263 NA
ATOM     40  C   UNL     1       4.702  15.972  17.803  0.00  0.00    +0.111 A 
ENDBRANCH   4   3
ENDBRANCH  10   9
BRANCH  12  13
ATOM     13  N   UNL     1      15.419  20.141  15.555  0.00  0.00    -0.281 N 
ATOM     14  C   UNL     1      16.133  20.890  16.476  0.00  0.00    +0.248 C 
ATOM     30  O   UNL     1      15.879  22.049  16.769  0.00  0.00    -0.270 OA
ATOM     31  H   UNL     1      15.849  19.264  15.261  0.00  0.00    +0.155 HD
BRANCH  14  15
ATOM     15  C   UNL     1      17.306  20.266  17.160  0.00  0.00    +0.037 A 
ATOM     16  C   UNL     1      18.638  20.872  17.090  0.00  0.00    +0.013 A 
ATOM     17  C   UNL     1      19.756  20.241  17.745  0.00  0.00    +0.005 A 
ATOM     18  C   UNL     1      19.546  18.994  18.478  0.00  0.00    -0.033 A 
ATOM     28  C   UNL     1      18.213  18.417  18.536  0.00  0.00    +0.005 A 
ATOM     29  C   UNL     1      17.115  19.033  17.894  0.00  0.00    +0.013 A 
BRANCH  18  19
ATOM     19  C   UNL     1      20.685  18.240  19.189  0.00  0.00    +0.119 C 
BRANCH  19  20
ATOM     20  N   UNL     1      20.300  17.269  20.256  0.00  0.00    -0.302 NA
ATOM     21  C   UNL     1      21.276  17.294  21.435  0.00  0.00    +0.066 C 
ATOM     22  C   UNL     1      20.846  16.288  22.552  0.00  0.00    -0.064 C 
ATOM     23  N   UNL     1      20.750  14.882  21.958  0.00  0.00    +0.379 N 
ATOM     24  C   UNL     1      20.402  13.924  23.018  0.00  0.00    -0.096 C 
ATOM     25  H   UNL     1      21.760  14.608  21.573  0.00  0.00    -0.082 HD
ATOM     26  C   UNL     1      19.783  14.848  20.783  0.00  0.00    -0.064 C 
ATOM     27  C   UNL     1      20.203  15.872  19.692  0.00  0.00    +0.066 C 
ENDBRANCH  19  20
ENDBRANCH  18  19
ENDBRANCH  14  15
ENDBRANCH  12  13
TORSDOF 6
ENDMDL
