MODEL 1
REMARK VINA RESULT:      -8.5      0.000      0.000
REMARK  Name = C:\Users\Docking\Desktop\test protocol\1iep_ligandH.pdb
REMARK  8 active torsions:
REMARK  status: ('A' for Active; 'I' for Inactive)
REMARK    1  A    between atoms: _5  and  _11
REMARK    2  A    between atoms: _19  and  _21
REMARK    3  A    between atoms: _22  and  _66
REMARK    4  A    between atoms: _27  and  _30
REMARK    5  A    between atoms: _32  and  _33
REMARK    6  A    between atoms: _38  and  _43
REMARK    7  A    between atoms: _43  and  _46
REMARK    8  A    between atoms: _53  and  _55
REMARK                            x       y       z     vdW  Elec       q    Type
REMARK                         _______ _______ _______ _____ _____    ______ ____
ROOT
ATOM     10  C   UNL     1      20.087  17.223  19.034  0.00  0.00    +0.038 A 
ATOM     11  C   UNL     1      18.779  17.386  18.510  0.00  0.00    +0.047 A 
ATOM     12  C   UNL     1      18.153  18.697  18.443  0.00  0.00    +0.035 A 
ATOM     32  C   UNL     1      18.889  19.822  18.916  0.00  0.00    +0.024 A 
ATOM     33  C   UNL     1      20.218  19.675  19.453  0.00  0.00    +0.007 A 
ATOM     34  C   UNL     1      20.840  18.384  19.524  0.00  0.00    -0.029 A 
ATOM     35  C   UNL     1      22.266  18.284  20.116  0.00  0.00    +0.045 C 
ENDROOT
BRANCH  10   9
ATOM      4  C   UNL     1      21.266  13.194  21.361  0.00  0.00    +0.077 A 
ATOM      5  C   UNL     1      20.761  13.696  22.607  0.00  0.00    +0.048 A 
ATOM      6  C   UNL     1      20.213  14.998  22.608  0.00  0.00    +0.116 A 
ATOM      7  N   UNL     1      20.177  15.735  21.444  0.00  0.00    -0.223 NA
ATOM      8  C   UNL     1      20.673  15.221  20.259  0.00  0.00    +0.220 A 
ATOM      9  N   UNL     1      20.640  15.941  19.075  0.00  0.00    -0.283 N 
ATOM     36  H   UNL     1      21.023  15.530  18.224  0.00  0.00    +0.155 HD
ATOM     37  N   UNL     1      21.203  13.981  20.233  0.00  0.00    -0.214 NA
BRANCH   4   3
ATOM      1  C   UNL     1      23.410   9.972  21.924  0.00  0.00    +0.020 A 
ATOM      2  C   UNL     1      22.856  11.290  22.126  0.00  0.00    +0.013 A 
ATOM      3  C   UNL     1      21.872  11.835  21.199  0.00  0.00    +0.019 A 
ATOM     38  C   UNL     1      21.466  11.013  20.069  0.00  0.00    +0.120 A 
ATOM     39  N   UNL     1      22.018   9.747  19.899  0.00  0.00    -0.263 NA
ATOM     40  C   UNL     1      22.967   9.213  20.783  0.00  0.00    +0.111 A 
ENDBRANCH   4   3
ENDBRANCH  10   9
BRANCH  12  13
ATOM     13  N   UNL     1      16.825  18.922  17.928  0.00  0.00    -0.281 N 
ATOM     14  C   UNL     1      16.452  19.701  16.845  0.00  0.00    +0.248 C 
ATOM     30  O   UNL     1      17.187  20.497  16.280  0.00  0.00    -0.270 OA
ATOM     31  H   UNL     1      16.068  18.450  18.423  0.00  0.00    +0.155 HD
BRANCH  14  15
ATOM     15  C   UNL     1      15.056  19.589  16.322  0.00  0.00    +0.037 A 
ATOM     16  C   UNL     1      13.921  19.379  17.224  0.00  0.00    +0.013 A 
ATOM     17  C   UNL     1      12.587  19.258  16.692  0.00  0.00    +0.005 A 
ATOM     18  C   UNL     1      12.381  19.348  15.248  0.00  0.00    -0.033 A 
ATOM     28  C   UNL     1      13.524  19.562  14.376  0.00  0.00    +0.005 A 
ATOM     29  C   UNL     1      14.833  19.680  14.894  0.00  0.00    +0.013 A 
BRANCH  18  19
ATOM     19  C   UNL     1      10.995  19.209  14.591  0.00  0.00    +0.119 C 
BRANCH  19  20
ATOM     20  N   UNL     1      10.420  20.426  13.944  0.00  0.00    -0.302 NA
ATOM     21  C   UNL     1      10.519  21.658  14.848  0.00  0.00    +0.066 C 
ATOM     22  C   UNL     1       9.933  22.927  14.148  0.00  0.00    -0.064 C 
ATOM     23  N   UNL     1       8.480  22.662  13.751  0.00  0.00    +0.379 N 
ATOM     24  C   UNL     1       7.908  23.873  13.144  0.00  0.00    -0.096 C 
ATOM     25  H   UNL     1       7.908  22.449  14.685  0.00  0.00    -0.082 HD
ATOM     26  C   UNL     1       8.371  21.437  12.855  0.00  0.00    -0.064 C 
ATOM     27  C   UNL     1       8.983  20.188  13.549  0.00  0.00    +0.066 C 
ENDBRANCH  19  20
ENDBRANCH  18  19
ENDBRANCH  14  15
ENDBRANCH  12  13
TORSDOF 6
ENDMDL
MODEL 2
REMARK VINA RESULT:      -8.2      3.753     14.017
REMARK  Name = C:\Users\Docking\Desktop\test protocol\1iep_ligandH.pdb
REMARK  8 active torsions:
REMARK  status: ('A' for Active; 'I' for Inactive)
REMARK    1  A    between atoms: _5  and  _11
REMARK    2  A    between atoms: _19  and  _21
REMARK    3  A    between atoms: _22  and  _66
REMARK    4  A    between atoms: _27  and  _30
REMARK    5  A    between atoms: _32  and  _33
REMARK    6  A    between atoms: _38  and  _43
REMARK    7  A    between atoms: _43  and  _46
REMARK    8  A    between atoms: _53  and  _55
REMARK                            x       y       z     vdW  Elec       q    Type
REMARK                         _______ _______ _______ _____ _____    ______ ____
ROOT
ATOM     10  C   UNL     1      18.925  16.274  20.553  0.00  0.00    +0.038 A 
ATOM     11  C   UNL     1      19.560  15.137  19.990  0.00  0.00    +0.047 A 
ATOM     12  C   UNL     1      20.482  14.327  20.772  0.00  0.00    +0.035 A 
ATOM     32  C   UNL     1      20.732  14.703  22.124  0.00  0.00    +0.024 A 
ATOM     33  C   UNL     1      20.096  15.856  22.711  0.00  0.00    +0.007 A 
ATOM     34  C   UNL     1      19.187  16.660  21.944  0.00  0.00    -0.029 A 
ATOM     35  C   UNL     1      18.539  17.889  22.623  0.00  0.00    +0.045 C 
ENDROOT
BRANCH  10   9
ATOM      4  C   UNL     1      17.959  19.924  17.589  0.00  0.00    +0.077 A 
ATOM      5  C   UNL     1      19.307  20.410  17.652  0.00  0.00    +0.048 A 
ATOM      6  C   UNL     1      20.216  19.696  18.465  0.00  0.00    +0.116 A 
ATOM      7  N   UNL     1      19.798  18.580  19.157  0.00  0.00    -0.223 NA
ATOM      8  C   UNL     1      18.490  18.140  19.075  0.00  0.00    +0.220 A 
ATOM      9  N   UNL     1      18.049  17.016  19.757  0.00  0.00    -0.283 N 
ATOM     36  H   UNL     1      17.074  16.728  19.677  0.00  0.00    +0.155 HD
ATOM     37  N   UNL     1      17.602  18.805  18.308  0.00  0.00    -0.214 NA
BRANCH   4   3
ATOM      1  C   UNL     1      14.667  20.532  15.565  0.00  0.00    +0.020 A 
ATOM      2  C   UNL     1      15.677  19.864  16.353  0.00  0.00    +0.013 A 
ATOM      3  C   UNL     1      16.882  20.568  16.772  0.00  0.00    +0.019 A 
ATOM     38  C   UNL     1      17.036  21.960  16.375  0.00  0.00    +0.120 A 
ATOM     39  N   UNL     1      16.048  22.577  15.614  0.00  0.00    -0.263 NA
ATOM     40  C   UNL     1      14.884  21.909  15.204  0.00  0.00    +0.111 A 
ENDBRANCH   4   3
ENDBRANCH  10   9
BRANCH  12  13
ATOM     13  N   UNL     1      21.163  13.167  20.252  0.00  0.00    -0.281 N 
ATOM     14  C   UNL     1      21.762  12.142  20.965  0.00  0.00    +0.248 C 
ATOM     30  O   UNL     1      21.991  12.175  22.165  0.00  0.00    -0.270 OA
ATOM     31  H   UNL     1      21.208  13.093  19.236  0.00  0.00    +0.155 HD
BRANCH  14  15
ATOM     15  C   UNL     1      22.181  10.905  20.236  0.00  0.00    +0.037 A 
ATOM     16  C   UNL     1      23.588  10.653  19.914  0.00  0.00    +0.013 A 
ATOM     17  C   UNL     1      23.963   9.461  19.196  0.00  0.00    +0.005 A 
ATOM     18  C   UNL     1      22.928   8.510  18.796  0.00  0.00    -0.033 A 
ATOM     28  C   UNL     1      21.540   8.783  19.134  0.00  0.00    +0.005 A 
ATOM     29  C   UNL     1      21.169   9.951  19.837  0.00  0.00    +0.013 A 
BRANCH  18  19
ATOM     19  C   UNL     1      23.234   7.222  18.009  0.00  0.00    +0.119 C 
BRANCH  19  20
ATOM     20  N   UNL     1      23.371   5.958  18.792  0.00  0.00    -0.302 NA
ATOM     21  C   UNL     1      24.072   6.187  20.134  0.00  0.00    +0.066 C 
ATOM     22  C   UNL     1      24.187   4.858  20.950  0.00  0.00    -0.064 C 
ATOM     23  N   UNL     1      24.935   3.815  20.118  0.00  0.00    +0.379 N 
ATOM     24  C   UNL     1      25.095   2.583  20.904  0.00  0.00    -0.096 C 
ATOM     25  H   UNL     1      25.953   4.217  19.907  0.00  0.00    -0.082 HD
ATOM     26  C   UNL     1      24.245   3.584  18.781  0.00  0.00    -0.064 C 
ATOM     27  C   UNL     1      24.110   4.915  17.991  0.00  0.00    +0.066 C 
ENDBRANCH  19  20
ENDBRANCH  18  19
ENDBRANCH  14  15
ENDBRANCH  12  13
TORSDOF 6
ENDMDL
MODEL 3
REMARK VINA RESULT:      -8.1      6.880     13.534
REMARK  Name = C:\Users\Docking\Desktop\test protocol\1iep_ligandH.pdb
REMARK  8 active torsions:
REMARK  status: ('A' for Active; 'I' for Inactive)
REMARK    1  A    between atoms: _5  and  _11
REMARK    2  A    between atoms: _19  and  _21
REMARK    3  A    between atoms: _22  and  _66
REMARK    4  A    between atoms: _27  and  _30
REMARK    5  A    between atoms: _32  and  _33
REMARK    6  A    between atoms: _38  and  _43
REMARK    7  A    between atoms: _43  and  _46
REMARK    8  A    between atoms: _53  and  _55
REMARK                            x       y       z     vdW  Elec       q    Type
REMARK                         _______ _______ _______ _____ _____    ______ ____
ROOT
ATOM     10  C   UNL     1      24.054   3.898  19.654  0.00  0.00    +0.038 A 
ATOM     11  C   UNL     1      23.666   5.208  20.033  0.00  0.00    +0.047 A 
ATOM     12  C   UNL     1      24.055   6.367  19.244  0.00  0.00    +0.035 A 
ATOM     32  C   UNL     1      24.838   6.154  18.073  0.00  0.00    +0.024 A 
ATOM     33  C   UNL     1      25.242   4.829  17.673  0.00  0.00    +0.007 A 
ATOM     34  C   UNL     1      24.864   3.683  18.448  0.00  0.00    -0.029 A 
ATOM     35  C   UNL     1      25.331   2.286  17.976  0.00  0.00    +0.045 C 
ENDROOT
BRANCH  10   9
ATOM      4  C   UNL     1      24.558   1.038  23.476  0.00  0.00    +0.077 A 
ATOM      5  C   UNL     1      25.736   1.730  23.912  0.00  0.00    +0.048 A 
ATOM      6  C   UNL     1      26.184   2.812  23.121  0.00  0.00    +0.116 A 
ATOM      7  N   UNL     1      25.496   3.167  21.981  0.00  0.00    -0.223 NA
ATOM      8  C   UNL     1      24.364   2.477  21.587  0.00  0.00    +0.220 A 
ATOM      9  N   UNL     1      23.652   2.822  20.448  0.00  0.00    -0.283 N 
ATOM     36  H   UNL     1      22.826   2.284  20.188  0.00  0.00    +0.155 HD
ATOM     37  N   UNL     1      23.917   1.440  22.325  0.00  0.00    -0.214 NA
BRANCH   4   3
ATOM      1  C   UNL     1      22.292  -1.141  25.803  0.00  0.00    +0.020 A 
ATOM      2  C   UNL     1      22.834   0.013  25.123  0.00  0.00    +0.013 A 
ATOM      3  C   UNL     1      23.959  -0.123  24.207  0.00  0.00    +0.019 A 
ATOM     38  C   UNL     1      24.517  -1.451  23.998  0.00  0.00    +0.120 A 
ATOM     39  N   UNL     1      23.976  -2.543  24.669  0.00  0.00    -0.263 NA
ATOM     40  C   UNL     1      22.894  -2.425  25.554  0.00  0.00    +0.111 A 
ENDBRANCH   4   3
ENDBRANCH  10   9
BRANCH  12  13
ATOM     13  N   UNL     1      23.697   7.722  19.585  0.00  0.00    -0.281 N 
ATOM     14  C   UNL     1      22.582   8.436  19.178  0.00  0.00    +0.248 C 
ATOM     30  O   UNL     1      21.827   8.087  18.283  0.00  0.00    -0.270 OA
ATOM     31  H   UNL     1      24.345   8.214  20.200  0.00  0.00    +0.155 HD
BRANCH  14  15
ATOM     15  C   UNL     1      22.268   9.731  19.854  0.00  0.00    +0.037 A 
ATOM     16  C   UNL     1      22.858  10.075  21.150  0.00  0.00    +0.013 A 
ATOM     17  C   UNL     1      22.526  11.324  21.788  0.00  0.00    +0.005 A 
ATOM     18  C   UNL     1      21.598  12.240  21.129  0.00  0.00    -0.033 A 
ATOM     28  C   UNL     1      21.031  11.876  19.841  0.00  0.00    +0.005 A 
ATOM     29  C   UNL     1      21.354  10.652  19.213  0.00  0.00    +0.013 A 
BRANCH  18  19
ATOM     19  C   UNL     1      21.170  13.584  21.747  0.00  0.00    +0.119 C 
BRANCH  19  20
ATOM     20  N   UNL     1      20.933  14.722  20.809  0.00  0.00    -0.302 NA
ATOM     21  C   UNL     1      21.588  16.017  21.300  0.00  0.00    +0.066 C 
ATOM     22  C   UNL     1      21.349  17.191  20.296  0.00  0.00    -0.064 C 
ATOM     23  N   UNL     1      19.846  17.388  20.094  0.00  0.00    +0.379 N 
ATOM     24  C   UNL     1      19.617  18.530  19.197  0.00  0.00    -0.096 C 
ATOM     25  H   UNL     1      19.402  17.643  21.085  0.00  0.00    -0.082 HD
ATOM     26  C   UNL     1      19.186  16.105  19.609  0.00  0.00    -0.064 C 
ATOM     27  C   UNL     1      19.454  14.937  20.599  0.00  0.00    +0.066 C 
ENDBRANCH  19  20
ENDBRANCH  18  19
ENDBRANCH  14  15
ENDBRANCH  12  13
TORSDOF 6
ENDMDL
MODEL 4
REMARK VINA RESULT:      -8.0      6.566     14.684
REMARK  Name = C:\Users\Docking\Desktop\test protocol\1iep_ligandH.pdb
REMARK  8 active torsions:
REMARK  status: ('A' for Active; 'I' for Inactive)
REMARK    1  A    between atoms: _5  and  _11
REMARK    2  A    between atoms: _19  and  _21
REMARK    3  A    between atoms: _22  and  _66
REMARK    4  A    between atoms: _27  and  _30
REMARK    5  A    between atoms: _32  and  _33
REMARK    6  A    between atoms: _38  and  _43
REMARK    7  A    between atoms: _43  and  _46
REMARK    8  A    between atoms: _53  and  _55
REMARK                            x       y       z     vdW  Elec       q    Type
REMARK                         _______ _______ _______ _____ _____    ______ ____
ROOT
ATOM     10  C   UNL     1      20.618  15.022  20.994  0.00  0.00    +0.038 A 
ATOM     11  C   UNL     1      21.070  13.900  20.253  0.00  0.00    +0.047 A 
ATOM     12  C   UNL     1      21.408  12.649  20.913  0.00  0.00    +0.035 A 
ATOM     32  C   UNL     1      21.272  12.575  22.330  0.00  0.00    +0.024 A 
ATOM     33  C   UNL     1      20.816  13.706  23.099  0.00  0.00    +0.007 A 
ATOM     34  C   UNL     1      20.483  14.943  22.453  0.00  0.00    -0.029 A 
ATOM     35  C   UNL     1      20.005  16.125  23.328  0.00  0.00    +0.045 C 
ENDROOT
BRANCH  10   9
ATOM      4  C   UNL     1      21.765  19.365  19.303  0.00  0.00    +0.077 A 
ATOM      5  C   UNL     1      23.087  19.296  19.856  0.00  0.00    +0.048 A 
ATOM      6  C   UNL     1      23.430  18.129  20.574  0.00  0.00    +0.116 A 
ATOM      7  N   UNL     1      22.512  17.112  20.722  0.00  0.00    -0.223 NA
ATOM      8  C   UNL     1      21.244  17.212  20.178  0.00  0.00    +0.220 A 
ATOM      9  N   UNL     1      20.307  16.198  20.308  0.00  0.00    -0.283 N 
ATOM     36  H   UNL     1      19.380  16.313  19.899  0.00  0.00    +0.155 HD
ATOM     37  N   UNL     1      20.892  18.317  19.489  0.00  0.00    -0.214 NA
BRANCH   4   3
ATOM      1  C   UNL     1      20.082  21.545  16.526  0.00  0.00    +0.020 A 
ATOM      2  C   UNL     1      20.555  20.385  17.246  0.00  0.00    +0.013 A 
ATOM      3  C   UNL     1      21.255  20.532  18.516  0.00  0.00    +0.019 A 
ATOM     38  C   UNL     1      21.461  21.876  19.034  0.00  0.00    +0.120 A 
ATOM     39  N   UNL     1      20.995  22.974  18.317  0.00  0.00    -0.263 NA
ATOM     40  C   UNL     1      20.322  22.846  17.093  0.00  0.00    +0.111 A 
ENDBRANCH   4   3
ENDBRANCH  10   9
BRANCH  12  13
ATOM     13  N   UNL     1      21.879  11.479  20.215  0.00  0.00    -0.281 N 
ATOM     14  C   UNL     1      23.085  10.817  20.379  0.00  0.00    +0.248 C 
ATOM     30  O   UNL     1      24.036  11.258  21.006  0.00  0.00    -0.270 OA
ATOM     31  H   UNL     1      21.247  11.092  19.513  0.00  0.00    +0.155 HD
BRANCH  14  15
ATOM     15  C   UNL     1      23.265   9.476  19.743  0.00  0.00    +0.037 A 
ATOM     16  C   UNL     1      22.245   8.913  18.855  0.00  0.00    +0.013 A 
ATOM     17  C   UNL     1      22.435   7.611  18.268  0.00  0.00    +0.005 A 
ATOM     18  C   UNL     1      23.654   6.862  18.567  0.00  0.00    -0.033 A 
ATOM     28  C   UNL     1      24.652   7.446  19.448  0.00  0.00    +0.005 A 
ATOM     29  C   UNL     1      24.468   8.722  20.025  0.00  0.00    +0.013 A 
BRANCH  18  19
ATOM     19  C   UNL     1      23.932   5.456  18.002  0.00  0.00    +0.119 C 
BRANCH  19  20
ATOM     20  N   UNL     1      24.544   4.456  18.927  0.00  0.00    -0.302 NA
ATOM     21  C   UNL     1      24.954   3.174  18.197  0.00  0.00    +0.066 C 
ATOM     22  C   UNL     1      25.614   2.148  19.176  0.00  0.00    -0.064 C 
ATOM     23  N   UNL     1      24.640   1.836  20.314  0.00  0.00    +0.379 N 
ATOM     24  C   UNL     1      25.234   0.827  21.204  0.00  0.00    -0.096 C 
ATOM     25  H   UNL     1      23.724   1.390  19.862  0.00  0.00    -0.082 HD
ATOM     26  C   UNL     1      24.225   3.105  21.043  0.00  0.00    -0.064 C 
ATOM     27  C   UNL     1      23.598   4.130  20.057  0.00  0.00    +0.066 C 
ENDBRANCH  19  20
ENDBRANCH  18  19
ENDBRANCH  14  15
ENDBRANCH  12  13
TORSDOF 6
ENDMDL
MODEL 5
REMARK VINA RESULT:      -7.8      2.800     15.290
REMARK  Name = C:\Users\Docking\Desktop\test protocol\1iep_ligandH.pdb
REMARK  8 active torsions:
REMARK  status: ('A' for Active; 'I' for Inactive)
REMARK    1  A    between atoms: _5  and  _11
REMARK    2  A    between atoms: _19  and  _21
REMARK    3  A    between atoms: _22  and  _66
REMARK    4  A    between atoms: _27  and  _30
REMARK    5  A    between atoms: _32  and  _33
REMARK    6  A    between atoms: _38  and  _43
REMARK    7  A    between atoms: _43  and  _46
REMARK    8  A    between atoms: _53  and  _55
REMARK                            x       y       z     vdW  Elec       q    Type
REMARK                         _______ _______ _______ _____ _____    ______ ____
ROOT
ATOM     10  C   UNL     1       9.820  21.990  14.087  0.00  0.00    +0.038 A 
ATOM     11  C   UNL     1      11.064  21.932  14.766  0.00  0.00    +0.047 A 
ATOM     12  C   UNL     1      11.821  20.692  14.845  0.00  0.00    +0.035 A 
ATOM     32  C   UNL     1      11.282  19.530  14.220  0.00  0.00    +0.024 A 
ATOM     33  C   UNL     1      10.018  19.571  13.526  0.00  0.00    +0.007 A 
ATOM     34  C   UNL     1       9.266  20.790  13.447  0.00  0.00    -0.029 A 
ATOM     35  C   UNL     1       7.914  20.774  12.696  0.00  0.00    +0.045 C 
ENDROOT
BRANCH  10   9
ATOM      4  C   UNL     1       8.708  26.143  11.954  0.00  0.00    +0.077 A 
ATOM      5  C   UNL     1       9.585  25.879  10.850  0.00  0.00    +0.048 A 
ATOM      6  C   UNL     1      10.310  24.667  10.873  0.00  0.00    +0.116 A 
ATOM      7  N   UNL     1      10.160  23.791  11.926  0.00  0.00    -0.223 NA
ATOM      8  C   UNL     1       9.307  24.076  12.976  0.00  0.00    +0.220 A 
ATOM      9  N   UNL     1       9.135  23.206  14.041  0.00  0.00    -0.283 N 
ATOM     36  H   UNL     1       8.502  23.457  14.800  0.00  0.00    +0.155 HD
ATOM     37  N   UNL     1       8.605  25.229  12.978  0.00  0.00    -0.214 NA
BRANCH   4   3
ATOM      1  C   UNL     1       7.538  29.802  12.696  0.00  0.00    +0.020 A 
ATOM      2  C   UNL     1       8.387  28.636  12.603  0.00  0.00    +0.013 A 
ATOM      3  C   UNL     1       7.872  27.380  12.073  0.00  0.00    +0.019 A 
ATOM     38  C   UNL     1       6.484  27.337  11.640  0.00  0.00    +0.120 A 
ATOM     39  N   UNL     1       5.690  28.474  11.743  0.00  0.00    -0.263 NA
ATOM     40  C   UNL     1       6.174  29.688  12.253  0.00  0.00    +0.111 A 
ENDBRANCH   4   3
ENDBRANCH  10   9
BRANCH  12  13
ATOM     13  N   UNL     1      13.085  20.571  15.528  0.00  0.00    -0.281 N 
ATOM     14  C   UNL     1      13.309  20.236  16.853  0.00  0.00    +0.248 C 
ATOM     30  O   UNL     1      12.441  20.198  17.712  0.00  0.00    -0.270 OA
ATOM     31  H   UNL     1      13.916  20.755  14.965  0.00  0.00    +0.155 HD
BRANCH  14  15
ATOM     15  C   UNL     1      14.701  19.911  17.290  0.00  0.00    +0.037 A 
ATOM     16  C   UNL     1      14.965  19.314  18.602  0.00  0.00    +0.013 A 
ATOM     17  C   UNL     1      16.318  19.026  19.006  0.00  0.00    +0.005 A 
ATOM     18  C   UNL     1      17.418  19.333  18.095  0.00  0.00    -0.033 A 
ATOM     28  C   UNL     1      17.127  19.920  16.797  0.00  0.00    +0.005 A 
ATOM     29  C   UNL     1      15.802  20.204  16.399  0.00  0.00    +0.013 A 
BRANCH  18  19
ATOM     19  C   UNL     1      18.895  19.079  18.451  0.00  0.00    +0.119 C 
BRANCH  19  20
ATOM     20  N   UNL     1      19.183  18.007  19.451  0.00  0.00    -0.302 NA
ATOM     21  C   UNL     1      20.520  18.229  20.162  0.00  0.00    +0.066 C 
ATOM     22  C   UNL     1      20.795  17.111  21.221  0.00  0.00    -0.064 C 
ATOM     23  N   UNL     1      20.766  15.745  20.534  0.00  0.00    +0.379 N 
ATOM     24  C   UNL     1      21.081  14.696  21.515  0.00  0.00    -0.096 C 
ATOM     25  H   UNL     1      21.570  15.738  19.762  0.00  0.00    -0.082 HD
ATOM     26  C   UNL     1      19.441  15.517  19.822  0.00  0.00    -0.064 C 
ATOM     27  C   UNL     1      19.164  16.649  18.793  0.00  0.00    +0.066 C 
ENDBRANCH  19  20
ENDBRANCH  18  19
ENDBRANCH  14  15
ENDBRANCH  12  13
TORSDOF 6
ENDMDL
