MODEL 1
REMARK VINA RESULT:      -8.8      0.000      0.000
REMARK  Name = C:\Users\Docking\Desktop\test protocol\1iep_ligandH.pdb
REMARK  8 active torsions:
REMARK  status: ('A' for Active; 'I' for Inactive)
REMARK    1  A    between atoms: _5  and  _11
REMARK    2  A    between atoms: _19  and  _21
REMARK    3  A    between atoms: _22  and  _66
REMARK    4  A    between atoms: _27  and  _30
REMARK    5  A    between atoms: _32  and  _33
REMARK    6  A    between atoms: _38  and  _43
REMARK    7  A    between atoms: _43  and  _46
REMARK    8  A    between atoms: _53  and  _55
REMARK                            x       y       z     vdW  Elec       q    Type
REMARK                         _______ _______ _______ _____ _____    ______ ____
ROOT
ATOM     10  C   UNL     1       9.443 -18.013  -4.224  0.00  0.00    +0.038 A 
ATOM     11  C   UNL     1      10.703 -18.216  -4.843  0.00  0.00    +0.047 A 
ATOM     12  C   UNL     1      11.310 -19.537  -4.898  0.00  0.00    +0.035 A 
ATOM     32  C   UNL     1      10.605 -20.630  -4.316  0.00  0.00    +0.024 A 
ATOM     33  C   UNL     1       9.323 -20.441  -3.682  0.00  0.00    +0.007 A 
ATOM     34  C   UNL     1       8.721 -19.140  -3.622  0.00  0.00    -0.029 A 
ATOM     35  C   UNL     1       7.349 -18.995  -2.924  0.00  0.00    +0.045 C 
ENDROOT
BRANCH  10   9
ATOM      4  C   UNL     1       8.418 -13.898  -1.978  0.00  0.00    +0.077 A 
ATOM      5  C   UNL     1       8.973 -14.366  -0.741  0.00  0.00    +0.048 A 
ATOM      6  C   UNL     1       9.506 -15.674  -0.723  0.00  0.00    +0.116 A 
ATOM      7  N   UNL     1       9.480 -16.448  -1.863  0.00  0.00    -0.223 NA
ATOM      8  C   UNL     1       8.936 -15.966  -3.039  0.00  0.00    +0.220 A 
ATOM      9  N   UNL     1       8.907 -16.724  -4.200  0.00  0.00    -0.283 N 
ATOM     36  H   UNL     1       8.490 -16.335  -5.046  0.00  0.00    +0.155 HD
ATOM     37  N   UNL     1       8.419 -14.721  -3.082  0.00  0.00    -0.214 NA
BRANCH   4   3
ATOM      1  C   UNL     1       7.462 -10.405  -3.457  0.00  0.00    +0.020 A 
ATOM      2  C   UNL     1       8.064 -11.712  -3.333  0.00  0.00    +0.013 A 
ATOM      3  C   UNL     1       7.820 -12.537  -2.157  0.00  0.00    +0.019 A 
ATOM     38  C   UNL     1       6.953 -12.006  -1.116  0.00  0.00    +0.120 A 
ATOM     39  N   UNL     1       6.388 -10.742  -1.261  0.00  0.00    -0.263 NA
ATOM     40  C   UNL     1       6.618  -9.939  -2.388  0.00  0.00    +0.111 A 
ENDBRANCH   4   3
ENDBRANCH  10   9
BRANCH  12  13
ATOM     13  N   UNL     1      12.591 -19.803  -5.506  0.00  0.00    -0.281 N 
ATOM     14  C   UNL     1      12.858 -20.566  -6.631  0.00  0.00    +0.248 C 
ATOM     30  O   UNL     1      12.053 -21.315  -7.165  0.00  0.00    -0.270 OA
ATOM     31  H   UNL     1      13.398 -19.377  -5.052  0.00  0.00    +0.155 HD
BRANCH  14  15
ATOM     15  C   UNL     1      14.219 -20.498  -7.243  0.00  0.00    +0.037 A 
ATOM     16  C   UNL     1      14.489 -21.073  -8.564  0.00  0.00    +0.013 A 
ATOM     17  C   UNL     1      15.815 -21.009  -9.124  0.00  0.00    +0.005 A 
ATOM     18  C   UNL     1      16.883 -20.365  -8.363  0.00  0.00    -0.033 A 
ATOM     28  C   UNL     1      16.587 -19.798  -7.058  0.00  0.00    +0.005 A 
ATOM     29  C   UNL     1      15.288 -19.860  -6.505  0.00  0.00    +0.013 A 
BRANCH  18  19
ATOM     19  C   UNL     1      18.333 -20.269  -8.873  0.00  0.00    +0.119 C 
BRANCH  19  20
ATOM     20  N   UNL     1      19.109 -19.048  -8.504  0.00  0.00    -0.302 NA
ATOM     21  C   UNL     1      18.583 -17.797  -9.213  0.00  0.00    +0.066 C 
ATOM     22  C   UNL     1      19.392 -16.525  -8.798  0.00  0.00    -0.064 C 
ATOM     23  N   UNL     1      20.874 -16.742  -9.110  0.00  0.00    +0.379 N 
ATOM     24  C   UNL     1      21.628 -15.526  -8.775  0.00  0.00    -0.096 C 
ATOM     25  H   UNL     1      20.967 -16.906 -10.209  0.00  0.00    -0.082 HD
ATOM     26  C   UNL     1      21.404 -17.985  -8.411  0.00  0.00    -0.064 C 
ATOM     27  C   UNL     1      20.575 -19.239  -8.808  0.00  0.00    +0.066 C 
ENDBRANCH  19  20
ENDBRANCH  18  19
ENDBRANCH  14  15
ENDBRANCH  12  13
TORSDOF 6
ENDMDL
MODEL 2
REMARK VINA RESULT:      -8.5      3.318     12.340
REMARK  Name = C:\Users\Docking\Desktop\test protocol\1iep_ligandH.pdb
REMARK  8 active torsions:
REMARK  status: ('A' for Active; 'I' for Inactive)
REMARK    1  A    between atoms: _5  and  _11
REMARK    2  A    between atoms: _19  and  _21
REMARK    3  A    between atoms: _22  and  _66
REMARK    4  A    between atoms: _27  and  _30
REMARK    5  A    between atoms: _32  and  _33
REMARK    6  A    between atoms: _38  and  _43
REMARK    7  A    between atoms: _43  and  _46
REMARK    8  A    between atoms: _53  and  _55
REMARK                            x       y       z     vdW  Elec       q    Type
REMARK                         _______ _______ _______ _____ _____    ______ ____
ROOT
ATOM     10  C   UNL     1      16.992 -20.437  -8.085  0.00  0.00    +0.038 A 
ATOM     11  C   UNL     1      15.796 -20.075  -7.414  0.00  0.00    +0.047 A 
ATOM     12  C   UNL     1      14.494 -20.466  -7.932  0.00  0.00    +0.035 A 
ATOM     32  C   UNL     1      14.448 -21.229  -9.135  0.00  0.00    +0.024 A 
ATOM     33  C   UNL     1      15.654 -21.605  -9.831  0.00  0.00    +0.007 A 
ATOM     34  C   UNL     1      16.941 -21.220  -9.325  0.00  0.00    -0.029 A 
ATOM     35  C   UNL     1      18.200 -21.645 -10.115  0.00  0.00    +0.045 C 
ENDROOT
BRANCH  10   9
ATOM      4  C   UNL     1      20.577 -17.281  -7.609  0.00  0.00    +0.077 A 
ATOM      5  C   UNL     1      19.977 -16.370  -8.540  0.00  0.00    +0.048 A 
ATOM      6  C   UNL     1      18.750 -16.754  -9.125  0.00  0.00    +0.116 A 
ATOM      7  N   UNL     1      18.174 -17.961  -8.795  0.00  0.00    -0.223 NA
ATOM      8  C   UNL     1      18.780 -18.818  -7.894  0.00  0.00    +0.220 A 
ATOM      9  N   UNL     1      18.214 -20.034  -7.542  0.00  0.00    -0.283 N 
ATOM     36  H   UNL     1      18.697 -20.641  -6.880  0.00  0.00    +0.155 HD
ATOM     37  N   UNL     1      19.953 -18.475  -7.323  0.00  0.00    -0.214 NA
BRANCH   4   3
ATOM      1  C   UNL     1      24.337 -16.483  -6.886  0.00  0.00    +0.020 A 
ATOM      2  C   UNL     1      23.114 -16.732  -7.613  0.00  0.00    +0.013 A 
ATOM      3  C   UNL     1      21.872 -17.016  -6.905  0.00  0.00    +0.019 A 
ATOM     38  C   UNL     1      21.902 -17.040  -5.451  0.00  0.00    +0.120 A 
ATOM     39  N   UNL     1      23.095 -16.797  -4.778  0.00  0.00    -0.263 NA
ATOM     40  C   UNL     1      24.297 -16.524  -5.448  0.00  0.00    +0.111 A 
ENDBRANCH   4   3
ENDBRANCH  10   9
BRANCH  12  13
ATOM     13  N   UNL     1      13.246 -20.121  -7.300  0.00  0.00    -0.281 N 
ATOM     14  C   UNL     1      12.482 -20.896  -6.443  0.00  0.00    +0.248 C 
ATOM     30  O   UNL     1      12.650 -22.092  -6.258  0.00  0.00    -0.270 OA
ATOM     31  H   UNL     1      12.881 -19.191  -7.509  0.00  0.00    +0.155 HD
BRANCH  14  15
ATOM     15  C   UNL     1      11.360 -20.253  -5.694  0.00  0.00    +0.037 A 
ATOM     16  C   UNL     1      10.011 -20.825  -5.708  0.00  0.00    +0.013 A 
ATOM     17  C   UNL     1       8.943 -20.175  -4.991  0.00  0.00    +0.005 A 
ATOM     18  C   UNL     1       9.220 -18.946  -4.251  0.00  0.00    -0.033 A 
ATOM     28  C   UNL     1      10.569 -18.404  -4.249  0.00  0.00    +0.005 A 
ATOM     29  C   UNL     1      11.618 -19.037  -4.952  0.00  0.00    +0.013 A 
BRANCH  18  19
ATOM     19  C   UNL     1       8.137 -18.174  -3.475  0.00  0.00    +0.119 C 
BRANCH  19  20
ATOM     20  N   UNL     1       7.677 -18.758  -2.180  0.00  0.00    -0.302 NA
ATOM     21  C   UNL     1       6.440 -19.643  -2.356  0.00  0.00    +0.066 C 
ATOM     22  C   UNL     1       5.985 -20.264  -0.995  0.00  0.00    -0.064 C 
ATOM     23  N   UNL     1       5.710 -19.142   0.007  0.00  0.00    +0.379 N 
ATOM     24  C   UNL     1       5.226 -19.720   1.270  0.00  0.00    -0.096 C 
ATOM     25  H   UNL     1       4.892 -18.509  -0.410  0.00  0.00    -0.082 HD
ATOM     26  C   UNL     1       6.933 -18.255   0.186  0.00  0.00    -0.064 C 
ATOM     27  C   UNL     1       7.394 -17.667  -1.176  0.00  0.00    +0.066 C 
ENDBRANCH  19  20
ENDBRANCH  18  19
ENDBRANCH  14  15
ENDBRANCH  12  13
TORSDOF 6
ENDMDL
MODEL 3
REMARK VINA RESULT:      -8.5      2.193     11.850
REMARK  Name = C:\Users\Docking\Desktop\test protocol\1iep_ligandH.pdb
REMARK  8 active torsions:
REMARK  status: ('A' for Active; 'I' for Inactive)
REMARK    1  A    between atoms: _5  and  _11
REMARK    2  A    between atoms: _19  and  _21
REMARK    3  A    between atoms: _22  and  _66
REMARK    4  A    between atoms: _27  and  _30
REMARK    5  A    between atoms: _32  and  _33
REMARK    6  A    between atoms: _38  and  _43
REMARK    7  A    between atoms: _43  and  _46
REMARK    8  A    between atoms: _53  and  _55
REMARK                            x       y       z     vdW  Elec       q    Type
REMARK                         _______ _______ _______ _____ _____    ______ ____
ROOT
ATOM     10  C   UNL     1      17.298 -20.660  -8.469  0.00  0.00    +0.038 A 
ATOM     11  C   UNL     1      16.089 -20.342  -7.800  0.00  0.00    +0.047 A 
ATOM     12  C   UNL     1      14.802 -20.758  -8.334  0.00  0.00    +0.035 A 
ATOM     32  C   UNL     1      14.783 -21.500  -9.551  0.00  0.00    +0.024 A 
ATOM     33  C   UNL     1      16.003 -21.831 -10.245  0.00  0.00    +0.007 A 
ATOM     34  C   UNL     1      17.275 -21.421  -9.724  0.00  0.00    -0.029 A 
ATOM     35  C   UNL     1      18.550 -21.798 -10.514  0.00  0.00    +0.045 C 
ENDROOT
BRANCH  10   9
ATOM      4  C   UNL     1      20.682 -17.337  -7.729  0.00  0.00    +0.077 A 
ATOM      5  C   UNL     1      19.998 -16.374  -8.544  0.00  0.00    +0.048 A 
ATOM      6  C   UNL     1      18.783 -16.776  -9.141  0.00  0.00    +0.116 A 
ATOM      7  N   UNL     1      18.296 -18.049  -8.932  0.00  0.00    -0.223 NA
ATOM      8  C   UNL     1      18.981 -18.953  -8.142  0.00  0.00    +0.220 A 
ATOM      9  N   UNL     1      18.506 -20.235  -7.912  0.00  0.00    -0.283 N 
ATOM     36  H   UNL     1      19.045 -20.875  -7.328  0.00  0.00    +0.155 HD
ATOM     37  N   UNL     1      20.145 -18.594  -7.561  0.00  0.00    -0.214 NA
BRANCH   4   3
ATOM      1  C   UNL     1      24.440 -16.523  -7.012  0.00  0.00    +0.020 A 
ATOM      2  C   UNL     1      23.218 -16.783  -7.737  0.00  0.00    +0.013 A 
ATOM      3  C   UNL     1      21.975 -17.061  -7.027  0.00  0.00    +0.019 A 
ATOM     38  C   UNL     1      22.004 -17.068  -5.572  0.00  0.00    +0.120 A 
ATOM     39  N   UNL     1      23.196 -16.815  -4.901  0.00  0.00    -0.263 NA
ATOM     40  C   UNL     1      24.398 -16.548  -5.573  0.00  0.00    +0.111 A 
ENDBRANCH   4   3
ENDBRANCH  10   9
BRANCH  12  13
ATOM     13  N   UNL     1      13.540 -20.457  -7.704  0.00  0.00    -0.281 N 
ATOM     14  C   UNL     1      12.754 -21.295  -6.930  0.00  0.00    +0.248 C 
ATOM     30  O   UNL     1      12.913 -22.503  -6.839  0.00  0.00    -0.270 OA
ATOM     31  H   UNL     1      13.184 -19.512  -7.845  0.00  0.00    +0.155 HD
BRANCH  14  15
ATOM     15  C   UNL     1      11.618 -20.707  -6.156  0.00  0.00    +0.037 A 
ATOM     16  C   UNL     1      10.258 -21.238  -6.282  0.00  0.00    +0.013 A 
ATOM     17  C   UNL     1       9.177 -20.642  -5.538  0.00  0.00    +0.005 A 
ATOM     18  C   UNL     1       9.453 -19.508  -4.658  0.00  0.00    -0.033 A 
ATOM     28  C   UNL     1      10.812 -19.005  -4.548  0.00  0.00    +0.005 A 
ATOM     29  C   UNL     1      11.874 -19.586  -5.277  0.00  0.00    +0.013 A 
BRANCH  18  19
ATOM     19  C   UNL     1       8.357 -18.797  -3.843  0.00  0.00    +0.119 C 
BRANCH  19  20
ATOM     20  N   UNL     1       8.801 -17.786  -2.837  0.00  0.00    -0.302 NA
ATOM     21  C   UNL     1       7.912 -17.786  -1.591  0.00  0.00    +0.066 C 
ATOM     22  C   UNL     1       8.404 -16.739  -0.539  0.00  0.00    -0.064 C 
ATOM     23  N   UNL     1       8.435 -15.351  -1.182  0.00  0.00    +0.379 N 
ATOM     24  C   UNL     1       8.841 -14.355  -0.180  0.00  0.00    -0.096 C 
ATOM     25  H   UNL     1       7.396 -15.104  -1.503  0.00  0.00    -0.082 HD
ATOM     26  C   UNL     1       9.315 -15.343  -2.424  0.00  0.00    -0.064 C 
ATOM     27  C   UNL     1       8.835 -16.408  -3.449  0.00  0.00    +0.066 C 
ENDBRANCH  19  20
ENDBRANCH  18  19
ENDBRANCH  14  15
ENDBRANCH  12  13
TORSDOF 6
ENDMDL
MODEL 4
REMARK VINA RESULT:      -8.5      1.928      2.403
REMARK  Name = C:\Users\Docking\Desktop\test protocol\1iep_ligandH.pdb
REMARK  8 active torsions:
REMARK  status: ('A' for Active; 'I' for Inactive)
REMARK    1  A    between atoms: _5  and  _11
REMARK    2  A    between atoms: _19  and  _21
REMARK    3  A    between atoms: _22  and  _66
REMARK    4  A    between atoms: _27  and  _30
REMARK    5  A    between atoms: _32  and  _33
REMARK    6  A    between atoms: _38  and  _43
REMARK    7  A    between atoms: _43  and  _46
REMARK    8  A    between atoms: _53  and  _55
REMARK                            x       y       z     vdW  Elec       q    Type
REMARK                         _______ _______ _______ _____ _____    ______ ____
ROOT
ATOM     10  C   UNL     1       9.485 -17.674  -4.189  0.00  0.00    +0.038 A 
ATOM     11  C   UNL     1      10.858 -17.732  -4.540  0.00  0.00    +0.047 A 
ATOM     12  C   UNL     1      11.559 -19.003  -4.630  0.00  0.00    +0.035 A 
ATOM     32  C   UNL     1      10.830 -20.198  -4.359  0.00  0.00    +0.024 A 
ATOM     33  C   UNL     1       9.434 -20.157  -3.999  0.00  0.00    +0.007 A 
ATOM     34  C   UNL     1       8.738 -18.906  -3.907  0.00  0.00    -0.029 A 
ATOM     35  C   UNL     1       7.243 -18.922  -3.511  0.00  0.00    +0.045 C 
ENDROOT
BRANCH  10   9
ATOM      4  C   UNL     1       8.250 -13.690  -1.815  0.00  0.00    +0.077 A 
ATOM      5  C   UNL     1       8.876 -14.145  -0.607  0.00  0.00    +0.048 A 
ATOM      6  C   UNL     1       9.498 -15.413  -0.637  0.00  0.00    +0.116 A 
ATOM      7  N   UNL     1       9.490 -16.161  -1.794  0.00  0.00    -0.223 NA
ATOM      8  C   UNL     1       8.876 -15.694  -2.941  0.00  0.00    +0.220 A 
ATOM      9  N   UNL     1       8.862 -16.427  -4.118  0.00  0.00    -0.283 N 
ATOM     36  H   UNL     1       8.392 -16.050  -4.941  0.00  0.00    +0.155 HD
ATOM     37  N   UNL     1       8.273 -14.487  -2.938  0.00  0.00    -0.214 NA
BRANCH   4   3
ATOM      1  C   UNL     1       5.991 -10.576  -1.104  0.00  0.00    +0.020 A 
ATOM      2  C   UNL     1       6.638 -11.857  -0.932  0.00  0.00    +0.013 A 
ATOM      3  C   UNL     1       7.553 -12.371  -1.943  0.00  0.00    +0.019 A 
ATOM     38  C   UNL     1       7.795 -11.558  -3.125  0.00  0.00    +0.120 A 
ATOM     39  N   UNL     1       7.157 -10.329  -3.264  0.00  0.00    -0.263 NA
ATOM     40  C   UNL     1       6.273  -9.825  -2.299  0.00  0.00    +0.111 A 
ENDBRANCH   4   3
ENDBRANCH  10   9
BRANCH  12  13
ATOM     13  N   UNL     1      12.954 -19.123  -4.974  0.00  0.00    -0.281 N 
ATOM     14  C   UNL     1      14.031 -19.289  -4.118  0.00  0.00    +0.248 C 
ATOM     30  O   UNL     1      13.979 -19.145  -2.906  0.00  0.00    -0.270 OA
ATOM     31  H   UNL     1      13.175 -19.081  -5.969  0.00  0.00    +0.155 HD
BRANCH  14  15
ATOM     15  C   UNL     1      15.361 -19.654  -4.694  0.00  0.00    +0.037 A 
ATOM     16  C   UNL     1      15.543 -20.885  -5.468  0.00  0.00    +0.013 A 
ATOM     17  C   UNL     1      16.840 -21.222  -5.997  0.00  0.00    +0.005 A 
ATOM     18  C   UNL     1      17.967 -20.324  -5.756  0.00  0.00    -0.033 A 
ATOM     28  C   UNL     1      17.758 -19.107  -4.989  0.00  0.00    +0.005 A 
ATOM     29  C   UNL     1      16.488 -18.774  -4.468  0.00  0.00    +0.013 A 
BRANCH  18  19
ATOM     19  C   UNL     1      19.392 -20.614  -6.265  0.00  0.00    +0.119 C 
BRANCH  19  20
ATOM     20  N   UNL     1      19.649 -20.422  -7.723  0.00  0.00    -0.302 NA
ATOM     21  C   UNL     1      19.185 -19.047  -8.212  0.00  0.00    +0.066 C 
ATOM     22  C   UNL     1      19.482 -18.854  -9.735  0.00  0.00    -0.064 C 
ATOM     23  N   UNL     1      18.801 -19.969 -10.530  0.00  0.00    +0.379 N 
ATOM     24  C   UNL     1      19.030 -19.758 -11.967  0.00  0.00    -0.096 C 
ATOM     25  H   UNL     1      17.704 -19.893 -10.347  0.00  0.00    -0.082 HD
ATOM     26  C   UNL     1      19.255 -21.340 -10.049  0.00  0.00    -0.064 C 
ATOM     27  C   UNL     1      18.982 -21.510  -8.528  0.00  0.00    +0.066 C 
ENDBRANCH  19  20
ENDBRANCH  18  19
ENDBRANCH  14  15
ENDBRANCH  12  13
TORSDOF 6
ENDMDL
MODEL 5
REMARK VINA RESULT:      -8.4      4.672      7.464
REMARK  Name = C:\Users\Docking\Desktop\test protocol\1iep_ligandH.pdb
REMARK  8 active torsions:
REMARK  status: ('A' for Active; 'I' for Inactive)
REMARK    1  A    between atoms: _5  and  _11
REMARK    2  A    between atoms: _19  and  _21
REMARK    3  A    between atoms: _22  and  _66
REMARK    4  A    between atoms: _27  and  _30
REMARK    5  A    between atoms: _32  and  _33
REMARK    6  A    between atoms: _38  and  _43
REMARK    7  A    between atoms: _43  and  _46
REMARK    8  A    between atoms: _53  and  _55
REMARK                            x       y       z     vdW  Elec       q    Type
REMARK                         _______ _______ _______ _____ _____    ______ ____
ROOT
ATOM     10  C   UNL     1      13.752 -21.664  -8.644  0.00  0.00    +0.038 A 
ATOM     11  C   UNL     1      14.874 -20.820  -8.437  0.00  0.00    +0.047 A 
ATOM     12  C   UNL     1      16.182 -21.163  -8.974  0.00  0.00    +0.035 A 
ATOM     32  C   UNL     1      16.312 -22.371  -9.718  0.00  0.00    +0.024 A 
ATOM     33  C   UNL     1      15.183 -23.241  -9.937  0.00  0.00    +0.007 A 
ATOM     34  C   UNL     1      13.890 -22.910  -9.408  0.00  0.00    -0.029 A 
ATOM     35  C   UNL     1      12.717 -23.883  -9.667  0.00  0.00    +0.045 C 
ENDROOT
BRANCH  10   9
ATOM      4  C   UNL     1      10.543 -21.564  -5.076  0.00  0.00    +0.077 A 
ATOM      5  C   UNL     1      11.381 -22.353  -4.221  0.00  0.00    +0.048 A 
ATOM      6  C   UNL     1      12.628 -22.771  -4.739  0.00  0.00    +0.116 A 
ATOM      7  N   UNL     1      12.998 -22.419  -6.019  0.00  0.00    -0.223 NA
ATOM      8  C   UNL     1      12.165 -21.659  -6.819  0.00  0.00    +0.220 A 
ATOM      9  N   UNL     1      12.520 -21.287  -8.106  0.00  0.00    -0.283 N 
ATOM     36  H   UNL     1      11.874 -20.731  -8.667  0.00  0.00    +0.155 HD
ATOM     37  N   UNL     1      10.969 -21.249  -6.347  0.00  0.00    -0.214 NA
BRANCH   4   3
ATOM      1  C   UNL     1       7.462 -19.222  -4.507  0.00  0.00    +0.020 A 
ATOM      2  C   UNL     1       8.771 -19.674  -4.918  0.00  0.00    +0.013 A 
ATOM      3  C   UNL     1       9.199 -21.045  -4.671  0.00  0.00    +0.019 A 
ATOM     38  C   UNL     1       8.269 -21.942  -4.001  0.00  0.00    +0.120 A 
ATOM     39  N   UNL     1       7.015 -21.479  -3.615  0.00  0.00    -0.263 NA
ATOM     40  C   UNL     1       6.594 -20.161  -3.846  0.00  0.00    +0.111 A 
ENDBRANCH   4   3
ENDBRANCH  10   9
BRANCH  12  13
ATOM     13  N   UNL     1      17.358 -20.349  -8.790  0.00  0.00    -0.281 N 
ATOM     14  C   UNL     1      18.141 -19.751  -9.764  0.00  0.00    +0.248 C 
ATOM     30  O   UNL     1      18.071 -20.003 -10.957  0.00  0.00    -0.270 OA
ATOM     31  H   UNL     1      17.649 -20.195  -7.824  0.00  0.00    +0.155 HD
BRANCH  14  15
ATOM     15  C   UNL     1      19.158 -18.737  -9.350  0.00  0.00    +0.037 A 
ATOM     16  C   UNL     1      18.829 -17.311  -9.292  0.00  0.00    +0.013 A 
ATOM     17  C   UNL     1      19.834 -16.352  -8.906  0.00  0.00    +0.005 A 
ATOM     18  C   UNL     1      21.179 -16.818  -8.575  0.00  0.00    -0.033 A 
ATOM     28  C   UNL     1      21.476 -18.239  -8.636  0.00  0.00    +0.005 A 
ATOM     29  C   UNL     1      20.494 -19.182  -9.015  0.00  0.00    +0.013 A 
BRANCH  18  19
ATOM     19  C   UNL     1      22.319 -15.864  -8.174  0.00  0.00    +0.119 C 
BRANCH  19  20
ATOM     20  N   UNL     1      23.078 -16.190  -6.929  0.00  0.00    -0.302 NA
ATOM     21  C   UNL     1      22.230 -15.989  -5.670  0.00  0.00    +0.066 C 
ATOM     22  C   UNL     1      23.032 -16.356  -4.379  0.00  0.00    -0.064 C 
ATOM     23  N   UNL     1      24.305 -15.511  -4.316  0.00  0.00    +0.379 N 
ATOM     24  C   UNL     1      25.032 -15.812  -3.074  0.00  0.00    -0.096 C 
ATOM     25  H   UNL     1      23.998 -14.440  -4.277  0.00  0.00    -0.082 HD
ATOM     26  C   UNL     1      25.153 -15.702  -5.565  0.00  0.00    -0.064 C 
ATOM     27  C   UNL     1      24.337 -15.363  -6.844  0.00  0.00    +0.066 C 
ENDBRANCH  19  20
ENDBRANCH  18  19
ENDBRANCH  14  15
ENDBRANCH  12  13
TORSDOF 6
ENDMDL
