MODEL 1
REMARK VINA RESULT:      -7.2      0.000      0.000
REMARK  Name = C:\Users\Docking\Desktop\test protocol\1iep_ligandH.pdb
REMARK  8 active torsions:
REMARK  status: ('A' for Active; 'I' for Inactive)
REMARK    1  A    between atoms: _5  and  _11
REMARK    2  A    between atoms: _19  and  _21
REMARK    3  A    between atoms: _22  and  _66
REMARK    4  A    between atoms: _27  and  _30
REMARK    5  A    between atoms: _32  and  _33
REMARK    6  A    between atoms: _38  and  _43
REMARK    7  A    between atoms: _43  and  _46
REMARK    8  A    between atoms: _53  and  _55
REMARK                            x       y       z     vdW  Elec       q    Type
REMARK                         _______ _______ _______ _____ _____    ______ ____
ROOT
ATOM     10  C   UNL     1      -7.591 -16.528  18.183  0.00  0.00    +0.038 A 
ATOM     11  C   UNL     1      -8.786 -17.138  18.644  0.00  0.00    +0.047 A 
ATOM     12  C   UNL     1     -10.025 -17.030  17.890  0.00  0.00    +0.035 A 
ATOM     32  C   UNL     1     -10.011 -16.295  16.669  0.00  0.00    +0.024 A 
ATOM     33  C   UNL     1      -8.806 -15.668  16.186  0.00  0.00    +0.007 A 
ATOM     34  C   UNL     1      -7.581 -15.769  16.927  0.00  0.00    -0.029 A 
ATOM     35  C   UNL     1      -6.321 -15.070  16.365  0.00  0.00    +0.045 C 
ENDROOT
BRANCH  10   9
ATOM      4  C   UNL     1      -4.629 -15.088  21.675  0.00  0.00    +0.077 A 
ATOM      5  C   UNL     1      -5.451 -13.955  21.986  0.00  0.00    +0.048 A 
ATOM      6  C   UNL     1      -6.624 -13.774  21.219  0.00  0.00    +0.116 A 
ATOM      7  N   UNL     1      -6.942 -14.667  20.219  0.00  0.00    -0.223 NA
ATOM      8  C   UNL     1      -6.126 -15.749  19.943  0.00  0.00    +0.220 A 
ATOM      9  N   UNL     1      -6.430 -16.664  18.947  0.00  0.00    -0.283 N 
ATOM     36  H   UNL     1      -5.798 -17.445  18.770  0.00  0.00    +0.155 HD
ATOM     37  N   UNL     1      -5.000 -15.943  20.660  0.00  0.00    -0.214 NA
BRANCH   4   3
ATOM      1  C   UNL     1      -2.009 -16.774  24.040  0.00  0.00    +0.020 A 
ATOM      2  C   UNL     1      -3.259 -16.498  23.369  0.00  0.00    +0.013 A 
ATOM      3  C   UNL     1      -3.360 -15.416  22.398  0.00  0.00    +0.019 A 
ATOM     38  C   UNL     1      -2.169 -14.626  22.125  0.00  0.00    +0.120 A 
ATOM     39  N   UNL     1      -0.979 -14.914  22.787  0.00  0.00    -0.263 NA
ATOM     40  C   UNL     1      -0.870 -15.951  23.725  0.00  0.00    +0.111 A 
ENDBRANCH   4   3
ENDBRANCH  10   9
BRANCH  12  13
ATOM     13  N   UNL     1     -11.271 -17.621  18.312  0.00  0.00    -0.281 N 
ATOM     14  C   UNL     1     -12.282 -17.037  19.056  0.00  0.00    +0.248 C 
ATOM     30  O   UNL     1     -12.174 -15.978  19.657  0.00  0.00    -0.270 OA
ATOM     31  H   UNL     1     -11.426 -18.589  18.027  0.00  0.00    +0.155 HD
BRANCH  14  15
ATOM     15  C   UNL     1     -13.599 -17.736  19.160  0.00  0.00    +0.037 A 
ATOM     16  C   UNL     1     -14.711 -17.153  19.914  0.00  0.00    +0.013 A 
ATOM     17  C   UNL     1     -15.966 -17.856  20.013  0.00  0.00    +0.005 A 
ATOM     18  C   UNL     1     -16.114 -19.151  19.354  0.00  0.00    -0.033 A 
ATOM     28  C   UNL     1     -14.996 -19.704  18.608  0.00  0.00    +0.005 A 
ATOM     29  C   UNL     1     -13.765 -19.018  18.510  0.00  0.00    +0.013 A 
BRANCH  18  19
ATOM     19  C   UNL     1     -17.409 -19.982  19.424  0.00  0.00    +0.119 C 
BRANCH  19  20
ATOM     20  N   UNL     1     -18.682 -19.296  19.051  0.00  0.00    -0.302 NA
ATOM     21  C   UNL     1     -19.668 -19.238  20.222  0.00  0.00    +0.066 C 
ATOM     22  C   UNL     1     -20.985 -18.497  19.821  0.00  0.00    -0.064 C 
ATOM     23  N   UNL     1     -21.615 -19.199  18.617  0.00  0.00    +0.379 N 
ATOM     24  C   UNL     1     -22.884 -18.540  18.273  0.00  0.00    -0.096 C 
ATOM     25  H   UNL     1     -21.849 -20.246  18.920  0.00  0.00    -0.082 HD
ATOM     26  C   UNL     1     -20.641 -19.263  17.449  0.00  0.00    -0.064 C 
ATOM     27  C   UNL     1     -19.324 -19.975  17.866  0.00  0.00    +0.066 C 
ENDBRANCH  19  20
ENDBRANCH  18  19
ENDBRANCH  14  15
ENDBRANCH  12  13
TORSDOF 6
ENDMDL
MODEL 2
REMARK VINA RESULT:      -7.0     22.383     26.128
REMARK  Name = C:\Users\Docking\Desktop\test protocol\1iep_ligandH.pdb
REMARK  8 active torsions:
REMARK  status: ('A' for Active; 'I' for Inactive)
REMARK    1  A    between atoms: _5  and  _11
REMARK    2  A    between atoms: _19  and  _21
REMARK    3  A    between atoms: _22  and  _66
REMARK    4  A    between atoms: _27  and  _30
REMARK    5  A    between atoms: _32  and  _33
REMARK    6  A    between atoms: _38  and  _43
REMARK    7  A    between atoms: _43  and  _46
REMARK    8  A    between atoms: _53  and  _55
REMARK                            x       y       z     vdW  Elec       q    Type
REMARK                         _______ _______ _______ _____ _____    ______ ____
ROOT
ATOM     10  C   UNL     1       6.583 -28.038  25.736  0.00  0.00    +0.038 A 
ATOM     11  C   UNL     1       7.172 -28.177  24.453  0.00  0.00    +0.047 A 
ATOM     12  C   UNL     1       8.013 -27.130  23.894  0.00  0.00    +0.035 A 
ATOM     32  C   UNL     1       8.236 -25.956  24.670  0.00  0.00    +0.024 A 
ATOM     33  C   UNL     1       7.645 -25.797  25.976  0.00  0.00    +0.007 A 
ATOM     34  C   UNL     1       6.812 -26.826  26.531  0.00  0.00    -0.029 A 
ATOM     35  C   UNL     1       6.199 -26.599  27.933  0.00  0.00    +0.045 C 
ENDROOT
BRANCH  10   9
ATOM      4  C   UNL     1       6.017 -32.317  27.836  0.00  0.00    +0.077 A 
ATOM      5  C   UNL     1       7.434 -32.517  27.945  0.00  0.00    +0.048 A 
ATOM      6  C   UNL     1       8.273 -31.498  27.442  0.00  0.00    +0.116 A 
ATOM      7  N   UNL     1       7.727 -30.367  26.875  0.00  0.00    -0.223 NA
ATOM      8  C   UNL     1       6.356 -30.207  26.784  0.00  0.00    +0.220 A 
ATOM      9  N   UNL     1       5.784 -29.074  26.224  0.00  0.00    -0.283 N 
ATOM     36  H   UNL     1       4.769 -28.997  26.169  0.00  0.00    +0.155 HD
ATOM     37  N   UNL     1       5.533 -31.166  27.255  0.00  0.00    -0.214 NA
BRANCH   4   3
ATOM      1  C   UNL     1       3.056 -33.969  29.786  0.00  0.00    +0.020 A 
ATOM      2  C   UNL     1       4.017 -32.982  29.351  0.00  0.00    +0.013 A 
ATOM      3  C   UNL     1       5.000 -33.302  28.323  0.00  0.00    +0.019 A 
ATOM     38  C   UNL     1       4.984 -34.640  27.752  0.00  0.00    +0.120 A 
ATOM     39  N   UNL     1       4.048 -35.570  28.192  0.00  0.00    -0.263 NA
ATOM     40  C   UNL     1       3.098 -35.274  29.181  0.00  0.00    +0.111 A 
ENDBRANCH   4   3
ENDBRANCH  10   9
BRANCH  12  13
ATOM     13  N   UNL     1       8.631 -27.212  22.594  0.00  0.00    -0.281 N 
ATOM     14  C   UNL     1       9.855 -27.773  22.266  0.00  0.00    +0.248 C 
ATOM     30  O   UNL     1      10.704 -28.102  23.080  0.00  0.00    -0.270 OA
ATOM     31  H   UNL     1       8.103 -26.807  21.821  0.00  0.00    +0.155 HD
BRANCH  14  15
ATOM     15  C   UNL     1      10.188 -27.986  20.825  0.00  0.00    +0.037 A 
ATOM     16  C   UNL     1      10.207 -26.870  19.876  0.00  0.00    +0.013 A 
ATOM     17  C   UNL     1      10.516 -27.105  18.488  0.00  0.00    +0.005 A 
ATOM     18  C   UNL     1      10.809 -28.465  18.040  0.00  0.00    -0.033 A 
ATOM     28  C   UNL     1      10.789 -29.553  19.004  0.00  0.00    +0.005 A 
ATOM     29  C   UNL     1      10.486 -29.326  20.365  0.00  0.00    +0.013 A 
BRANCH  18  19
ATOM     19  C   UNL     1      11.128 -28.812  16.574  0.00  0.00    +0.119 C 
BRANCH  19  20
ATOM     20  N   UNL     1      12.569 -28.909  16.192  0.00  0.00    -0.302 NA
ATOM     21  C   UNL     1      12.826 -28.373  14.781  0.00  0.00    +0.066 C 
ATOM     22  C   UNL     1      14.341 -28.460  14.406  0.00  0.00    -0.064 C 
ATOM     23  N   UNL     1      14.810 -29.911  14.528  0.00  0.00    +0.379 N 
ATOM     24  C   UNL     1      16.220 -30.006  14.120  0.00  0.00    -0.096 C 
ATOM     25  H   UNL     1      14.210 -30.522  13.815  0.00  0.00    -0.082 HD
ATOM     26  C   UNL     1      14.556 -30.453  15.927  0.00  0.00    -0.064 C 
ATOM     27  C   UNL     1      13.052 -30.334  16.301  0.00  0.00    +0.066 C 
ENDBRANCH  19  20
ENDBRANCH  18  19
ENDBRANCH  14  15
ENDBRANCH  12  13
TORSDOF 6
ENDMDL
MODEL 3
REMARK VINA RESULT:      -6.9     18.463     23.927
REMARK  Name = C:\Users\Docking\Desktop\test protocol\1iep_ligandH.pdb
REMARK  8 active torsions:
REMARK  status: ('A' for Active; 'I' for Inactive)
REMARK    1  A    between atoms: _5  and  _11
REMARK    2  A    between atoms: _19  and  _21
REMARK    3  A    between atoms: _22  and  _66
REMARK    4  A    between atoms: _27  and  _30
REMARK    5  A    between atoms: _32  and  _33
REMARK    6  A    between atoms: _38  and  _43
REMARK    7  A    between atoms: _43  and  _46
REMARK    8  A    between atoms: _53  and  _55
REMARK                            x       y       z     vdW  Elec       q    Type
REMARK                         _______ _______ _______ _____ _____    ______ ____
ROOT
ATOM     10  C   UNL     1       2.955 -30.617  28.117  0.00  0.00    +0.038 A 
ATOM     11  C   UNL     1       3.701 -29.909  27.140  0.00  0.00    +0.047 A 
ATOM     12  C   UNL     1       4.944 -30.445  26.608  0.00  0.00    +0.035 A 
ATOM     32  C   UNL     1       5.396 -31.708  27.091  0.00  0.00    +0.024 A 
ATOM     33  C   UNL     1       4.651 -32.441  28.084  0.00  0.00    +0.007 A 
ATOM     34  C   UNL     1       3.426 -31.915  28.615  0.00  0.00    -0.029 A 
ATOM     35  C   UNL     1       2.672 -32.741  29.683  0.00  0.00    +0.045 C 
ENDROOT
BRANCH  10   9
ATOM      4  C   UNL     1       0.528 -27.778  31.131  0.00  0.00    +0.077 A 
ATOM      5  C   UNL     1       1.722 -27.403  31.833  0.00  0.00    +0.048 A 
ATOM      6  C   UNL     1       2.939 -27.968  31.391  0.00  0.00    +0.116 A 
ATOM      7  N   UNL     1       2.950 -28.842  30.326  0.00  0.00    -0.223 NA
ATOM      8  C   UNL     1       1.780 -29.184  29.672  0.00  0.00    +0.220 A 
ATOM      9  N   UNL     1       1.768 -30.055  28.594  0.00  0.00    -0.283 N 
ATOM     36  H   UNL     1       0.884 -30.288  28.143  0.00  0.00    +0.155 HD
ATOM     37  N   UNL     1       0.605 -28.659  30.076  0.00  0.00    -0.214 NA
BRANCH   4   3
ATOM      1  C   UNL     1      -2.717 -25.598  31.257  0.00  0.00    +0.020 A 
ATOM      2  C   UNL     1      -1.396 -26.052  30.889  0.00  0.00    +0.013 A 
ATOM      3  C   UNL     1      -0.834 -27.262  31.477  0.00  0.00    +0.019 A 
ATOM     38  C   UNL     1      -1.642 -27.994  32.441  0.00  0.00    +0.120 A 
ATOM     39  N   UNL     1      -2.910 -27.532  32.777  0.00  0.00    -0.263 NA
ATOM     40  C   UNL     1      -3.461 -26.368  32.219  0.00  0.00    +0.111 A 
ENDBRANCH   4   3
ENDBRANCH  10   9
BRANCH  12  13
ATOM     13  N   UNL     1       5.748 -29.768  25.621  0.00  0.00    -0.281 N 
ATOM     14  C   UNL     1       6.598 -28.691  25.809  0.00  0.00    +0.248 C 
ATOM     30  O   UNL     1       6.634 -28.007  26.821  0.00  0.00    -0.270 OA
ATOM     31  H   UNL     1       5.682 -30.126  24.668  0.00  0.00    +0.155 HD
BRANCH  14  15
ATOM     15  C   UNL     1       7.534 -28.310  24.708  0.00  0.00    +0.037 A 
ATOM     16  C   UNL     1       8.507 -29.265  24.173  0.00  0.00    +0.013 A 
ATOM     17  C   UNL     1       9.410 -28.866  23.122  0.00  0.00    +0.005 A 
ATOM     18  C   UNL     1       9.343 -27.504  22.599  0.00  0.00    -0.033 A 
ATOM     28  C   UNL     1       8.365 -26.578  23.145  0.00  0.00    +0.005 A 
ATOM     29  C   UNL     1       7.479 -26.965  24.175  0.00  0.00    +0.013 A 
BRANCH  18  19
ATOM     19  C   UNL     1      10.282 -26.985  21.494  0.00  0.00    +0.119 C 
BRANCH  19  20
ATOM     20  N   UNL     1      10.410 -27.816  20.260  0.00  0.00    -0.302 NA
ATOM     21  C   UNL     1      11.772 -28.512  20.175  0.00  0.00    +0.066 C 
ATOM     22  C   UNL     1      11.880 -29.395  18.889  0.00  0.00    -0.064 C 
ATOM     23  N   UNL     1      11.638 -28.526  17.654  0.00  0.00    +0.379 N 
ATOM     24  C   UNL     1      11.796 -29.341  16.441  0.00  0.00    -0.096 C 
ATOM     25  H   UNL     1      12.425 -27.736  17.637  0.00  0.00    -0.082 HD
ATOM     26  C   UNL     1      10.287 -27.828  17.732  0.00  0.00    -0.064 C 
ATOM     27  C   UNL     1      10.178 -26.977  19.028  0.00  0.00    +0.066 C 
ENDBRANCH  19  20
ENDBRANCH  18  19
ENDBRANCH  14  15
ENDBRANCH  12  13
TORSDOF 6
ENDMDL
MODEL 4
REMARK VINA RESULT:      -6.9      3.069      5.783
REMARK  Name = C:\Users\Docking\Desktop\test protocol\1iep_ligandH.pdb
REMARK  8 active torsions:
REMARK  status: ('A' for Active; 'I' for Inactive)
REMARK    1  A    between atoms: _5  and  _11
REMARK    2  A    between atoms: _19  and  _21
REMARK    3  A    between atoms: _22  and  _66
REMARK    4  A    between atoms: _27  and  _30
REMARK    5  A    between atoms: _32  and  _33
REMARK    6  A    between atoms: _38  and  _43
REMARK    7  A    between atoms: _43  and  _46
REMARK    8  A    between atoms: _53  and  _55
REMARK                            x       y       z     vdW  Elec       q    Type
REMARK                         _______ _______ _______ _____ _____    ______ ____
ROOT
ATOM     10  C   UNL     1      -6.896 -16.004  17.902  0.00  0.00    +0.038 A 
ATOM     11  C   UNL     1      -8.190 -16.582  17.944  0.00  0.00    +0.047 A 
ATOM     12  C   UNL     1      -8.978 -16.576  19.167  0.00  0.00    +0.035 A 
ATOM     32  C   UNL     1      -8.417 -15.970  20.328  0.00  0.00    +0.024 A 
ATOM     33  C   UNL     1      -7.102 -15.379  20.304  0.00  0.00    +0.007 A 
ATOM     34  C   UNL     1      -6.319 -15.384  19.101  0.00  0.00    -0.029 A 
ATOM     35  C   UNL     1      -4.913 -14.742  19.134  0.00  0.00    +0.045 C 
ENDROOT
BRANCH  10   9
ATOM      4  C   UNL     1      -5.748 -14.191  13.609  0.00  0.00    +0.077 A 
ATOM      5  C   UNL     1      -6.664 -13.097  13.760  0.00  0.00    +0.048 A 
ATOM      6  C   UNL     1      -7.417 -13.042  14.954  0.00  0.00    +0.116 A 
ATOM      7  N   UNL     1      -7.257 -14.013  15.919  0.00  0.00    -0.223 NA
ATOM      8  C   UNL     1      -6.366 -15.055  15.741  0.00  0.00    +0.220 A 
ATOM      9  N   UNL     1      -6.183 -16.039  16.701  0.00  0.00    -0.283 N 
ATOM     36  H   UNL     1      -5.522 -16.795  16.528  0.00  0.00    +0.155 HD
ATOM     37  N   UNL     1      -5.636 -15.131  14.608  0.00  0.00    -0.214 NA
BRANCH   4   3
ATOM      1  C   UNL     1      -2.693 -14.987  11.298  0.00  0.00    +0.020 A 
ATOM      2  C   UNL     1      -3.489 -14.813  12.492  0.00  0.00    +0.013 A 
ATOM      3  C   UNL     1      -4.879 -14.385  12.405  0.00  0.00    +0.019 A 
ATOM     38  C   UNL     1      -5.439 -14.140  11.084  0.00  0.00    +0.120 A 
ATOM     39  N   UNL     1      -4.649 -14.314   9.952  0.00  0.00    -0.263 NA
ATOM     40  C   UNL     1      -3.309 -14.724  10.024  0.00  0.00    +0.111 A 
ENDBRANCH   4   3
ENDBRANCH  10   9
BRANCH  12  13
ATOM     13  N   UNL     1     -10.294 -17.154  19.272  0.00  0.00    -0.281 N 
ATOM     14  C   UNL     1     -11.501 -16.497  19.448  0.00  0.00    +0.248 C 
ATOM     30  O   UNL     1     -11.609 -15.320  19.758  0.00  0.00    -0.270 OA
ATOM     31  H   UNL     1     -10.343 -18.171  19.208  0.00  0.00    +0.155 HD
BRANCH  14  15
ATOM     15  C   UNL     1     -12.773 -17.262  19.269  0.00  0.00    +0.037 A 
ATOM     16  C   UNL     1     -14.054 -16.729  19.739  0.00  0.00    +0.013 A 
ATOM     17  C   UNL     1     -15.263 -17.495  19.568  0.00  0.00    +0.005 A 
ATOM     18  C   UNL     1     -15.196 -18.803  18.922  0.00  0.00    -0.033 A 
ATOM     28  C   UNL     1     -13.913 -19.306  18.460  0.00  0.00    +0.005 A 
ATOM     29  C   UNL     1     -12.726 -18.558  18.627  0.00  0.00    +0.013 A 
BRANCH  18  19
ATOM     19  C   UNL     1     -16.432 -19.699  18.717  0.00  0.00    +0.119 C 
BRANCH  19  20
ATOM     20  N   UNL     1     -17.768 -19.099  19.013  0.00  0.00    -0.302 NA
ATOM     21  C   UNL     1     -18.215 -19.376  20.451  0.00  0.00    +0.066 C 
ATOM     22  C   UNL     1     -19.604 -18.722  20.751  0.00  0.00    -0.064 C 
ATOM     23  N   UNL     1     -20.637 -19.246  19.752  0.00  0.00    +0.379 N 
ATOM     24  C   UNL     1     -21.956 -18.678  20.067  0.00  0.00    -0.096 C 
ATOM     25  H   UNL     1     -20.704 -20.351  19.883  0.00  0.00    -0.082 HD
ATOM     26  C   UNL     1     -20.198 -18.977  18.319  0.00  0.00    -0.064 C 
ATOM     27  C   UNL     1     -18.804 -19.606  18.041  0.00  0.00    +0.066 C 
ENDBRANCH  19  20
ENDBRANCH  18  19
ENDBRANCH  14  15
ENDBRANCH  12  13
TORSDOF 6
ENDMDL
MODEL 5
REMARK VINA RESULT:      -6.8     19.465     21.776
REMARK  Name = C:\Users\Docking\Desktop\test protocol\1iep_ligandH.pdb
REMARK  8 active torsions:
REMARK  status: ('A' for Active; 'I' for Inactive)
REMARK    1  A    between atoms: _5  and  _11
REMARK    2  A    between atoms: _19  and  _21
REMARK    3  A    between atoms: _22  and  _66
REMARK    4  A    between atoms: _27  and  _30
REMARK    5  A    between atoms: _32  and  _33
REMARK    6  A    between atoms: _38  and  _43
REMARK    7  A    between atoms: _43  and  _46
REMARK    8  A    between atoms: _53  and  _55
REMARK                            x       y       z     vdW  Elec       q    Type
REMARK                         _______ _______ _______ _____ _____    ______ ____
ROOT
ATOM     10  C   UNL     1      -0.325 -23.005   0.278  0.00  0.00    +0.038 A 
ATOM     11  C   UNL     1      -1.388 -23.905   0.546  0.00  0.00    +0.047 A 
ATOM     12  C   UNL     1      -2.196 -24.457  -0.531  0.00  0.00    +0.035 A 
ATOM     32  C   UNL     1      -1.892 -24.073  -1.869  0.00  0.00    +0.024 A 
ATOM     33  C   UNL     1      -0.815 -23.159  -2.159  0.00  0.00    +0.007 A 
ATOM     34  C   UNL     1      -0.016 -22.609  -1.102  0.00  0.00    -0.029 A 
ATOM     35  C   UNL     1       1.121 -21.628  -1.471  0.00  0.00    +0.045 C 
ENDROOT
BRANCH  10   9
ATOM      4  C   UNL     1       0.557 -19.694   3.638  0.00  0.00    +0.077 A 
ATOM      5  C   UNL     1      -0.539 -18.877   3.205  0.00  0.00    +0.048 A 
ATOM      6  C   UNL     1      -1.301 -19.341   2.109  0.00  0.00    +0.116 A 
ATOM      7  N   UNL     1      -0.982 -20.535   1.500  0.00  0.00    -0.223 NA
ATOM      8  C   UNL     1       0.084 -21.298   1.942  0.00  0.00    +0.220 A 
ATOM      9  N   UNL     1       0.418 -22.506   1.349  0.00  0.00    -0.283 N 
ATOM     36  H   UNL     1       1.216 -23.035   1.700  0.00  0.00    +0.155 HD
ATOM     37  N   UNL     1       0.828 -20.876   2.986  0.00  0.00    -0.214 NA
BRANCH   4   3
ATOM      1  C   UNL     1       1.860 -18.705   7.192  0.00  0.00    +0.020 A 
ATOM      2  C   UNL     1       0.951 -19.040   6.119  0.00  0.00    +0.013 A 
ATOM      3  C   UNL     1       1.453 -19.340   4.784  0.00  0.00    +0.019 A 
ATOM     38  C   UNL     1       2.891 -19.293   4.566  0.00  0.00    +0.120 A 
ATOM     39  N   UNL     1       3.742 -18.965   5.618  0.00  0.00    -0.263 NA
ATOM     40  C   UNL     1       3.270 -18.673   6.906  0.00  0.00    +0.111 A 
ENDBRANCH   4   3
ENDBRANCH  10   9
BRANCH  12  13
ATOM     13  N   UNL     1      -3.293 -25.368  -0.319  0.00  0.00    -0.281 N 
ATOM     14  C   UNL     1      -4.506 -25.111   0.299  0.00  0.00    +0.248 C 
ATOM     30  O   UNL     1      -4.749 -24.111   0.957  0.00  0.00    -0.270 OA
ATOM     31  H   UNL     1      -3.160 -26.318  -0.667  0.00  0.00    +0.155 HD
BRANCH  14  15
ATOM     15  C   UNL     1      -5.604 -26.119   0.181  0.00  0.00    +0.037 A 
ATOM     16  C   UNL     1      -6.310 -26.329  -1.085  0.00  0.00    +0.013 A 
ATOM     17  C   UNL     1      -7.376 -27.295  -1.167  0.00  0.00    +0.005 A 
ATOM     18  C   UNL     1      -7.743 -28.060   0.022  0.00  0.00    -0.033 A 
ATOM     28  C   UNL     1      -7.023 -27.835   1.265  0.00  0.00    +0.005 A 
ATOM     29  C   UNL     1      -5.978 -26.888   1.349  0.00  0.00    +0.013 A 
BRANCH  18  19
ATOM     19  C   UNL     1      -8.883 -29.096   0.032  0.00  0.00    +0.119 C 
BRANCH  19  20
ATOM     20  N   UNL     1      -8.508 -30.522   0.271  0.00  0.00    -0.302 NA
ATOM     21  C   UNL     1      -8.141 -31.245  -1.028  0.00  0.00    +0.066 C 
ATOM     22  C   UNL     1      -7.730 -32.729  -0.757  0.00  0.00    -0.064 C 
ATOM     23  N   UNL     1      -8.874 -33.449  -0.041  0.00  0.00    +0.379 N 
ATOM     24  C   UNL     1      -8.514 -34.860   0.164  0.00  0.00    -0.096 C 
ATOM     25  H   UNL     1      -9.764 -33.421  -0.712  0.00  0.00    -0.082 HD
ATOM     26  C   UNL     1      -9.247 -32.735   1.251  0.00  0.00    -0.064 C 
ATOM     27  C   UNL     1      -9.625 -31.253   0.974  0.00  0.00    +0.066 C 
ENDBRANCH  19  20
ENDBRANCH  18  19
ENDBRANCH  14  15
ENDBRANCH  12  13
TORSDOF 6
ENDMDL
