MODEL 1
REMARK VINA RESULT:      -8.7      0.000      0.000
REMARK  Name = C:\Users\Docking\Desktop\test protocol\1iep_ligandH.pdb
REMARK  8 active torsions:
REMARK  status: ('A' for Active; 'I' for Inactive)
REMARK    1  A    between atoms: _5  and  _11
REMARK    2  A    between atoms: _19  and  _21
REMARK    3  A    between atoms: _22  and  _66
REMARK    4  A    between atoms: _27  and  _30
REMARK    5  A    between atoms: _32  and  _33
REMARK    6  A    between atoms: _38  and  _43
REMARK    7  A    between atoms: _43  and  _46
REMARK    8  A    between atoms: _53  and  _55
REMARK                            x       y       z     vdW  Elec       q    Type
REMARK                         _______ _______ _______ _____ _____    ______ ____
ROOT
ATOM     10  C   UNL     1      25.597  11.879  25.857  0.00  0.00    +0.038 A 
ATOM     11  C   UNL     1      24.893  10.671  25.621  0.00  0.00    +0.047 A 
ATOM     12  C   UNL     1      25.117   9.495  26.448  0.00  0.00    +0.035 A 
ATOM     32  C   UNL     1      26.063   9.587  27.510  0.00  0.00    +0.024 A 
ATOM     33  C   UNL     1      26.789  10.807  27.763  0.00  0.00    +0.007 A 
ATOM     34  C   UNL     1      26.574  11.969  26.949  0.00  0.00    -0.029 A 
ATOM     35  C   UNL     1      27.384  13.248  27.263  0.00  0.00    +0.045 C 
ENDROOT
BRANCH  10   9
ATOM      4  C   UNL     1      26.720  14.771  22.194  0.00  0.00    +0.077 A 
ATOM      5  C   UNL     1      27.929  14.049  21.918  0.00  0.00    +0.048 A 
ATOM      6  C   UNL     1      28.229  12.944  22.746  0.00  0.00    +0.116 A 
ATOM      7  N   UNL     1      27.376  12.596  23.771  0.00  0.00    -0.223 NA
ATOM      8  C   UNL     1      26.219  13.314  24.012  0.00  0.00    +0.220 A 
ATOM      9  N   UNL     1      25.343  12.977  25.032  0.00  0.00    -0.283 N 
ATOM     36  H   UNL     1      24.504  13.536  25.181  0.00  0.00    +0.155 HD
ATOM     37  N   UNL     1      25.911  14.374  23.236  0.00  0.00    -0.214 NA
BRANCH   4   3
ATOM      1  C   UNL     1      24.519  17.263  20.134  0.00  0.00    +0.020 A 
ATOM      2  C   UNL     1      24.908  16.094  20.890  0.00  0.00    +0.013 A 
ATOM      3  C   UNL     1      26.265  15.959  21.405  0.00  0.00    +0.019 A 
ATOM     38  C   UNL     1      27.210  17.031  21.137  0.00  0.00    +0.120 A 
ATOM     39  N   UNL     1      26.807  18.144  20.405  0.00  0.00    -0.263 NA
ATOM     40  C   UNL     1      25.505  18.285  19.902  0.00  0.00    +0.111 A 
ENDBRANCH   4   3
ENDBRANCH  10   9
BRANCH  12  13
ATOM     13  N   UNL     1      24.438   8.239  26.250  0.00  0.00    -0.281 N 
ATOM     14  C   UNL     1      23.763   7.804  25.121  0.00  0.00    +0.248 C 
ATOM     30  O   UNL     1      23.458   8.520  24.179  0.00  0.00    -0.270 OA
ATOM     31  H   UNL     1      24.456   7.592  27.039  0.00  0.00    +0.155 HD
BRANCH  14  15
ATOM     15  C   UNL     1      23.357   6.368  25.032  0.00  0.00    +0.037 A 
ATOM     16  C   UNL     1      23.860   5.375  25.984  0.00  0.00    +0.013 A 
ATOM     17  C   UNL     1      23.465   3.994  25.865  0.00  0.00    +0.005 A 
ATOM     18  C   UNL     1      22.560   3.598  24.788  0.00  0.00    -0.033 A 
ATOM     28  C   UNL     1      22.072   4.605  23.861  0.00  0.00    +0.005 A 
ATOM     29  C   UNL     1      22.458   5.959  23.974  0.00  0.00    +0.013 A 
BRANCH  18  19
ATOM     19  C   UNL     1      22.103   2.143  24.573  0.00  0.00    +0.119 C 
BRANCH  19  20
ATOM     20  N   UNL     1      23.049   1.226  23.870  0.00  0.00    -0.302 NA
ATOM     21  C   UNL     1      22.322   0.262  22.929  0.00  0.00    +0.066 C 
ATOM     22  C   UNL     1      23.328  -0.675  22.184  0.00  0.00    -0.064 C 
ATOM     23  N   UNL     1      24.159  -1.445  23.212  0.00  0.00    +0.379 N 
ATOM     24  C   UNL     1      25.067  -2.369  22.516  0.00  0.00    -0.096 C 
ATOM     25  H   UNL     1      23.457  -2.057  23.825  0.00  0.00    -0.082 HD
ATOM     26  C   UNL     1      24.884  -0.493  24.154  0.00  0.00    -0.064 C 
ATOM     27  C   UNL     1      23.877   0.453  24.866  0.00  0.00    +0.066 C 
ENDBRANCH  19  20
ENDBRANCH  18  19
ENDBRANCH  14  15
ENDBRANCH  12  13
TORSDOF 6
ENDMDL
MODEL 2
REMARK VINA RESULT:      -8.0     25.791     27.931
REMARK  Name = C:\Users\Docking\Desktop\test protocol\1iep_ligandH.pdb
REMARK  8 active torsions:
REMARK  status: ('A' for Active; 'I' for Inactive)
REMARK    1  A    between atoms: _5  and  _11
REMARK    2  A    between atoms: _19  and  _21
REMARK    3  A    between atoms: _22  and  _66
REMARK    4  A    between atoms: _27  and  _30
REMARK    5  A    between atoms: _32  and  _33
REMARK    6  A    between atoms: _38  and  _43
REMARK    7  A    between atoms: _43  and  _46
REMARK    8  A    between atoms: _53  and  _55
REMARK                            x       y       z     vdW  Elec       q    Type
REMARK                         _______ _______ _______ _____ _____    ______ ____
ROOT
ATOM     10  C   UNL     1      19.603  -0.048  -1.768  0.00  0.00    +0.038 A 
ATOM     11  C   UNL     1      20.388  -0.847  -0.898  0.00  0.00    +0.047 A 
ATOM     12  C   UNL     1      21.699  -1.334  -1.300  0.00  0.00    +0.035 A 
ATOM     32  C   UNL     1      22.181  -0.985  -2.595  0.00  0.00    +0.024 A 
ATOM     33  C   UNL     1      21.395  -0.175  -3.493  0.00  0.00    +0.007 A 
ATOM     34  C   UNL     1      20.101   0.306  -3.103  0.00  0.00    -0.029 A 
ATOM     35  C   UNL     1      19.300   1.165  -4.108  0.00  0.00    +0.045 C 
ENDROOT
BRANCH  10   9
ATOM      4  C   UNL     1      14.866  -0.610  -1.239  0.00  0.00    +0.077 A 
ATOM      5  C   UNL     1      14.881  -1.875  -1.917  0.00  0.00    +0.048 A 
ATOM      6  C   UNL     1      16.127  -2.342  -2.392  0.00  0.00    +0.116 A 
ATOM      7  N   UNL     1      17.267  -1.592  -2.198  0.00  0.00    -0.223 NA
ATOM      8  C   UNL     1      17.217  -0.376  -1.543  0.00  0.00    +0.220 A 
ATOM      9  N   UNL     1      18.352   0.391  -1.330  0.00  0.00    -0.283 N 
ATOM     36  H   UNL     1      18.273   1.287  -0.848  0.00  0.00    +0.155 HD
ATOM     37  N   UNL     1      16.039   0.093  -1.081  0.00  0.00    -0.214 NA
BRANCH   4   3
ATOM      1  C   UNL     1      12.202   0.818   1.243  0.00  0.00    +0.020 A 
ATOM      2  C   UNL     1      13.416   0.208   0.752  0.00  0.00    +0.013 A 
ATOM      3  C   UNL     1      13.628   0.015  -0.677  0.00  0.00    +0.019 A 
ATOM     38  C   UNL     1      12.583   0.455  -1.590  0.00  0.00    +0.120 A 
ATOM     39  N   UNL     1      11.424   1.038  -1.088  0.00  0.00    -0.263 NA
ATOM     40  C   UNL     1      11.208   1.227   0.286  0.00  0.00    +0.111 A 
ENDBRANCH   4   3
ENDBRANCH  10   9
BRANCH  12  13
ATOM     13  N   UNL     1      22.538  -2.155  -0.462  0.00  0.00    -0.281 N 
ATOM     14  C   UNL     1      22.263  -2.635   0.808  0.00  0.00    +0.248 C 
ATOM     30  O   UNL     1      21.337  -2.252   1.506  0.00  0.00    -0.270 OA
ATOM     31  H   UNL     1      23.444  -2.413  -0.853  0.00  0.00    +0.155 HD
BRANCH  14  15
ATOM     15  C   UNL     1      23.156  -3.682   1.392  0.00  0.00    +0.037 A 
ATOM     16  C   UNL     1      24.019  -4.505   0.542  0.00  0.00    +0.013 A 
ATOM     17  C   UNL     1      24.857  -5.520   1.130  0.00  0.00    +0.005 A 
ATOM     18  C   UNL     1      24.837  -5.715   2.578  0.00  0.00    -0.033 A 
ATOM     28  C   UNL     1      23.975  -4.881   3.398  0.00  0.00    +0.005 A 
ATOM     29  C   UNL     1      23.151  -3.886   2.825  0.00  0.00    +0.013 A 
BRANCH  18  19
ATOM     19  C   UNL     1      25.683  -6.788   3.289  0.00  0.00    +0.119 C 
BRANCH  19  20
ATOM     20  N   UNL     1      27.167  -6.681   3.166  0.00  0.00    -0.302 NA
ATOM     21  C   UNL     1      27.774  -7.893   2.455  0.00  0.00    +0.066 C 
ATOM     22  C   UNL     1      29.325  -7.754   2.315  0.00  0.00    -0.064 C 
ATOM     23  N   UNL     1      29.945  -7.573   3.702  0.00  0.00    +0.379 N 
ATOM     24  C   UNL     1      31.408  -7.500   3.580  0.00  0.00    -0.096 C 
ATOM     25  H   UNL     1      29.701  -8.481   4.302  0.00  0.00    -0.082 HD
ATOM     26  C   UNL     1      29.345  -6.372   4.418  0.00  0.00    -0.064 C 
ATOM     27  C   UNL     1      27.800  -6.506   4.525  0.00  0.00    +0.066 C 
ENDBRANCH  19  20
ENDBRANCH  18  19
ENDBRANCH  14  15
ENDBRANCH  12  13
TORSDOF 6
ENDMDL
MODEL 3
REMARK VINA RESULT:      -7.8     27.826     33.780
REMARK  Name = C:\Users\Docking\Desktop\test protocol\1iep_ligandH.pdb
REMARK  8 active torsions:
REMARK  status: ('A' for Active; 'I' for Inactive)
REMARK    1  A    between atoms: _5  and  _11
REMARK    2  A    between atoms: _19  and  _21
REMARK    3  A    between atoms: _22  and  _66
REMARK    4  A    between atoms: _27  and  _30
REMARK    5  A    between atoms: _32  and  _33
REMARK    6  A    between atoms: _38  and  _43
REMARK    7  A    between atoms: _43  and  _46
REMARK    8  A    between atoms: _53  and  _55
REMARK                            x       y       z     vdW  Elec       q    Type
REMARK                         _______ _______ _______ _____ _____    ______ ____
ROOT
ATOM     10  C   UNL     1      25.941  -9.688  -3.381  0.00  0.00    +0.038 A 
ATOM     11  C   UNL     1      24.692  -9.433  -4.003  0.00  0.00    +0.047 A 
ATOM     12  C   UNL     1      24.499  -9.668  -5.426  0.00  0.00    +0.035 A 
ATOM     32  C   UNL     1      25.598 -10.166  -6.184  0.00  0.00    +0.024 A 
ATOM     33  C   UNL     1      26.875 -10.430  -5.567  0.00  0.00    +0.007 A 
ATOM     34  C   UNL     1      27.072 -10.197  -4.165  0.00  0.00    -0.029 A 
ATOM     35  C   UNL     1      28.464 -10.492  -3.559  0.00  0.00    +0.045 C 
ENDROOT
BRANCH  10   9
ATOM      4  C   UNL     1      26.105  -6.731   0.396  0.00  0.00    +0.077 A 
ATOM      5  C   UNL     1      25.945  -5.570  -0.431  0.00  0.00    +0.048 A 
ATOM      6  C   UNL     1      25.832  -5.776  -1.824  0.00  0.00    +0.116 A 
ATOM      7  N   UNL     1      25.875  -7.053  -2.341  0.00  0.00    -0.223 NA
ATOM      8  C   UNL     1      26.032  -8.151  -1.515  0.00  0.00    +0.220 A 
ATOM      9  N   UNL     1      26.071  -9.445  -2.011  0.00  0.00    -0.283 N 
ATOM     36  H   UNL     1      26.195 -10.228  -1.370  0.00  0.00    +0.155 HD
ATOM     37  N   UNL     1      26.144  -7.980  -0.181  0.00  0.00    -0.214 NA
BRANCH   4   3
ATOM      1  C   UNL     1      25.306  -6.287   4.199  0.00  0.00    +0.020 A 
ATOM      2  C   UNL     1      25.127  -6.325   2.766  0.00  0.00    +0.013 A 
ATOM      3  C   UNL     1      26.235  -6.676   1.887  0.00  0.00    +0.019 A 
ATOM     38  C   UNL     1      27.521  -6.986   2.494  0.00  0.00    +0.120 A 
ATOM     39  N   UNL     1      27.663  -6.940   3.877  0.00  0.00    -0.263 NA
ATOM     40  C   UNL     1      26.605  -6.602   4.733  0.00  0.00    +0.111 A 
ENDBRANCH   4   3
ENDBRANCH  10   9
BRANCH  12  13
ATOM     13  N   UNL     1      23.256  -9.420  -6.114  0.00  0.00    -0.281 N 
ATOM     14  C   UNL     1      22.080 -10.147  -6.037  0.00  0.00    +0.248 C 
ATOM     30  O   UNL     1      21.983 -11.252  -5.524  0.00  0.00    -0.270 OA
ATOM     31  H   UNL     1      23.243  -8.610  -6.734  0.00  0.00    +0.155 HD
BRANCH  14  15
ATOM     15  C   UNL     1      20.834  -9.570  -6.627  0.00  0.00    +0.037 A 
ATOM     16  C   UNL     1      20.624  -9.539  -8.077  0.00  0.00    +0.013 A 
ATOM     17  C   UNL     1      19.421  -8.961  -8.621  0.00  0.00    +0.005 A 
ATOM     18  C   UNL     1      18.417  -8.410  -7.714  0.00  0.00    -0.033 A 
ATOM     28  C   UNL     1      18.649  -8.458  -6.280  0.00  0.00    +0.005 A 
ATOM     29  C   UNL     1      19.827  -9.023  -5.743  0.00  0.00    +0.013 A 
BRANCH  18  19
ATOM     19  C   UNL     1      17.113  -7.755  -8.207  0.00  0.00    +0.119 C 
BRANCH  19  20
ATOM     20  N   UNL     1      16.186  -7.212  -7.170  0.00  0.00    -0.302 NA
ATOM     21  C   UNL     1      14.740  -7.661  -7.401  0.00  0.00    +0.066 C 
ATOM     22  C   UNL     1      13.787  -7.103  -6.294  0.00  0.00    -0.064 C 
ATOM     23  N   UNL     1      13.882  -5.576  -6.266  0.00  0.00    +0.379 N 
ATOM     24  C   UNL     1      12.945  -5.045  -5.266  0.00  0.00    -0.096 C 
ATOM     25  H   UNL     1      13.562  -5.199  -7.265  0.00  0.00    -0.082 HD
ATOM     26  C   UNL     1      15.317  -5.121  -6.040  0.00  0.00    -0.064 C 
ATOM     27  C   UNL     1      16.260  -5.705  -7.128  0.00  0.00    +0.066 C 
ENDBRANCH  19  20
ENDBRANCH  18  19
ENDBRANCH  14  15
ENDBRANCH  12  13
TORSDOF 6
ENDMDL
MODEL 4
REMARK VINA RESULT:      -7.7     25.696     31.847
REMARK  Name = C:\Users\Docking\Desktop\test protocol\1iep_ligandH.pdb
REMARK  8 active torsions:
REMARK  status: ('A' for Active; 'I' for Inactive)
REMARK    1  A    between atoms: _5  and  _11
REMARK    2  A    between atoms: _19  and  _21
REMARK    3  A    between atoms: _22  and  _66
REMARK    4  A    between atoms: _27  and  _30
REMARK    5  A    between atoms: _32  and  _33
REMARK    6  A    between atoms: _38  and  _43
REMARK    7  A    between atoms: _43  and  _46
REMARK    8  A    between atoms: _53  and  _55
REMARK                            x       y       z     vdW  Elec       q    Type
REMARK                         _______ _______ _______ _____ _____    ______ ____
ROOT
ATOM     10  C   UNL     1      23.317  -9.368  -4.361  0.00  0.00    +0.038 A 
ATOM     11  C   UNL     1      23.735  -8.964  -3.068  0.00  0.00    +0.047 A 
ATOM     12  C   UNL     1      25.102  -9.178  -2.617  0.00  0.00    +0.035 A 
ATOM     32  C   UNL     1      26.018  -9.804  -3.512  0.00  0.00    +0.024 A 
ATOM     33  C   UNL     1      25.609 -10.222  -4.830  0.00  0.00    +0.007 A 
ATOM     34  C   UNL     1      24.262 -10.016  -5.279  0.00  0.00    -0.029 A 
ATOM     35  C   UNL     1      23.878 -10.490  -6.700  0.00  0.00    +0.045 C 
ENDROOT
BRANCH  10   9
ATOM      4  C   UNL     1      19.913  -6.693  -6.433  0.00  0.00    +0.077 A 
ATOM      5  C   UNL     1      20.846  -5.654  -6.761  0.00  0.00    +0.048 A 
ATOM      6  C   UNL     1      22.191  -5.843  -6.373  0.00  0.00    +0.116 A 
ATOM      7  N   UNL     1      22.564  -6.990  -5.707  0.00  0.00    -0.223 NA
ATOM      8  C   UNL     1      21.639  -7.972  -5.404  0.00  0.00    +0.220 A 
ATOM      9  N   UNL     1      21.993  -9.137  -4.742  0.00  0.00    -0.283 N 
ATOM     36  H   UNL     1      21.280  -9.834  -4.530  0.00  0.00    +0.155 HD
ATOM     37  N   UNL     1      20.348  -7.814  -5.762  0.00  0.00    -0.214 NA
BRANCH   4   3
ATOM      1  C   UNL     1      16.373  -7.595  -7.833  0.00  0.00    +0.020 A 
ATOM      2  C   UNL     1      17.782  -7.694  -7.525  0.00  0.00    +0.013 A 
ATOM      3  C   UNL     1      18.457  -6.640  -6.779  0.00  0.00    +0.019 A 
ATOM     38  C   UNL     1      17.672  -5.491  -6.354  0.00  0.00    +0.120 A 
ATOM     39  N   UNL     1      16.318  -5.422  -6.666  0.00  0.00    -0.263 NA
ATOM     40  C   UNL     1      15.658  -6.429  -7.385  0.00  0.00    +0.111 A 
ENDBRANCH   4   3
ENDBRANCH  10   9
BRANCH  12  13
ATOM     13  N   UNL     1      25.581  -8.796  -1.312  0.00  0.00    -0.281 N 
ATOM     14  C   UNL     1      26.182  -7.604  -0.941  0.00  0.00    +0.248 C 
ATOM     30  O   UNL     1      26.594  -6.764  -1.726  0.00  0.00    -0.270 OA
ATOM     31  H   UNL     1      25.464  -9.488  -0.572  0.00  0.00    +0.155 HD
BRANCH  14  15
ATOM     15  C   UNL     1      26.365  -7.311   0.513  0.00  0.00    +0.037 A 
ATOM     16  C   UNL     1      27.307  -8.080   1.332  0.00  0.00    +0.013 A 
ATOM     17  C   UNL     1      27.451  -7.787   2.736  0.00  0.00    +0.005 A 
ATOM     18  C   UNL     1      26.653  -6.718   3.330  0.00  0.00    -0.033 A 
ATOM     28  C   UNL     1      25.730  -5.967   2.494  0.00  0.00    +0.005 A 
ATOM     29  C   UNL     1      25.585  -6.252   1.118  0.00  0.00    +0.013 A 
BRANCH  18  19
ATOM     19  C   UNL     1      26.727  -6.351   4.824  0.00  0.00    +0.119 C 
BRANCH  19  20
ATOM     20  N   UNL     1      27.969  -6.731   5.561  0.00  0.00    -0.302 NA
ATOM     21  C   UNL     1      27.883  -6.382   7.050  0.00  0.00    +0.066 C 
ATOM     22  C   UNL     1      29.182  -6.806   7.809  0.00  0.00    -0.064 C 
ATOM     23  N   UNL     1      30.392  -6.130   7.163  0.00  0.00    +0.379 N 
ATOM     24  C   UNL     1      31.608  -6.481   7.911  0.00  0.00    -0.096 C 
ATOM     25  H   UNL     1      30.248  -5.028   7.249  0.00  0.00    -0.082 HD
ATOM     26  C   UNL     1      30.483  -6.469   5.682  0.00  0.00    -0.064 C 
ATOM     27  C   UNL     1      29.176  -6.070   4.942  0.00  0.00    +0.066 C 
ENDBRANCH  19  20
ENDBRANCH  18  19
ENDBRANCH  14  15
ENDBRANCH  12  13
TORSDOF 6
ENDMDL
MODEL 5
REMARK VINA RESULT:      -7.7     22.034     24.251
REMARK  Name = C:\Users\Docking\Desktop\test protocol\1iep_ligandH.pdb
REMARK  8 active torsions:
REMARK  status: ('A' for Active; 'I' for Inactive)
REMARK    1  A    between atoms: _5  and  _11
REMARK    2  A    between atoms: _19  and  _21
REMARK    3  A    between atoms: _22  and  _66
REMARK    4  A    between atoms: _27  and  _30
REMARK    5  A    between atoms: _32  and  _33
REMARK    6  A    between atoms: _38  and  _43
REMARK    7  A    between atoms: _43  and  _46
REMARK    8  A    between atoms: _53  and  _55
REMARK                            x       y       z     vdW  Elec       q    Type
REMARK                         _______ _______ _______ _____ _____    ______ ____
ROOT
ATOM     10  C   UNL     1      13.879   8.136   3.417  0.00  0.00    +0.038 A 
ATOM     11  C   UNL     1      14.250   6.908   2.813  0.00  0.00    +0.047 A 
ATOM     12  C   UNL     1      13.384   5.741   2.885  0.00  0.00    +0.035 A 
ATOM     32  C   UNL     1      12.144   5.863   3.577  0.00  0.00    +0.024 A 
ATOM     33  C   UNL     1      11.751   7.104   4.197  0.00  0.00    +0.007 A 
ATOM     34  C   UNL     1      12.603   8.257   4.132  0.00  0.00    -0.029 A 
ATOM     35  C   UNL     1      12.133   9.559   4.821  0.00  0.00    +0.045 C 
ENDROOT
BRANCH  10   9
ATOM      4  C   UNL     1      17.646  10.695   4.932  0.00  0.00    +0.077 A 
ATOM      5  C   UNL     1      17.884   9.804   6.032  0.00  0.00    +0.048 A 
ATOM      6  C   UNL     1      17.010   8.704   6.176  0.00  0.00    +0.116 A 
ATOM      7  N   UNL     1      15.978   8.517   5.281  0.00  0.00    -0.223 NA
ATOM      8  C   UNL     1      15.776   9.396   4.233  0.00  0.00    +0.220 A 
ATOM      9  N   UNL     1      14.749   9.224   3.317  0.00  0.00    -0.283 N 
ATOM     36  H   UNL     1      14.629   9.898   2.562  0.00  0.00    +0.155 HD
ATOM     37  N   UNL     1      16.596  10.456   4.075  0.00  0.00    -0.214 NA
BRANCH   4   3
ATOM      1  C   UNL     1      19.157  14.302   5.033  0.00  0.00    +0.020 A 
ATOM      2  C   UNL     1      18.320  13.167   5.348  0.00  0.00    +0.013 A 
ATOM      3  C   UNL     1      18.485  11.901   4.645  0.00  0.00    +0.019 A 
ATOM     38  C   UNL     1      19.516  11.815   3.621  0.00  0.00    +0.120 A 
ATOM     39  N   UNL     1      20.306  12.925   3.338  0.00  0.00    -0.263 NA
ATOM     40  C   UNL     1      20.155  14.149   4.007  0.00  0.00    +0.111 A 
ENDBRANCH   4   3
ENDBRANCH  10   9
BRANCH  12  13
ATOM     13  N   UNL     1      13.712   4.466   2.298  0.00  0.00    -0.281 N 
ATOM     14  C   UNL     1      13.407   4.010   1.026  0.00  0.00    +0.248 C 
ATOM     30  O   UNL     1      12.616   4.552   0.268  0.00  0.00    -0.270 OA
ATOM     31  H   UNL     1      14.231   3.820   2.893  0.00  0.00    +0.155 HD
BRANCH  14  15
ATOM     15  C   UNL     1      14.065   2.763   0.529  0.00  0.00    +0.037 A 
ATOM     16  C   UNL     1      13.306   1.523   0.349  0.00  0.00    +0.013 A 
ATOM     17  C   UNL     1      13.969   0.331  -0.116  0.00  0.00    +0.005 A 
ATOM     18  C   UNL     1      15.400   0.373  -0.405  0.00  0.00    -0.033 A 
ATOM     28  C   UNL     1      16.128   1.618  -0.222  0.00  0.00    +0.005 A 
ATOM     29  C   UNL     1      15.482   2.789   0.234  0.00  0.00    +0.013 A 
BRANCH  18  19
ATOM     19  C   UNL     1      16.194  -0.857  -0.885  0.00  0.00    +0.119 C 
BRANCH  19  20
ATOM     20  N   UNL     1      17.623  -0.644  -1.261  0.00  0.00    -0.302 NA
ATOM     21  C   UNL     1      18.097  -1.651  -2.313  0.00  0.00    +0.066 C 
ATOM     22  C   UNL     1      19.587  -1.400  -2.711  0.00  0.00    -0.064 C 
ATOM     23  N   UNL     1      20.465  -1.471  -1.460  0.00  0.00    +0.379 N 
ATOM     24  C   UNL     1      21.875  -1.293  -1.839  0.00  0.00    -0.096 C 
ATOM     25  H   UNL     1      20.357  -2.493  -1.029  0.00  0.00    -0.082 HD
ATOM     26  C   UNL     1      20.000  -0.474  -0.408  0.00  0.00    -0.064 C 
ATOM     27  C   UNL     1      18.509  -0.714  -0.041  0.00  0.00    +0.066 C 
ENDBRANCH  19  20
ENDBRANCH  18  19
ENDBRANCH  14  15
ENDBRANCH  12  13
TORSDOF 6
ENDMDL
