MODEL 1
REMARK VINA RESULT:      -8.9      0.000      0.000
REMARK  Name = C:\Users\Docking\Desktop\test protocol\1iep_ligandH.pdb
REMARK  8 active torsions:
REMARK  status: ('A' for Active; 'I' for Inactive)
REMARK    1  A    between atoms: _5  and  _11
REMARK    2  A    between atoms: _19  and  _21
REMARK    3  A    between atoms: _22  and  _66
REMARK    4  A    between atoms: _27  and  _30
REMARK    5  A    between atoms: _32  and  _33
REMARK    6  A    between atoms: _38  and  _43
REMARK    7  A    between atoms: _43  and  _46
REMARK    8  A    between atoms: _53  and  _55
REMARK                            x       y       z     vdW  Elec       q    Type
REMARK                         _______ _______ _______ _____ _____    ______ ____
ROOT
ATOM     10  C   UNL     1      16.611  34.481  15.223  0.00  0.00    +0.038 A 
ATOM     11  C   UNL     1      16.564  35.874  15.486  0.00  0.00    +0.047 A 
ATOM     12  C   UNL     1      15.997  36.387  16.723  0.00  0.00    +0.035 A 
ATOM     32  C   UNL     1      15.488  35.453  17.672  0.00  0.00    +0.024 A 
ATOM     33  C   UNL     1      15.527  34.034  17.421  0.00  0.00    +0.007 A 
ATOM     34  C   UNL     1      16.084  33.522  16.201  0.00  0.00    -0.029 A 
ATOM     35  C   UNL     1      16.093  31.991  15.982  0.00  0.00    +0.045 C 
ENDROOT
BRANCH  10   9
ATOM      4  C   UNL     1      16.221  32.878  10.716  0.00  0.00    +0.077 A 
ATOM      5  C   UNL     1      14.787  32.889  10.773  0.00  0.00    +0.048 A 
ATOM      6  C   UNL     1      14.190  33.307  11.984  0.00  0.00    +0.116 A 
ATOM      7  N   UNL     1      14.977  33.684  13.050  0.00  0.00    -0.223 NA
ATOM      8  C   UNL     1      16.357  33.660  12.962  0.00  0.00    +0.220 A 
ATOM      9  N   UNL     1      17.167  34.043  14.019  0.00  0.00    -0.283 N 
ATOM     36  H   UNL     1      18.181  34.004  13.917  0.00  0.00    +0.155 HD
ATOM     37  N   UNL     1      16.951  33.264  11.817  0.00  0.00    -0.214 NA
BRANCH   4   3
ATOM      1  C   UNL     1      18.676  31.002   8.317  0.00  0.00    +0.020 A 
ATOM      2  C   UNL     1      17.950  31.361   9.514  0.00  0.00    +0.013 A 
ATOM      3  C   UNL     1      16.999  32.465   9.505  0.00  0.00    +0.019 A 
ATOM     38  C   UNL     1      16.804  33.192   8.260  0.00  0.00    +0.120 A 
ATOM     39  N   UNL     1      17.519  32.825   7.124  0.00  0.00    -0.263 NA
ATOM     40  C   UNL     1      18.438  31.765   7.120  0.00  0.00    +0.111 A 
ENDBRANCH   4   3
ENDBRANCH  10   9
BRANCH  12  13
ATOM     13  N   UNL     1      15.914  37.791  17.041  0.00  0.00    -0.281 N 
ATOM     14  C   UNL     1      16.800  38.548  17.791  0.00  0.00    +0.248 C 
ATOM     30  O   UNL     1      17.692  38.082  18.484  0.00  0.00    -0.270 OA
ATOM     31  H   UNL     1      15.105  38.287  16.669  0.00  0.00    +0.155 HD
BRANCH  14  15
ATOM     15  C   UNL     1      16.666  40.037  17.780  0.00  0.00    +0.037 A 
ATOM     16  C   UNL     1      16.739  40.797  16.530  0.00  0.00    +0.013 A 
ATOM     17  C   UNL     1      16.625  42.234  16.550  0.00  0.00    +0.005 A 
ATOM     18  C   UNL     1      16.434  42.920  17.826  0.00  0.00    -0.033 A 
ATOM     28  C   UNL     1      16.360  42.140  19.050  0.00  0.00    +0.005 A 
ATOM     29  C   UNL     1      16.473  40.732  19.035  0.00  0.00    +0.013 A 
BRANCH  18  19
ATOM     19  C   UNL     1      16.323  44.451  17.944  0.00  0.00    +0.119 C 
BRANCH  19  20
ATOM     20  N   UNL     1      15.141  45.102  17.304  0.00  0.00    -0.302 NA
ATOM     21  C   UNL     1      13.846  44.328  17.566  0.00  0.00    +0.066 C 
ATOM     22  C   UNL     1      12.617  45.035  16.908  0.00  0.00    -0.064 C 
ATOM     23  N   UNL     1      12.862  45.186  15.406  0.00  0.00    +0.379 N 
ATOM     24  C   UNL     1      11.684  45.798  14.776  0.00  0.00    -0.096 C 
ATOM     25  H   UNL     1      12.982  44.164  14.979  0.00  0.00    -0.082 HD
ATOM     26  C   UNL     1      14.149  45.953  15.136  0.00  0.00    -0.064 C 
ATOM     27  C   UNL     1      15.360  45.258  15.819  0.00  0.00    +0.066 C 
ENDBRANCH  19  20
ENDBRANCH  18  19
ENDBRANCH  14  15
ENDBRANCH  12  13
TORSDOF 6
ENDMDL
MODEL 2
REMARK VINA RESULT:      -8.8      1.607      2.127
REMARK  Name = C:\Users\Docking\Desktop\test protocol\1iep_ligandH.pdb
REMARK  8 active torsions:
REMARK  status: ('A' for Active; 'I' for Inactive)
REMARK    1  A    between atoms: _5  and  _11
REMARK    2  A    between atoms: _19  and  _21
REMARK    3  A    between atoms: _22  and  _66
REMARK    4  A    between atoms: _27  and  _30
REMARK    5  A    between atoms: _32  and  _33
REMARK    6  A    between atoms: _38  and  _43
REMARK    7  A    between atoms: _43  and  _46
REMARK    8  A    between atoms: _53  and  _55
REMARK                            x       y       z     vdW  Elec       q    Type
REMARK                         _______ _______ _______ _____ _____    ______ ____
ROOT
ATOM     10  C   UNL     1      16.182  34.677  15.365  0.00  0.00    +0.038 A 
ATOM     11  C   UNL     1      16.415  36.059  15.582  0.00  0.00    +0.047 A 
ATOM     12  C   UNL     1      16.134  36.677  16.869  0.00  0.00    +0.035 A 
ATOM     32  C   UNL     1      15.618  35.856  17.914  0.00  0.00    +0.024 A 
ATOM     33  C   UNL     1      15.374  34.450  17.710  0.00  0.00    +0.007 A 
ATOM     34  C   UNL     1      15.647  33.836  16.442  0.00  0.00    -0.029 A 
ATOM     35  C   UNL     1      15.360  32.325  16.279  0.00  0.00    +0.045 C 
ENDROOT
BRANCH  10   9
ATOM      4  C   UNL     1      19.101  32.414  12.299  0.00  0.00    +0.077 A 
ATOM      5  C   UNL     1      20.151  32.326  13.273  0.00  0.00    +0.048 A 
ATOM      6  C   UNL     1      19.903  32.881  14.548  0.00  0.00    +0.116 A 
ATOM      7  N   UNL     1      18.690  33.478  14.819  0.00  0.00    -0.223 NA
ATOM      8  C   UNL     1      17.699  33.548  13.857  0.00  0.00    +0.220 A 
ATOM      9  N   UNL     1      16.470  34.136  14.110  0.00  0.00    -0.283 N 
ATOM     36  H   UNL     1      15.768  34.175  13.371  0.00  0.00    +0.155 HD
ATOM     37  N   UNL     1      17.913  33.026  12.631  0.00  0.00    -0.214 NA
BRANCH   4   3
ATOM      1  C   UNL     1      20.476  30.736   9.045  0.00  0.00    +0.020 A 
ATOM      2  C   UNL     1      20.423  31.245  10.396  0.00  0.00    +0.013 A 
ATOM      3  C   UNL     1      19.210  31.871  10.909  0.00  0.00    +0.019 A 
ATOM     38  C   UNL     1      18.061  31.967  10.022  0.00  0.00    +0.120 A 
ATOM     39  N   UNL     1      18.142  31.470   8.725  0.00  0.00    -0.263 NA
ATOM     40  C   UNL     1      19.304  30.866   8.220  0.00  0.00    +0.111 A 
ENDBRANCH   4   3
ENDBRANCH  10   9
BRANCH  12  13
ATOM     13  N   UNL     1      16.343  38.077  17.145  0.00  0.00    -0.281 N 
ATOM     14  C   UNL     1      17.545  38.763  17.203  0.00  0.00    +0.248 C 
ATOM     30  O   UNL     1      18.645  38.230  17.237  0.00  0.00    -0.270 OA
ATOM     31  H   UNL     1      15.503  38.628  17.319  0.00  0.00    +0.155 HD
BRANCH  14  15
ATOM     15  C   UNL     1      17.523  40.257  17.245  0.00  0.00    +0.037 A 
ATOM     16  C   UNL     1      18.527  41.052  16.534  0.00  0.00    +0.013 A 
ATOM     17  C   UNL     1      18.492  42.491  16.605  0.00  0.00    +0.005 A 
ATOM     18  C   UNL     1      17.447  43.145  17.389  0.00  0.00    -0.033 A 
ATOM     28  C   UNL     1      16.460  42.332  18.079  0.00  0.00    +0.005 A 
ATOM     29  C   UNL     1      16.491  40.921  18.013  0.00  0.00    +0.013 A 
BRANCH  18  19
ATOM     19  C   UNL     1      17.346  44.675  17.537  0.00  0.00    +0.119 C 
BRANCH  19  20
ATOM     20  N   UNL     1      16.259  45.365  16.779  0.00  0.00    -0.302 NA
ATOM     21  C   UNL     1      14.904  45.247  17.483  0.00  0.00    +0.066 C 
ATOM     22  C   UNL     1      13.784  45.993  16.688  0.00  0.00    -0.064 C 
ATOM     23  N   UNL     1      13.708  45.430  15.268  0.00  0.00    +0.379 N 
ATOM     24  C   UNL     1      12.616  46.089  14.536  0.00  0.00    -0.096 C 
ATOM     25  H   UNL     1      13.456  44.347  15.347  0.00  0.00    -0.082 HD
ATOM     26  C   UNL     1      15.052  45.540  14.562  0.00  0.00    -0.064 C 
ATOM     27  C   UNL     1      16.164  44.820  15.375  0.00  0.00    +0.066 C 
ENDBRANCH  19  20
ENDBRANCH  18  19
ENDBRANCH  14  15
ENDBRANCH  12  13
TORSDOF 6
ENDMDL
MODEL 3
REMARK VINA RESULT:      -8.7      7.458     13.087
REMARK  Name = C:\Users\Docking\Desktop\test protocol\1iep_ligandH.pdb
REMARK  8 active torsions:
REMARK  status: ('A' for Active; 'I' for Inactive)
REMARK    1  A    between atoms: _5  and  _11
REMARK    2  A    between atoms: _19  and  _21
REMARK    3  A    between atoms: _22  and  _66
REMARK    4  A    between atoms: _27  and  _30
REMARK    5  A    between atoms: _32  and  _33
REMARK    6  A    between atoms: _38  and  _43
REMARK    7  A    between atoms: _43  and  _46
REMARK    8  A    between atoms: _53  and  _55
REMARK                            x       y       z     vdW  Elec       q    Type
REMARK                         _______ _______ _______ _____ _____    ______ ____
ROOT
ATOM     10  C   UNL     1      17.529  34.034  10.332  0.00  0.00    +0.038 A 
ATOM     11  C   UNL     1      17.969  32.763  10.781  0.00  0.00    +0.047 A 
ATOM     12  C   UNL     1      17.374  32.130  11.948  0.00  0.00    +0.035 A 
ATOM     32  C   UNL     1      16.330  32.819  12.632  0.00  0.00    +0.024 A 
ATOM     33  C   UNL     1      15.871  34.112  12.189  0.00  0.00    +0.007 A 
ATOM     34  C   UNL     1      16.457  34.743  11.040  0.00  0.00    -0.029 A 
ATOM     35  C   UNL     1      15.930  36.133  10.615  0.00  0.00    +0.045 C 
ENDROOT
BRANCH  10   9
ATOM      4  C   UNL     1      17.752  34.847   5.607  0.00  0.00    +0.077 A 
ATOM      5  C   UNL     1      16.575  34.065   5.357  0.00  0.00    +0.048 A 
ATOM      6  C   UNL     1      15.947  33.464   6.471  0.00  0.00    +0.116 A 
ATOM      7  N   UNL     1      16.465  33.640   7.736  0.00  0.00    -0.223 NA
ATOM      8  C   UNL     1      17.602  34.399   7.941  0.00  0.00    +0.220 A 
ATOM      9  N   UNL     1      18.136  34.595   9.206  0.00  0.00    -0.283 N 
ATOM     36  H   UNL     1      18.981  35.156   9.315  0.00  0.00    +0.155 HD
ATOM     37  N   UNL     1      18.222  34.981   6.894  0.00  0.00    -0.214 NA
BRANCH   4   3
ATOM      1  C   UNL     1      20.386  35.664   2.833  0.00  0.00    +0.020 A 
ATOM      2  C   UNL     1      19.673  34.945   3.864  0.00  0.00    +0.013 A 
ATOM      3  C   UNL     1      18.526  35.546   4.533  0.00  0.00    +0.019 A 
ATOM     38  C   UNL     1      18.123  36.886   4.132  0.00  0.00    +0.120 A 
ATOM     39  N   UNL     1      18.830  37.554   3.138  0.00  0.00    -0.263 NA
ATOM     40  C   UNL     1      19.937  36.987   2.488  0.00  0.00    +0.111 A 
ENDBRANCH   4   3
ENDBRANCH  10   9
BRANCH  12  13
ATOM     13  N   UNL     1      17.785  30.845  12.456  0.00  0.00    -0.281 N 
ATOM     14  C   UNL     1      17.676  29.610  11.837  0.00  0.00    +0.248 C 
ATOM     30  O   UNL     1      17.010  29.396  10.835  0.00  0.00    -0.270 OA
ATOM     31  H   UNL     1      18.207  30.845  13.385  0.00  0.00    +0.155 HD
BRANCH  14  15
ATOM     15  C   UNL     1      18.400  28.442  12.425  0.00  0.00    +0.037 A 
ATOM     16  C   UNL     1      18.398  27.135  11.762  0.00  0.00    +0.013 A 
ATOM     17  C   UNL     1      19.090  26.020  12.359  0.00  0.00    +0.005 A 
ATOM     18  C   UNL     1      19.792  26.209  13.626  0.00  0.00    -0.033 A 
ATOM     28  C   UNL     1      19.783  27.517  14.259  0.00  0.00    +0.005 A 
ATOM     29  C   UNL     1      19.104  28.612  13.678  0.00  0.00    +0.013 A 
BRANCH  18  19
ATOM     19  C   UNL     1      20.539  25.070  14.346  0.00  0.00    +0.119 C 
BRANCH  19  20
ATOM     20  N   UNL     1      20.352  24.956  15.823  0.00  0.00    -0.302 NA
ATOM     21  C   UNL     1      21.614  25.354  16.594  0.00  0.00    +0.066 C 
ATOM     22  C   UNL     1      21.394  25.250  18.138  0.00  0.00    -0.064 C 
ATOM     23  N   UNL     1      20.968  23.825  18.495  0.00  0.00    +0.379 N 
ATOM     24  C   UNL     1      20.816  23.709  19.953  0.00  0.00    -0.096 C 
ATOM     25  H   UNL     1      21.790  23.139  18.185  0.00  0.00    -0.082 HD
ATOM     26  C   UNL     1      19.715  23.420  17.731  0.00  0.00    -0.064 C 
ATOM     27  C   UNL     1      19.935  23.555  16.198  0.00  0.00    +0.066 C 
ENDBRANCH  19  20
ENDBRANCH  18  19
ENDBRANCH  14  15
ENDBRANCH  12  13
TORSDOF 6
ENDMDL
MODEL 4
REMARK VINA RESULT:      -8.6      6.212     14.213
REMARK  Name = C:\Users\Docking\Desktop\test protocol\1iep_ligandH.pdb
REMARK  8 active torsions:
REMARK  status: ('A' for Active; 'I' for Inactive)
REMARK    1  A    between atoms: _5  and  _11
REMARK    2  A    between atoms: _19  and  _21
REMARK    3  A    between atoms: _22  and  _66
REMARK    4  A    between atoms: _27  and  _30
REMARK    5  A    between atoms: _32  and  _33
REMARK    6  A    between atoms: _38  and  _43
REMARK    7  A    between atoms: _43  and  _46
REMARK    8  A    between atoms: _53  and  _55
REMARK                            x       y       z     vdW  Elec       q    Type
REMARK                         _______ _______ _______ _____ _____    ______ ____
ROOT
ATOM     10  C   UNL     1      16.992  33.062  12.520  0.00  0.00    +0.038 A 
ATOM     11  C   UNL     1      17.594  31.829  12.879  0.00  0.00    +0.047 A 
ATOM     12  C   UNL     1      17.469  30.655  12.029  0.00  0.00    +0.035 A 
ATOM     32  C   UNL     1      16.725  30.773  10.819  0.00  0.00    +0.024 A 
ATOM     33  C   UNL     1      16.105  32.019  10.439  0.00  0.00    +0.007 A 
ATOM     34  C   UNL     1      16.224  33.179  11.275  0.00  0.00    -0.029 A 
ATOM     35  C   UNL     1      15.533  34.487  10.821  0.00  0.00    +0.045 C 
ENDROOT
BRANCH  10   9
ATOM      4  C   UNL     1      16.207  35.332  16.676  0.00  0.00    +0.077 A 
ATOM      5  C   UNL     1      15.403  34.256  17.179  0.00  0.00    +0.048 A 
ATOM      6  C   UNL     1      15.210  33.140  16.335  0.00  0.00    +0.116 A 
ATOM      7  N   UNL     1      15.783  33.112  15.082  0.00  0.00    -0.223 NA
ATOM      8  C   UNL     1      16.552  34.167  14.626  0.00  0.00    +0.220 A 
ATOM      9  N   UNL     1      17.145  34.157  13.373  0.00  0.00    -0.283 N 
ATOM     36  H   UNL     1      17.698  34.958  13.071  0.00  0.00    +0.155 HD
ATOM     37  N   UNL     1      16.750  35.245  15.413  0.00  0.00    -0.214 NA
BRANCH   4   3
ATOM      1  C   UNL     1      15.813  38.571  18.832  0.00  0.00    +0.020 A 
ATOM      2  C   UNL     1      15.471  37.377  18.095  0.00  0.00    +0.013 A 
ATOM      3  C   UNL     1      16.506  36.578  17.450  0.00  0.00    +0.019 A 
ATOM     38  C   UNL     1      17.887  37.018  17.572  0.00  0.00    +0.120 A 
ATOM     39  N   UNL     1      18.186  38.174  18.286  0.00  0.00    -0.263 NA
ATOM     40  C   UNL     1      17.199  38.952  18.910  0.00  0.00    +0.111 A 
ENDBRANCH   4   3
ENDBRANCH  10   9
BRANCH  12  13
ATOM     13  N   UNL     1      18.051  29.374  12.345  0.00  0.00    -0.281 N 
ATOM     14  C   UNL     1      19.373  29.092  12.649  0.00  0.00    +0.248 C 
ATOM     30  O   UNL     1      20.301  29.869  12.485  0.00  0.00    -0.270 OA
ATOM     31  H   UNL     1      17.411  28.580  12.345  0.00  0.00    +0.155 HD
BRANCH  14  15
ATOM     15  C   UNL     1      19.714  27.746  13.202  0.00  0.00    +0.037 A 
ATOM     16  C   UNL     1      19.662  26.545  12.364  0.00  0.00    +0.013 A 
ATOM     17  C   UNL     1      19.980  25.256  12.927  0.00  0.00    +0.005 A 
ATOM     18  C   UNL     1      20.355  25.163  14.336  0.00  0.00    -0.033 A 
ATOM     28  C   UNL     1      20.404  26.371  15.142  0.00  0.00    +0.005 A 
ATOM     29  C   UNL     1      20.092  27.635  14.595  0.00  0.00    +0.013 A 
BRANCH  18  19
ATOM     19  C   UNL     1      20.690  23.827  15.025  0.00  0.00    +0.119 C 
BRANCH  19  20
ATOM     20  N   UNL     1      21.021  23.872  16.480  0.00  0.00    -0.302 NA
ATOM     21  C   UNL     1      22.295  23.086  16.805  0.00  0.00    +0.066 C 
ATOM     22  C   UNL     1      22.639  23.163  18.328  0.00  0.00    -0.064 C 
ATOM     23  N   UNL     1      21.455  22.638  19.143  0.00  0.00    +0.379 N 
ATOM     24  C   UNL     1      21.797  22.655  20.572  0.00  0.00    -0.096 C 
ATOM     25  H   UNL     1      21.287  21.576  18.848  0.00  0.00    -0.082 HD
ATOM     26  C   UNL     1      20.184  23.413  18.824  0.00  0.00    -0.064 C 
ATOM     27  C   UNL     1      19.868  23.354  17.304  0.00  0.00    +0.066 C 
ENDBRANCH  19  20
ENDBRANCH  18  19
ENDBRANCH  14  15
ENDBRANCH  12  13
TORSDOF 6
ENDMDL
MODEL 5
REMARK VINA RESULT:      -8.6      2.161      4.120
REMARK  Name = C:\Users\Docking\Desktop\test protocol\1iep_ligandH.pdb
REMARK  8 active torsions:
REMARK  status: ('A' for Active; 'I' for Inactive)
REMARK    1  A    between atoms: _5  and  _11
REMARK    2  A    between atoms: _19  and  _21
REMARK    3  A    between atoms: _22  and  _66
REMARK    4  A    between atoms: _27  and  _30
REMARK    5  A    between atoms: _32  and  _33
REMARK    6  A    between atoms: _38  and  _43
REMARK    7  A    between atoms: _43  and  _46
REMARK    8  A    between atoms: _53  and  _55
REMARK                            x       y       z     vdW  Elec       q    Type
REMARK                         _______ _______ _______ _____ _____    ______ ____
ROOT
ATOM     10  C   UNL     1      18.156  31.963  12.590  0.00  0.00    +0.038 A 
ATOM     11  C   UNL     1      17.747  33.024  13.439  0.00  0.00    +0.047 A 
ATOM     12  C   UNL     1      17.568  32.817  14.867  0.00  0.00    +0.035 A 
ATOM     32  C   UNL     1      17.816  31.518  15.399  0.00  0.00    +0.024 A 
ATOM     33  C   UNL     1      18.231  30.429  14.550  0.00  0.00    +0.007 A 
ATOM     34  C   UNL     1      18.407  30.626  13.140  0.00  0.00    -0.029 A 
ATOM     35  C   UNL     1      18.847  29.420  12.277  0.00  0.00    +0.045 C 
ENDROOT
BRANCH  10   9
ATOM      4  C   UNL     1      16.416  33.168   8.282  0.00  0.00    +0.077 A 
ATOM      5  C   UNL     1      15.077  33.274   8.786  0.00  0.00    +0.048 A 
ATOM      6  C   UNL     1      14.878  33.003  10.158  0.00  0.00    +0.116 A 
ATOM      7  N   UNL     1      15.945  32.654  10.957  0.00  0.00    -0.223 NA
ATOM      8  C   UNL     1      17.223  32.559  10.439  0.00  0.00    +0.220 A 
ATOM      9  N   UNL     1      18.312  32.218  11.225  0.00  0.00    -0.283 N 
ATOM     36  H   UNL     1      19.238  32.151  10.803  0.00  0.00    +0.155 HD
ATOM     37  N   UNL     1      17.440  32.811   9.131  0.00  0.00    -0.214 NA
BRANCH   4   3
ATOM      1  C   UNL     1      16.214  33.937   4.452  0.00  0.00    +0.020 A 
ATOM      2  C   UNL     1      15.802  33.693   5.815  0.00  0.00    +0.013 A 
ATOM      3  C   UNL     1      16.788  33.426   6.855  0.00  0.00    +0.019 A 
ATOM     38  C   UNL     1      18.194  33.413   6.479  0.00  0.00    +0.120 A 
ATOM     39  N   UNL     1      18.560  33.650   5.158  0.00  0.00    -0.263 NA
ATOM     40  C   UNL     1      17.620  33.907   4.148  0.00  0.00    +0.111 A 
ENDBRANCH   4   3
ENDBRANCH  10   9
BRANCH  12  13
ATOM     13  N   UNL     1      17.147  33.854  15.777  0.00  0.00    -0.281 N 
ATOM     14  C   UNL     1      17.944  34.689  16.543  0.00  0.00    +0.248 C 
ATOM     30  O   UNL     1      19.141  34.528  16.724  0.00  0.00    -0.270 OA
ATOM     31  H   UNL     1      16.140  33.988  15.867  0.00  0.00    +0.155 HD
BRANCH  14  15
ATOM     15  C   UNL     1      17.316  35.866  17.218  0.00  0.00    +0.037 A 
ATOM     16  C   UNL     1      15.861  36.025  17.271  0.00  0.00    +0.013 A 
ATOM     17  C   UNL     1      15.282  37.178  17.913  0.00  0.00    +0.005 A 
ATOM     18  C   UNL     1      16.160  38.182  18.509  0.00  0.00    -0.033 A 
ATOM     28  C   UNL     1      17.600  37.997  18.446  0.00  0.00    +0.005 A 
ATOM     29  C   UNL     1      18.171  36.869  17.817  0.00  0.00    +0.013 A 
BRANCH  18  19
ATOM     19  C   UNL     1      15.630  39.455  19.196  0.00  0.00    +0.119 C 
BRANCH  19  20
ATOM     20  N   UNL     1      16.003  40.766  18.586  0.00  0.00    -0.302 NA
ATOM     21  C   UNL     1      15.016  41.876  18.961  0.00  0.00    +0.066 C 
ATOM     22  C   UNL     1      15.434  43.245  18.334  0.00  0.00    -0.064 C 
ATOM     23  N   UNL     1      15.532  43.099  16.815  0.00  0.00    +0.379 N 
ATOM     24  C   UNL     1      15.869  44.399  16.217  0.00  0.00    -0.096 C 
ATOM     25  H   UNL     1      14.526  42.803  16.438  0.00  0.00    -0.082 HD
ATOM     26  C   UNL     1      16.510  41.996  16.433  0.00  0.00    -0.064 C 
ATOM     27  C   UNL     1      16.102  40.645  17.086  0.00  0.00    +0.066 C 
ENDBRANCH  19  20
ENDBRANCH  18  19
ENDBRANCH  14  15
ENDBRANCH  12  13
TORSDOF 6
ENDMDL
