MODEL 1
REMARK VINA RESULT:      -7.2      0.000      0.000
REMARK  Name = C:\Users\Docking\Desktop\test protocol\1iep_ligandH.pdb
REMARK  8 active torsions:
REMARK  status: ('A' for Active; 'I' for Inactive)
REMARK    1  A    between atoms: _5  and  _11
REMARK    2  A    between atoms: _19  and  _21
REMARK    3  A    between atoms: _22  and  _66
REMARK    4  A    between atoms: _27  and  _30
REMARK    5  A    between atoms: _32  and  _33
REMARK    6  A    between atoms: _38  and  _43
REMARK    7  A    between atoms: _43  and  _46
REMARK    8  A    between atoms: _53  and  _55
REMARK                            x       y       z     vdW  Elec       q    Type
REMARK                         _______ _______ _______ _____ _____    ______ ____
ROOT
ATOM     10  C   UNL     1     -26.017 -40.223  -7.463  0.00  0.00    +0.038 A 
ATOM     11  C   UNL     1     -25.192 -39.447  -6.610  0.00  0.00    +0.047 A 
ATOM     12  C   UNL     1     -25.140 -37.998  -6.727  0.00  0.00    +0.035 A 
ATOM     32  C   UNL     1     -25.944 -37.372  -7.723  0.00  0.00    +0.024 A 
ATOM     33  C   UNL     1     -26.787 -38.146  -8.600  0.00  0.00    +0.007 A 
ATOM     34  C   UNL     1     -26.840 -39.575  -8.491  0.00  0.00    -0.029 A 
ATOM     35  C   UNL     1     -27.758 -40.355  -9.462  0.00  0.00    +0.045 C 
ENDROOT
BRANCH  10   9
ATOM      4  C   UNL     1     -27.493 -44.222  -5.256  0.00  0.00    +0.077 A 
ATOM      5  C   UNL     1     -28.287 -43.482  -4.319  0.00  0.00    +0.048 A 
ATOM      6  C   UNL     1     -28.284 -42.074  -4.434  0.00  0.00    +0.116 A 
ATOM      7  N   UNL     1     -27.537 -41.462  -5.418  0.00  0.00    -0.223 NA
ATOM      8  C   UNL     1     -26.780 -42.205  -6.305  0.00  0.00    +0.220 A 
ATOM      9  N   UNL     1     -26.028 -41.611  -7.307  0.00  0.00    -0.283 N 
ATOM     36  H   UNL     1     -25.477 -42.194  -7.936  0.00  0.00    +0.155 HD
ATOM     37  N   UNL     1     -26.766 -43.551  -6.214  0.00  0.00    -0.214 NA
BRANCH   4   3
ATOM      1  C   UNL     1     -26.779 -47.923  -4.210  0.00  0.00    +0.020 A 
ATOM      2  C   UNL     1     -26.849 -46.481  -4.152  0.00  0.00    +0.013 A 
ATOM      3  C   UNL     1     -27.396 -45.716  -5.265  0.00  0.00    +0.019 A 
ATOM     38  C   UNL     1     -27.869 -46.446  -6.431  0.00  0.00    +0.120 A 
ATOM     39  N   UNL     1     -27.788 -47.835  -6.460  0.00  0.00    -0.263 NA
ATOM     40  C   UNL     1     -27.261 -48.582  -5.396  0.00  0.00    +0.111 A 
ENDBRANCH   4   3
ENDBRANCH  10   9
BRANCH  12  13
ATOM     13  N   UNL     1     -24.315 -37.159  -5.894  0.00  0.00    -0.281 N 
ATOM     14  C   UNL     1     -23.144 -36.504  -6.238  0.00  0.00    +0.248 C 
ATOM     30  O   UNL     1     -22.510 -36.715  -7.262  0.00  0.00    -0.270 OA
ATOM     31  H   UNL     1     -24.633 -37.032  -4.933  0.00  0.00    +0.155 HD
BRANCH  14  15
ATOM     15  C   UNL     1     -22.589 -35.477  -5.305  0.00  0.00    +0.037 A 
ATOM     16  C   UNL     1     -21.947 -34.260  -5.808  0.00  0.00    +0.013 A 
ATOM     17  C   UNL     1     -21.405 -33.294  -4.886  0.00  0.00    +0.005 A 
ATOM     18  C   UNL     1     -21.504 -33.541  -3.450  0.00  0.00    -0.033 A 
ATOM     28  C   UNL     1     -22.150 -34.754  -2.978  0.00  0.00    +0.005 A 
ATOM     29  C   UNL     1     -22.682 -35.704  -3.878  0.00  0.00    +0.013 A 
BRANCH  18  19
ATOM     19  C   UNL     1     -20.935 -32.575  -2.394  0.00  0.00    +0.119 C 
BRANCH  19  20
ATOM     20  N   UNL     1     -19.450 -32.528  -2.240  0.00  0.00    -0.302 NA
ATOM     21  C   UNL     1     -18.980 -33.261  -0.980  0.00  0.00    +0.066 C 
ATOM     22  C   UNL     1     -17.423 -33.222  -0.847  0.00  0.00    -0.064 C 
ATOM     23  N   UNL     1     -16.951 -31.767  -0.834  0.00  0.00    +0.379 N 
ATOM     24  C   UNL     1     -15.493 -31.725  -0.650  0.00  0.00    -0.096 C 
ATOM     25  H   UNL     1     -17.418 -31.268   0.047  0.00  0.00    -0.082 HD
ATOM     26  C   UNL     1     -17.417 -31.030  -2.082  0.00  0.00    -0.064 C 
ATOM     27  C   UNL     1     -18.963 -31.100  -2.221  0.00  0.00    +0.066 C 
ENDBRANCH  19  20
ENDBRANCH  18  19
ENDBRANCH  14  15
ENDBRANCH  12  13
TORSDOF 6
ENDMDL
MODEL 2
REMARK VINA RESULT:      -6.8      4.699      9.388
REMARK  Name = C:\Users\Docking\Desktop\test protocol\1iep_ligandH.pdb
REMARK  8 active torsions:
REMARK  status: ('A' for Active; 'I' for Inactive)
REMARK    1  A    between atoms: _5  and  _11
REMARK    2  A    between atoms: _19  and  _21
REMARK    3  A    between atoms: _22  and  _66
REMARK    4  A    between atoms: _27  and  _30
REMARK    5  A    between atoms: _32  and  _33
REMARK    6  A    between atoms: _38  and  _43
REMARK    7  A    between atoms: _43  and  _46
REMARK    8  A    between atoms: _53  and  _55
REMARK                            x       y       z     vdW  Elec       q    Type
REMARK                         _______ _______ _______ _____ _____    ______ ____
ROOT
ATOM     10  C   UNL     1     -21.746 -34.405  -1.202  0.00  0.00    +0.038 A 
ATOM     11  C   UNL     1     -20.503 -33.804  -1.528  0.00  0.00    +0.047 A 
ATOM     12  C   UNL     1     -19.901 -32.802  -0.663  0.00  0.00    +0.035 A 
ATOM     32  C   UNL     1     -20.592 -32.436   0.529  0.00  0.00    +0.024 A 
ATOM     33  C   UNL     1     -21.856 -33.036   0.876  0.00  0.00    +0.007 A 
ATOM     34  C   UNL     1     -22.456 -34.023   0.025  0.00  0.00    -0.029 A 
ATOM     35  C   UNL     1     -23.817 -34.628   0.443  0.00  0.00    +0.045 C 
ENDROOT
BRANCH  10   9
ATOM      4  C   UNL     1     -22.886 -35.967  -5.595  0.00  0.00    +0.077 A 
ATOM      5  C   UNL     1     -22.407 -34.764  -6.212  0.00  0.00    +0.048 A 
ATOM      6  C   UNL     1     -21.881 -33.765  -5.363  0.00  0.00    +0.116 A 
ATOM      7  N   UNL     1     -21.842 -33.965  -4.000  0.00  0.00    -0.223 NA
ATOM      8  C   UNL     1     -22.314 -35.136  -3.437  0.00  0.00    +0.220 A 
ATOM      9  N   UNL     1     -22.278 -35.361  -2.069  0.00  0.00    -0.283 N 
ATOM     36  H   UNL     1     -22.643 -36.236  -1.693  0.00  0.00    +0.155 HD
ATOM     37  N   UNL     1     -22.823 -36.105  -4.226  0.00  0.00    -0.214 NA
BRANCH   4   3
ATOM      1  C   UNL     1     -23.282 -39.333  -7.549  0.00  0.00    +0.020 A 
ATOM      2  C   UNL     1     -22.671 -38.248  -6.815  0.00  0.00    +0.013 A 
ATOM      3  C   UNL     1     -23.468 -37.116  -6.358  0.00  0.00    +0.019 A 
ATOM     38  C   UNL     1     -24.891 -37.113  -6.661  0.00  0.00    +0.120 A 
ATOM     39  N   UNL     1     -25.451 -38.171  -7.371  0.00  0.00    -0.263 NA
ATOM     40  C   UNL     1     -24.694 -39.265  -7.817  0.00  0.00    +0.111 A 
ENDBRANCH   4   3
ENDBRANCH  10   9
BRANCH  12  13
ATOM     13  N   UNL     1     -18.646 -32.152  -0.946  0.00  0.00    -0.281 N 
ATOM     14  C   UNL     1     -17.382 -32.719  -0.984  0.00  0.00    +0.248 C 
ATOM     30  O   UNL     1     -17.114 -33.836  -0.567  0.00  0.00    -0.270 OA
ATOM     31  H   UNL     1     -18.694 -31.152  -1.143  0.00  0.00    +0.155 HD
BRANCH  14  15
ATOM     15  C   UNL     1     -16.251 -31.925  -1.553  0.00  0.00    +0.037 A 
ATOM     16  C   UNL     1     -15.467 -31.012  -0.718  0.00  0.00    +0.013 A 
ATOM     17  C   UNL     1     -14.392 -30.246  -1.296  0.00  0.00    +0.005 A 
ATOM     18  C   UNL     1     -14.094 -30.391  -2.719  0.00  0.00    -0.033 A 
ATOM     28  C   UNL     1     -14.884 -31.308  -3.524  0.00  0.00    +0.005 A 
ATOM     29  C   UNL     1     -15.940 -32.060  -2.960  0.00  0.00    +0.013 A 
BRANCH  18  19
ATOM     19  C   UNL     1     -12.979 -29.597  -3.425  0.00  0.00    +0.119 C 
BRANCH  19  20
ATOM     20  N   UNL     1     -11.578 -30.083  -3.250  0.00  0.00    -0.302 NA
ATOM     21  C   UNL     1     -10.566 -28.934  -3.257  0.00  0.00    +0.066 C 
ATOM     22  C   UNL     1      -9.107 -29.458  -3.051  0.00  0.00    -0.064 C 
ATOM     23  N   UNL     1      -8.776 -30.478  -4.141  0.00  0.00    +0.379 N 
ATOM     24  C   UNL     1      -7.386 -30.930  -3.984  0.00  0.00    -0.096 C 
ATOM     25  H   UNL     1      -8.854 -29.959  -5.125  0.00  0.00    -0.082 HD
ATOM     26  C   UNL     1      -9.779 -31.623  -4.143  0.00  0.00    -0.064 C 
ATOM     27  C   UNL     1     -11.228 -31.089  -4.320  0.00  0.00    +0.066 C 
ENDBRANCH  19  20
ENDBRANCH  18  19
ENDBRANCH  14  15
ENDBRANCH  12  13
TORSDOF 6
ENDMDL
MODEL 3
REMARK VINA RESULT:      -6.8     11.878     15.976
REMARK  Name = C:\Users\Docking\Desktop\test protocol\1iep_ligandH.pdb
REMARK  8 active torsions:
REMARK  status: ('A' for Active; 'I' for Inactive)
REMARK    1  A    between atoms: _5  and  _11
REMARK    2  A    between atoms: _19  and  _21
REMARK    3  A    between atoms: _22  and  _66
REMARK    4  A    between atoms: _27  and  _30
REMARK    5  A    between atoms: _32  and  _33
REMARK    6  A    between atoms: _38  and  _43
REMARK    7  A    between atoms: _43  and  _46
REMARK    8  A    between atoms: _53  and  _55
REMARK                            x       y       z     vdW  Elec       q    Type
REMARK                         _______ _______ _______ _____ _____    ______ ____
ROOT
ATOM     10  C   UNL     1     -14.563 -32.981  -6.784  0.00  0.00    +0.038 A 
ATOM     11  C   UNL     1     -13.299 -32.962  -6.142  0.00  0.00    +0.047 A 
ATOM     12  C   UNL     1     -13.160 -32.510  -4.766  0.00  0.00    +0.035 A 
ATOM     32  C   UNL     1     -14.331 -32.087  -4.073  0.00  0.00    +0.024 A 
ATOM     33  C   UNL     1     -15.624 -32.099  -4.710  0.00  0.00    +0.007 A 
ATOM     34  C   UNL     1     -15.767 -32.542  -6.067  0.00  0.00    -0.029 A 
ATOM     35  C   UNL     1     -17.177 -32.527  -6.702  0.00  0.00    +0.045 C 
ENDROOT
BRANCH  10   9
ATOM      4  C   UNL     1     -14.159 -32.276 -11.514  0.00  0.00    +0.077 A 
ATOM      5  C   UNL     1     -13.792 -30.901 -11.338  0.00  0.00    +0.048 A 
ATOM      6  C   UNL     1     -13.725 -30.412 -10.014  0.00  0.00    +0.116 A 
ATOM      7  N   UNL     1     -14.007 -31.245  -8.953  0.00  0.00    -0.223 NA
ATOM      8  C   UNL     1     -14.359 -32.567  -9.158  0.00  0.00    +0.220 A 
ATOM      9  N   UNL     1     -14.639 -33.425  -8.106  0.00  0.00    -0.283 N 
ATOM     36  H   UNL     1     -14.902 -34.391  -8.299  0.00  0.00    +0.155 HD
ATOM     37  N   UNL     1     -14.431 -33.057 -10.413  0.00  0.00    -0.214 NA
BRANCH   4   3
ATOM      1  C   UNL     1     -15.185 -34.708 -14.402  0.00  0.00    +0.020 A 
ATOM      2  C   UNL     1     -15.114 -34.104 -13.091  0.00  0.00    +0.013 A 
ATOM      3  C   UNL     1     -14.269 -32.941 -12.851  0.00  0.00    +0.019 A 
ATOM     38  C   UNL     1     -13.503 -32.408 -13.968  0.00  0.00    +0.120 A 
ATOM     39  N   UNL     1     -13.591 -33.011 -15.219  0.00  0.00    -0.263 NA
ATOM     40  C   UNL     1     -14.399 -34.132 -15.461  0.00  0.00    +0.111 A 
ENDBRANCH   4   3
ENDBRANCH  10   9
BRANCH  12  13
ATOM     13  N   UNL     1     -11.900 -32.461  -4.065  0.00  0.00    -0.281 N 
ATOM     14  C   UNL     1     -10.997 -31.412  -4.010  0.00  0.00    +0.248 C 
ATOM     30  O   UNL     1     -11.035 -30.428  -4.734  0.00  0.00    -0.270 OA
ATOM     31  H   UNL     1     -11.644 -33.301  -3.547  0.00  0.00    +0.155 HD
BRANCH  14  15
ATOM     15  C   UNL     1      -9.882 -31.472  -3.017  0.00  0.00    +0.037 A 
ATOM     16  C   UNL     1      -9.535 -30.311  -2.193  0.00  0.00    +0.013 A 
ATOM     17  C   UNL     1      -8.443 -30.389  -1.255  0.00  0.00    +0.005 A 
ATOM     18  C   UNL     1      -7.691 -31.636  -1.134  0.00  0.00    -0.033 A 
ATOM     28  C   UNL     1      -8.060 -32.774  -1.960  0.00  0.00    +0.005 A 
ATOM     29  C   UNL     1      -9.129 -32.700  -2.881  0.00  0.00    +0.013 A 
BRANCH  18  19
ATOM     19  C   UNL     1      -6.498 -31.804  -0.175  0.00  0.00    +0.119 C 
BRANCH  19  20
ATOM     20  N   UNL     1      -5.275 -30.995  -0.457  0.00  0.00    -0.302 NA
ATOM     21  C   UNL     1      -4.577 -31.439  -1.745  0.00  0.00    +0.066 C 
ATOM     22  C   UNL     1      -3.312 -30.568  -2.037  0.00  0.00    -0.064 C 
ATOM     23  N   UNL     1      -2.355 -30.649  -0.846  0.00  0.00    +0.379 N 
ATOM     24  C   UNL     1      -1.139 -29.877  -1.142  0.00  0.00    -0.096 C 
ATOM     25  H   UNL     1      -2.057 -31.716  -0.724  0.00  0.00    -0.082 HD
ATOM     26  C   UNL     1      -3.042 -30.211   0.439  0.00  0.00    -0.064 C 
ATOM     27  C   UNL     1      -4.314 -31.064   0.704  0.00  0.00    +0.066 C 
ENDBRANCH  19  20
ENDBRANCH  18  19
ENDBRANCH  14  15
ENDBRANCH  12  13
TORSDOF 6
ENDMDL
MODEL 4
REMARK VINA RESULT:      -6.7      9.145     16.717
REMARK  Name = C:\Users\Docking\Desktop\test protocol\1iep_ligandH.pdb
REMARK  8 active torsions:
REMARK  status: ('A' for Active; 'I' for Inactive)
REMARK    1  A    between atoms: _5  and  _11
REMARK    2  A    between atoms: _19  and  _21
REMARK    3  A    between atoms: _22  and  _66
REMARK    4  A    between atoms: _27  and  _30
REMARK    5  A    between atoms: _32  and  _33
REMARK    6  A    between atoms: _38  and  _43
REMARK    7  A    between atoms: _43  and  _46
REMARK    8  A    between atoms: _53  and  _55
REMARK                            x       y       z     vdW  Elec       q    Type
REMARK                         _______ _______ _______ _____ _____    ______ ____
ROOT
ATOM     10  C   UNL     1     -12.143 -30.914  -4.482  0.00  0.00    +0.038 A 
ATOM     11  C   UNL     1     -13.254 -31.566  -3.888  0.00  0.00    +0.047 A 
ATOM     12  C   UNL     1     -14.617 -31.225  -4.265  0.00  0.00    +0.035 A 
ATOM     32  C   UNL     1     -14.812 -30.217  -5.254  0.00  0.00    +0.024 A 
ATOM     33  C   UNL     1     -13.694 -29.544  -5.868  0.00  0.00    +0.007 A 
ATOM     34  C   UNL     1     -12.348 -29.875  -5.498  0.00  0.00    -0.029 A 
ATOM     35  C   UNL     1     -11.188 -29.116  -6.185  0.00  0.00    +0.045 C 
ENDROOT
BRANCH  10   9
ATOM      4  C   UNL     1      -8.360 -30.561  -1.550  0.00  0.00    +0.077 A 
ATOM      5  C   UNL     1      -8.990 -29.539  -0.764  0.00  0.00    +0.048 A 
ATOM      6  C   UNL     1     -10.285 -29.128  -1.152  0.00  0.00    +0.116 A 
ATOM      7  N   UNL     1     -10.895 -29.703  -2.246  0.00  0.00    -0.223 NA
ATOM      8  C   UNL     1     -10.258 -30.684  -2.983  0.00  0.00    +0.220 A 
ATOM      9  N   UNL     1     -10.856 -31.281  -4.083  0.00  0.00    -0.283 N 
ATOM     36  H   UNL     1     -10.351 -31.997  -4.605  0.00  0.00    +0.155 HD
ATOM     37  N   UNL     1      -9.021 -31.093  -2.634  0.00  0.00    -0.214 NA
BRANCH   4   3
ATOM      1  C   UNL     1      -5.418 -32.964  -0.617  0.00  0.00    +0.020 A 
ATOM      2  C   UNL     1      -6.756 -32.490  -0.882  0.00  0.00    +0.013 A 
ATOM      3  C   UNL     1      -6.994 -31.104  -1.264  0.00  0.00    +0.019 A 
ATOM     38  C   UNL     1      -5.846 -30.216  -1.372  0.00  0.00    +0.120 A 
ATOM     39  N   UNL     1      -4.568 -30.700  -1.110  0.00  0.00    -0.263 NA
ATOM     40  C   UNL     1      -4.328 -32.031  -0.739  0.00  0.00    +0.111 A 
ENDBRANCH   4   3
ENDBRANCH  10   9
BRANCH  12  13
ATOM     13  N   UNL     1     -15.784 -31.846  -3.690  0.00  0.00    -0.281 N 
ATOM     14  C   UNL     1     -16.205 -31.809  -2.371  0.00  0.00    +0.248 C 
ATOM     30  O   UNL     1     -15.524 -31.411  -1.438  0.00  0.00    -0.270 OA
ATOM     31  H   UNL     1     -16.370 -32.378  -4.333  0.00  0.00    +0.155 HD
BRANCH  14  15
ATOM     15  C   UNL     1     -17.578 -32.299  -2.038  0.00  0.00    +0.037 A 
ATOM     16  C   UNL     1     -17.786 -33.363  -1.053  0.00  0.00    +0.013 A 
ATOM     17  C   UNL     1     -19.119 -33.829  -0.763  0.00  0.00    +0.005 A 
ATOM     18  C   UNL     1     -20.255 -33.228  -1.458  0.00  0.00    -0.033 A 
ATOM     28  C   UNL     1     -20.020 -32.170  -2.426  0.00  0.00    +0.005 A 
ATOM     29  C   UNL     1     -18.715 -31.712  -2.714  0.00  0.00    +0.013 A 
BRANCH  18  19
ATOM     19  C   UNL     1     -21.710 -33.677  -1.226  0.00  0.00    +0.119 C 
BRANCH  19  20
ATOM     20  N   UNL     1     -22.087 -34.087   0.159  0.00  0.00    -0.302 NA
ATOM     21  C   UNL     1     -23.538 -34.570   0.241  0.00  0.00    +0.066 C 
ATOM     22  C   UNL     1     -23.908 -35.016   1.693  0.00  0.00    -0.064 C 
ATOM     23  N   UNL     1     -23.668 -33.854   2.658  0.00  0.00    +0.379 N 
ATOM     24  C   UNL     1     -24.070 -34.252   4.015  0.00  0.00    -0.096 C 
ATOM     25  H   UNL     1     -24.327 -33.012   2.343  0.00  0.00    -0.082 HD
ATOM     26  C   UNL     1     -22.228 -33.367   2.581  0.00  0.00    -0.064 C 
ATOM     27  C   UNL     1     -21.862 -32.953   1.129  0.00  0.00    +0.066 C 
ENDBRANCH  19  20
ENDBRANCH  18  19
ENDBRANCH  14  15
ENDBRANCH  12  13
TORSDOF 6
ENDMDL
MODEL 5
REMARK VINA RESULT:      -6.6      1.825      2.435
REMARK  Name = C:\Users\Docking\Desktop\test protocol\1iep_ligandH.pdb
REMARK  8 active torsions:
REMARK  status: ('A' for Active; 'I' for Inactive)
REMARK    1  A    between atoms: _5  and  _11
REMARK    2  A    between atoms: _19  and  _21
REMARK    3  A    between atoms: _22  and  _66
REMARK    4  A    between atoms: _27  and  _30
REMARK    5  A    between atoms: _32  and  _33
REMARK    6  A    between atoms: _38  and  _43
REMARK    7  A    between atoms: _43  and  _46
REMARK    8  A    between atoms: _53  and  _55
REMARK                            x       y       z     vdW  Elec       q    Type
REMARK                         _______ _______ _______ _____ _____    ______ ____
ROOT
ATOM     10  C   UNL     1     -24.183 -39.169  -8.069  0.00  0.00    +0.038 A 
ATOM     11  C   UNL     1     -23.638 -38.374  -7.029  0.00  0.00    +0.047 A 
ATOM     12  C   UNL     1     -23.071 -37.063  -7.301  0.00  0.00    +0.035 A 
ATOM     32  C   UNL     1     -23.078 -36.590  -8.646  0.00  0.00    +0.024 A 
ATOM     33  C   UNL     1     -23.627 -37.385  -9.716  0.00  0.00    +0.007 A 
ATOM     34  C   UNL     1     -24.186 -38.681  -9.454  0.00  0.00    -0.029 A 
ATOM     35  C   UNL     1     -24.755 -39.492 -10.641  0.00  0.00    +0.045 C 
ENDROOT
BRANCH  10   9
ATOM      4  C   UNL     1     -27.852 -42.039  -6.912  0.00  0.00    +0.077 A 
ATOM      5  C   UNL     1     -28.784 -40.948  -6.916  0.00  0.00    +0.048 A 
ATOM      6  C   UNL     1     -28.277 -39.664  -7.214  0.00  0.00    +0.116 A 
ATOM      7  N   UNL     1     -26.937 -39.494  -7.486  0.00  0.00    -0.223 NA
ATOM      8  C   UNL     1     -26.065 -40.567  -7.472  0.00  0.00    +0.220 A 
ATOM      9  N   UNL     1     -24.715 -40.420  -7.750  0.00  0.00    -0.283 N 
ATOM     36  H   UNL     1     -24.103 -41.236  -7.722  0.00  0.00    +0.155 HD
ATOM     37  N   UNL     1     -26.524 -41.804  -7.189  0.00  0.00    -0.214 NA
BRANCH   4   3
ATOM      1  C   UNL     1     -27.687 -45.894  -6.266  0.00  0.00    +0.020 A 
ATOM      2  C   UNL     1     -27.265 -44.542  -6.553  0.00  0.00    +0.013 A 
ATOM      3  C   UNL     1     -28.235 -43.456  -6.619  0.00  0.00    +0.019 A 
ATOM     38  C   UNL     1     -29.636 -43.774  -6.386  0.00  0.00    +0.120 A 
ATOM     39  N   UNL     1     -30.013 -45.086  -6.113  0.00  0.00    -0.263 NA
ATOM     40  C   UNL     1     -29.088 -46.139  -6.049  0.00  0.00    +0.111 A 
ENDBRANCH   4   3
ENDBRANCH  10   9
BRANCH  12  13
ATOM     13  N   UNL     1     -22.496 -36.214  -6.287  0.00  0.00    -0.281 N 
ATOM     14  C   UNL     1     -23.150 -35.327  -5.448  0.00  0.00    +0.248 C 
ATOM     30  O   UNL     1     -24.310 -34.969  -5.590  0.00  0.00    -0.270 OA
ATOM     31  H   UNL     1     -21.484 -36.276  -6.173  0.00  0.00    +0.155 HD
BRANCH  14  15
ATOM     15  C   UNL     1     -22.404 -34.741  -4.294  0.00  0.00    +0.037 A 
ATOM     16  C   UNL     1     -21.565 -33.551  -4.456  0.00  0.00    +0.013 A 
ATOM     17  C   UNL     1     -20.842 -33.016  -3.330  0.00  0.00    +0.005 A 
ATOM     18  C   UNL     1     -20.956 -33.671  -2.029  0.00  0.00    -0.033 A 
ATOM     28  C   UNL     1     -21.799 -34.847  -1.895  0.00  0.00    +0.005 A 
ATOM     29  C   UNL     1     -22.508 -35.375  -2.997  0.00  0.00    +0.013 A 
BRANCH  18  19
ATOM     19  C   UNL     1     -20.203 -33.182  -0.777  0.00  0.00    +0.119 C 
BRANCH  19  20
ATOM     20  N   UNL     1     -19.026 -32.289  -0.993  0.00  0.00    -0.302 NA
ATOM     21  C   UNL     1     -17.741 -33.082  -1.245  0.00  0.00    +0.066 C 
ATOM     22  C   UNL     1     -16.524 -32.132  -1.491  0.00  0.00    -0.064 C 
ATOM     23  N   UNL     1     -16.358 -31.200  -0.289  0.00  0.00    +0.379 N 
ATOM     24  C   UNL     1     -15.179 -30.345  -0.491  0.00  0.00    -0.096 C 
ATOM     25  H   UNL     1     -16.166 -31.835   0.607  0.00  0.00    -0.082 HD
ATOM     26  C   UNL     1     -17.632 -30.409  -0.029  0.00  0.00    -0.064 C 
ATOM     27  C   UNL     1     -18.841 -31.363   0.184  0.00  0.00    +0.066 C 
ENDBRANCH  19  20
ENDBRANCH  18  19
ENDBRANCH  14  15
ENDBRANCH  12  13
TORSDOF 6
ENDMDL
