MODEL 1
REMARK VINA RESULT:      -9.0      0.000      0.000
REMARK  Name = C:\Users\Docking\Desktop\test protocol\1iep_ligandH.pdb
REMARK  8 active torsions:
REMARK  status: ('A' for Active; 'I' for Inactive)
REMARK    1  A    between atoms: _5  and  _11
REMARK    2  A    between atoms: _19  and  _21
REMARK    3  A    between atoms: _22  and  _66
REMARK    4  A    between atoms: _27  and  _30
REMARK    5  A    between atoms: _32  and  _33
REMARK    6  A    between atoms: _38  and  _43
REMARK    7  A    between atoms: _43  and  _46
REMARK    8  A    between atoms: _53  and  _55
REMARK                            x       y       z     vdW  Elec       q    Type
REMARK                         _______ _______ _______ _____ _____    ______ ____
ROOT
ATOM     10  C   UNL     1      19.520  20.919  14.325  0.00  0.00    +0.038 A 
ATOM     11  C   UNL     1      20.176  22.124  14.684  0.00  0.00    +0.047 A 
ATOM     12  C   UNL     1      20.847  22.942  13.685  0.00  0.00    +0.035 A 
ATOM     32  C   UNL     1      20.827  22.503  12.329  0.00  0.00    +0.024 A 
ATOM     33  C   UNL     1      20.166  21.281  11.947  0.00  0.00    +0.007 A 
ATOM     34  C   UNL     1      19.505  20.469  12.928  0.00  0.00    -0.029 A 
ATOM     35  C   UNL     1      18.817  19.164  12.462  0.00  0.00    +0.045 C 
ENDROOT
BRANCH  10   9
ATOM      4  C   UNL     1      15.769  19.951  17.159  0.00  0.00    +0.077 A 
ATOM      5  C   UNL     1      15.006  21.041  16.621  0.00  0.00    +0.048 A 
ATOM      6  C   UNL     1      15.618  21.830  15.622  0.00  0.00    +0.116 A 
ATOM      7  N   UNL     1      16.898  21.542  15.199  0.00  0.00    -0.223 NA
ATOM      8  C   UNL     1      17.606  20.485  15.740  0.00  0.00    +0.220 A 
ATOM      9  N   UNL     1      18.892  20.173  15.324  0.00  0.00    -0.283 N 
ATOM     36  H   UNL     1      19.384  19.389  15.753  0.00  0.00    +0.155 HD
ATOM     37  N   UNL     1      17.045  19.717  16.696  0.00  0.00    -0.214 NA
BRANCH   4   3
ATOM      1  C   UNL     1      14.658  16.731  19.083  0.00  0.00    +0.020 A 
ATOM      2  C   UNL     1      15.158  17.582  18.027  0.00  0.00    +0.013 A 
ATOM      3  C   UNL     1      15.259  19.024  18.218  0.00  0.00    +0.019 A 
ATOM     38  C   UNL     1      14.843  19.577  19.498  0.00  0.00    +0.120 A 
ATOM     39  N   UNL     1      14.365  18.733  20.496  0.00  0.00    -0.263 NA
ATOM     40  C   UNL     1      14.262  17.344  20.323  0.00  0.00    +0.111 A 
ENDBRANCH   4   3
ENDBRANCH  10   9
BRANCH  12  13
ATOM     13  N   UNL     1      21.537  24.170  13.991  0.00  0.00    -0.281 N 
ATOM     14  C   UNL     1      21.016  25.319  14.564  0.00  0.00    +0.248 C 
ATOM     30  O   UNL     1      19.823  25.541  14.706  0.00  0.00    -0.270 OA
ATOM     31  H   UNL     1      22.529  24.196  13.757  0.00  0.00    +0.155 HD
BRANCH  14  15
ATOM     15  C   UNL     1      21.957  26.381  15.036  0.00  0.00    +0.037 A 
ATOM     16  C   UNL     1      22.032  27.681  14.365  0.00  0.00    +0.013 A 
ATOM     17  C   UNL     1      22.960  28.682  14.830  0.00  0.00    +0.005 A 
ATOM     18  C   UNL     1      23.820  28.385  15.973  0.00  0.00    -0.033 A 
ATOM     28  C   UNL     1      23.721  27.089  16.623  0.00  0.00    +0.005 A 
ATOM     29  C   UNL     1      22.813  26.105  16.170  0.00  0.00    +0.013 A 
BRANCH  18  19
ATOM     19  C   UNL     1      24.854  29.385  16.523  0.00  0.00    +0.119 C 
BRANCH  19  20
ATOM     20  N   UNL     1      26.285  28.958  16.522  0.00  0.00    -0.302 NA
ATOM     21  C   UNL     1      27.200  30.014  17.149  0.00  0.00    +0.066 C 
ATOM     22  C   UNL     1      28.691  29.542  17.160  0.00  0.00    -0.064 C 
ATOM     23  N   UNL     1      29.132  29.223  15.730  0.00  0.00    +0.379 N 
ATOM     24  C   UNL     1      30.550  28.834  15.730  0.00  0.00    -0.096 C 
ATOM     25  H   UNL     1      29.037  30.158  15.130  0.00  0.00    -0.082 HD
ATOM     26  C   UNL     1      28.226  28.176  15.099  0.00  0.00    -0.064 C 
ATOM     27  C   UNL     1      26.744  28.642  15.119  0.00  0.00    +0.066 C 
ENDBRANCH  19  20
ENDBRANCH  18  19
ENDBRANCH  14  15
ENDBRANCH  12  13
TORSDOF 6
ENDMDL
MODEL 2
REMARK VINA RESULT:      -8.8      4.194     12.804
REMARK  Name = C:\Users\Docking\Desktop\test protocol\1iep_ligandH.pdb
REMARK  8 active torsions:
REMARK  status: ('A' for Active; 'I' for Inactive)
REMARK    1  A    between atoms: _5  and  _11
REMARK    2  A    between atoms: _19  and  _21
REMARK    3  A    between atoms: _22  and  _66
REMARK    4  A    between atoms: _27  and  _30
REMARK    5  A    between atoms: _32  and  _33
REMARK    6  A    between atoms: _38  and  _43
REMARK    7  A    between atoms: _43  and  _46
REMARK    8  A    between atoms: _53  and  _55
REMARK                            x       y       z     vdW  Elec       q    Type
REMARK                         _______ _______ _______ _____ _____    ______ ____
ROOT
ATOM     10  C   UNL     1      19.971  23.775  14.427  0.00  0.00    +0.038 A 
ATOM     11  C   UNL     1      18.820  23.958  15.234  0.00  0.00    +0.047 A 
ATOM     12  C   UNL     1      17.544  23.360  14.872  0.00  0.00    +0.035 A 
ATOM     32  C   UNL     1      17.478  22.580  13.681  0.00  0.00    +0.024 A 
ATOM     33  C   UNL     1      18.638  22.385  12.848  0.00  0.00    +0.007 A 
ATOM     34  C   UNL     1      19.898  22.974  13.199  0.00  0.00    -0.029 A 
ATOM     35  C   UNL     1      21.108  22.737  12.265  0.00  0.00    +0.045 C 
ENDROOT
BRANCH  10   9
ATOM      4  C   UNL     1      22.630  27.623  15.505  0.00  0.00    +0.077 A 
ATOM      5  C   UNL     1      21.547  28.522  15.231  0.00  0.00    +0.048 A 
ATOM      6  C   UNL     1      20.324  27.955  14.808  0.00  0.00    +0.116 A 
ATOM      7  N   UNL     1      20.205  26.588  14.673  0.00  0.00    -0.223 NA
ATOM      8  C   UNL     1      21.270  25.750  14.944  0.00  0.00    +0.220 A 
ATOM      9  N   UNL     1      21.170  24.372  14.822  0.00  0.00    -0.283 N 
ATOM     36  H   UNL     1      21.981  23.788  15.024  0.00  0.00    +0.155 HD
ATOM     37  N   UNL     1      22.449  26.267  15.348  0.00  0.00    -0.214 NA
BRANCH   4   3
ATOM      1  C   UNL     1      26.231  29.149  15.579  0.00  0.00    +0.020 A 
ATOM      2  C   UNL     1      24.937  28.737  15.086  0.00  0.00    +0.013 A 
ATOM      3  C   UNL     1      23.984  28.070  15.964  0.00  0.00    +0.019 A 
ATOM     38  C   UNL     1      24.374  27.833  17.345  0.00  0.00    +0.120 A 
ATOM     39  N   UNL     1      25.627  28.240  17.791  0.00  0.00    -0.263 NA
ATOM     40  C   UNL     1      26.554  28.881  16.956  0.00  0.00    +0.111 A 
ENDBRANCH   4   3
ENDBRANCH  10   9
BRANCH  12  13
ATOM     13  N   UNL     1      16.339  23.517  15.648  0.00  0.00    -0.281 N 
ATOM     14  C   UNL     1      15.893  22.730  16.697  0.00  0.00    +0.248 C 
ATOM     30  O   UNL     1      16.360  21.639  16.990  0.00  0.00    -0.270 OA
ATOM     31  H   UNL     1      15.742  24.304  15.394  0.00  0.00    +0.155 HD
BRANCH  14  15
ATOM     15  C   UNL     1      14.755  23.218  17.534  0.00  0.00    +0.037 A 
ATOM     16  C   UNL     1      14.978  23.769  18.873  0.00  0.00    +0.013 A 
ATOM     17  C   UNL     1      13.860  24.217  19.666  0.00  0.00    +0.005 A 
ATOM     18  C   UNL     1      12.509  24.118  19.119  0.00  0.00    -0.033 A 
ATOM     28  C   UNL     1      12.317  23.573  17.786  0.00  0.00    +0.005 A 
ATOM     29  C   UNL     1      13.410  23.131  17.006  0.00  0.00    +0.013 A 
BRANCH  18  19
ATOM     19  C   UNL     1      11.256  24.553  19.903  0.00  0.00    +0.119 C 
BRANCH  19  20
ATOM     20  N   UNL     1       9.992  23.802  19.642  0.00  0.00    -0.302 NA
ATOM     21  C   UNL     1       8.978  24.640  18.857  0.00  0.00    +0.066 C 
ATOM     22  C   UNL     1       7.670  23.831  18.574  0.00  0.00    -0.064 C 
ATOM     23  N   UNL     1       7.071  23.355  19.898  0.00  0.00    +0.379 N 
ATOM     24  C   UNL     1       5.810  22.644  19.639  0.00  0.00    -0.096 C 
ATOM     25  H   UNL     1       6.831  24.259  20.505  0.00  0.00    -0.082 HD
ATOM     26  C   UNL     1       8.074  22.524  20.686  0.00  0.00    -0.064 C 
ATOM     27  C   UNL     1       9.381  23.326  20.937  0.00  0.00    +0.066 C 
ENDBRANCH  19  20
ENDBRANCH  18  19
ENDBRANCH  14  15
ENDBRANCH  12  13
TORSDOF 6
ENDMDL
MODEL 3
REMARK VINA RESULT:      -8.8      3.462      6.220
REMARK  Name = C:\Users\Docking\Desktop\test protocol\1iep_ligandH.pdb
REMARK  8 active torsions:
REMARK  status: ('A' for Active; 'I' for Inactive)
REMARK    1  A    between atoms: _5  and  _11
REMARK    2  A    between atoms: _19  and  _21
REMARK    3  A    between atoms: _22  and  _66
REMARK    4  A    between atoms: _27  and  _30
REMARK    5  A    between atoms: _32  and  _33
REMARK    6  A    between atoms: _38  and  _43
REMARK    7  A    between atoms: _43  and  _46
REMARK    8  A    between atoms: _53  and  _55
REMARK                            x       y       z     vdW  Elec       q    Type
REMARK                         _______ _______ _______ _____ _____    ______ ____
ROOT
ATOM     10  C   UNL     1      20.882  25.987  15.212  0.00  0.00    +0.038 A 
ATOM     11  C   UNL     1      22.268  25.890  15.499  0.00  0.00    +0.047 A 
ATOM     12  C   UNL     1      23.153  27.032  15.331  0.00  0.00    +0.035 A 
ATOM     32  C   UNL     1      22.592  28.260  14.872  0.00  0.00    +0.024 A 
ATOM     33  C   UNL     1      21.186  28.375  14.574  0.00  0.00    +0.007 A 
ATOM     34  C   UNL     1      20.309  27.251  14.736  0.00  0.00    -0.029 A 
ATOM     35  C   UNL     1      18.811  27.431  14.396  0.00  0.00    +0.045 C 
ENDROOT
BRANCH  10   9
ATOM      4  C   UNL     1      19.557  21.513  14.088  0.00  0.00    +0.077 A 
ATOM      5  C   UNL     1      20.530  21.426  13.037  0.00  0.00    +0.048 A 
ATOM      6  C   UNL     1      21.347  22.557  12.814  0.00  0.00    +0.116 A 
ATOM      7  N   UNL     1      21.194  23.685  13.589  0.00  0.00    -0.223 NA
ATOM      8  C   UNL     1      20.245  23.737  14.594  0.00  0.00    +0.220 A 
ATOM      9  N   UNL     1      20.079  24.858  15.391  0.00  0.00    -0.283 N 
ATOM     36  H   UNL     1      19.363  24.860  16.117  0.00  0.00    +0.155 HD
ATOM     37  N   UNL     1      19.451  22.670  14.826  0.00  0.00    -0.214 NA
BRANCH   4   3
ATOM      1  C   UNL     1      17.127  19.171  16.066  0.00  0.00    +0.020 A 
ATOM      2  C   UNL     1      18.024  20.265  15.770  0.00  0.00    +0.013 A 
ATOM      3  C   UNL     1      18.623  20.400  14.448  0.00  0.00    +0.019 A 
ATOM     38  C   UNL     1      18.291  19.404  13.440  0.00  0.00    +0.120 A 
ATOM     39  N   UNL     1      17.425  18.361  13.754  0.00  0.00    -0.263 NA
ATOM     40  C   UNL     1      16.844  18.220  15.023  0.00  0.00    +0.111 A 
ENDBRANCH   4   3
ENDBRANCH  10   9
BRANCH  12  13
ATOM     13  N   UNL     1      24.569  26.992  15.599  0.00  0.00    -0.281 N 
ATOM     14  C   UNL     1      25.212  26.450  16.700  0.00  0.00    +0.248 C 
ATOM     30  O   UNL     1      24.650  26.106  17.729  0.00  0.00    -0.270 OA
ATOM     31  H   UNL     1      25.170  27.413  14.891  0.00  0.00    +0.155 HD
BRANCH  14  15
ATOM     15  C   UNL     1      26.697  26.279  16.657  0.00  0.00    +0.037 A 
ATOM     16  C   UNL     1      27.396  25.458  17.648  0.00  0.00    +0.013 A 
ATOM     17  C   UNL     1      28.830  25.324  17.594  0.00  0.00    +0.005 A 
ATOM     18  C   UNL     1      29.575  26.013  16.543  0.00  0.00    -0.033 A 
ATOM     28  C   UNL     1      28.855  26.816  15.569  0.00  0.00    +0.005 A 
ATOM     29  C   UNL     1      27.449  26.951  15.619  0.00  0.00    +0.013 A 
BRANCH  18  19
ATOM     19  C   UNL     1      31.109  25.943  16.421  0.00  0.00    +0.119 C 
BRANCH  19  20
ATOM     20  N   UNL     1      31.687  24.745  15.743  0.00  0.00    -0.302 NA
ATOM     21  C   UNL     1      31.052  24.498  14.372  0.00  0.00    +0.066 C 
ATOM     22  C   UNL     1      31.684  23.254  13.667  0.00  0.00    -0.064 C 
ATOM     23  N   UNL     1      31.526  22.026  14.566  0.00  0.00    +0.379 N 
ATOM     24  C   UNL     1      32.068  20.844  13.882  0.00  0.00    -0.096 C 
ATOM     25  H   UNL     1      30.435  21.858  14.719  0.00  0.00    -0.082 HD
ATOM     26  C   UNL     1      32.153  22.264  15.933  0.00  0.00    -0.064 C 
ATOM     27  C   UNL     1      31.538  23.520  16.612  0.00  0.00    +0.066 C 
ENDBRANCH  19  20
ENDBRANCH  18  19
ENDBRANCH  14  15
ENDBRANCH  12  13
TORSDOF 6
ENDMDL
MODEL 4
REMARK VINA RESULT:      -8.7      2.858      5.104
REMARK  Name = C:\Users\Docking\Desktop\test protocol\1iep_ligandH.pdb
REMARK  8 active torsions:
REMARK  status: ('A' for Active; 'I' for Inactive)
REMARK    1  A    between atoms: _5  and  _11
REMARK    2  A    between atoms: _19  and  _21
REMARK    3  A    between atoms: _22  and  _66
REMARK    4  A    between atoms: _27  and  _30
REMARK    5  A    between atoms: _32  and  _33
REMARK    6  A    between atoms: _38  and  _43
REMARK    7  A    between atoms: _43  and  _46
REMARK    8  A    between atoms: _53  and  _55
REMARK                            x       y       z     vdW  Elec       q    Type
REMARK                         _______ _______ _______ _____ _____    ______ ____
ROOT
ATOM     10  C   UNL     1      20.433  25.566  14.649  0.00  0.00    +0.038 A 
ATOM     11  C   UNL     1      21.823  25.711  14.889  0.00  0.00    +0.047 A 
ATOM     12  C   UNL     1      22.399  27.005  15.218  0.00  0.00    +0.035 A 
ATOM     32  C   UNL     1      21.529  28.131  15.297  0.00  0.00    +0.024 A 
ATOM     33  C   UNL     1      20.114  28.003  15.055  0.00  0.00    +0.007 A 
ATOM     34  C   UNL     1      19.540  26.729  14.728  0.00  0.00    -0.029 A 
ATOM     35  C   UNL     1      18.017  26.651  14.472  0.00  0.00    +0.045 C 
ENDROOT
BRANCH  10   9
ATOM      4  C   UNL     1      18.411  21.392  15.883  0.00  0.00    +0.077 A 
ATOM      5  C   UNL     1      18.371  21.753  17.271  0.00  0.00    +0.048 A 
ATOM      6  C   UNL     1      18.887  23.019  17.626  0.00  0.00    +0.116 A 
ATOM      7  N   UNL     1      19.402  23.854  16.658  0.00  0.00    -0.223 NA
ATOM      8  C   UNL     1      19.427  23.474  15.329  0.00  0.00    +0.220 A 
ATOM      9  N   UNL     1      19.933  24.300  14.337  0.00  0.00    -0.283 N 
ATOM     36  H   UNL     1      19.940  23.980  13.369  0.00  0.00    +0.155 HD
ATOM     37  N   UNL     1      18.941  22.269  14.964  0.00  0.00    -0.214 NA
BRANCH   4   3
ATOM      1  C   UNL     1      16.611  17.932  15.576  0.00  0.00    +0.020 A 
ATOM      2  C   UNL     1      17.079  19.178  16.138  0.00  0.00    +0.013 A 
ATOM      3  C   UNL     1      17.900  20.089  15.350  0.00  0.00    +0.019 A 
ATOM     38  C   UNL     1      18.231  19.707  13.986  0.00  0.00    +0.120 A 
ATOM     39  N   UNL     1      17.767  18.500  13.471  0.00  0.00    -0.263 NA
ATOM     40  C   UNL     1      16.978  17.615  14.221  0.00  0.00    +0.111 A 
ENDBRANCH   4   3
ENDBRANCH  10   9
BRANCH  12  13
ATOM     13  N   UNL     1      23.805  27.214  15.464  0.00  0.00    -0.281 N 
ATOM     14  C   UNL     1      24.488  27.085  16.662  0.00  0.00    +0.248 C 
ATOM     30  O   UNL     1      23.952  26.977  17.755  0.00  0.00    -0.270 OA
ATOM     31  H   UNL     1      24.363  27.491  14.657  0.00  0.00    +0.155 HD
BRANCH  14  15
ATOM     15  C   UNL     1      25.982  27.092  16.645  0.00  0.00    +0.037 A 
ATOM     16  C   UNL     1      26.745  28.164  17.291  0.00  0.00    +0.013 A 
ATOM     17  C   UNL     1      28.186  28.155  17.245  0.00  0.00    +0.005 A 
ATOM     18  C   UNL     1      28.874  27.069  16.551  0.00  0.00    -0.033 A 
ATOM     28  C   UNL     1      28.093  26.016  15.924  0.00  0.00    +0.005 A 
ATOM     29  C   UNL     1      26.680  26.021  15.966  0.00  0.00    +0.013 A 
BRANCH  18  19
ATOM     19  C   UNL     1      30.407  26.990  16.434  0.00  0.00    +0.119 C 
BRANCH  19  20
ATOM     20  N   UNL     1      31.005  27.249  15.090  0.00  0.00    -0.302 NA
ATOM     21  C   UNL     1      30.163  28.228  14.267  0.00  0.00    +0.066 C 
ATOM     22  C   UNL     1      30.815  28.505  12.873  0.00  0.00    -0.064 C 
ATOM     23  N   UNL     1      30.994  27.182  12.125  0.00  0.00    +0.379 N 
ATOM     24  C   UNL     1      31.552  27.445  10.790  0.00  0.00    -0.096 C 
ATOM     25  H   UNL     1      29.983  26.733  11.986  0.00  0.00    -0.082 HD
ATOM     26  C   UNL     1      31.827  26.202  12.938  0.00  0.00    -0.064 C 
ATOM     27  C   UNL     1      31.186  25.957  14.333  0.00  0.00    +0.066 C 
ENDBRANCH  19  20
ENDBRANCH  18  19
ENDBRANCH  14  15
ENDBRANCH  12  13
TORSDOF 6
ENDMDL
MODEL 5
REMARK VINA RESULT:      -8.7      3.215      5.437
REMARK  Name = C:\Users\Docking\Desktop\test protocol\1iep_ligandH.pdb
REMARK  8 active torsions:
REMARK  status: ('A' for Active; 'I' for Inactive)
REMARK    1  A    between atoms: _5  and  _11
REMARK    2  A    between atoms: _19  and  _21
REMARK    3  A    between atoms: _22  and  _66
REMARK    4  A    between atoms: _27  and  _30
REMARK    5  A    between atoms: _32  and  _33
REMARK    6  A    between atoms: _38  and  _43
REMARK    7  A    between atoms: _43  and  _46
REMARK    8  A    between atoms: _53  and  _55
REMARK                            x       y       z     vdW  Elec       q    Type
REMARK                         _______ _______ _______ _____ _____    ______ ____
ROOT
ATOM     10  C   UNL     1      20.162  25.165  14.979  0.00  0.00    +0.038 A 
ATOM     11  C   UNL     1      21.554  25.409  15.089  0.00  0.00    +0.047 A 
ATOM     12  C   UNL     1      22.085  26.764  15.075  0.00  0.00    +0.035 A 
ATOM     32  C   UNL     1      21.167  27.847  14.949  0.00  0.00    +0.024 A 
ATOM     33  C   UNL     1      19.748  27.618  14.835  0.00  0.00    +0.007 A 
ATOM     34  C   UNL     1      19.220  26.284  14.846  0.00  0.00    -0.029 A 
ATOM     35  C   UNL     1      17.690  26.096  14.714  0.00  0.00    +0.045 C 
ENDROOT
BRANCH  10   9
ATOM      4  C   UNL     1      18.761  21.138  12.776  0.00  0.00    +0.077 A 
ATOM      5  C   UNL     1      18.923  21.723  11.476  0.00  0.00    +0.048 A 
ATOM      6  C   UNL     1      19.361  23.065  11.418  0.00  0.00    +0.116 A 
ATOM      7  N   UNL     1      19.617  23.760  12.580  0.00  0.00    -0.223 NA
ATOM      8  C   UNL     1      19.449  23.167  13.818  0.00  0.00    +0.220 A 
ATOM      9  N   UNL     1      19.707  23.845  14.999  0.00  0.00    -0.283 N 
ATOM     36  H   UNL     1      19.564  23.374  15.892  0.00  0.00    +0.155 HD
ATOM     37  N   UNL     1      19.029  21.887  13.900  0.00  0.00    -0.214 NA
BRANCH   4   3
ATOM      1  C   UNL     1      16.912  17.991  14.182  0.00  0.00    +0.020 A 
ATOM      2  C   UNL     1      17.315  19.367  14.005  0.00  0.00    +0.013 A 
ATOM      3  C   UNL     1      18.308  19.729  13.001  0.00  0.00    +0.019 A 
ATOM     38  C   UNL     1      18.876  18.667  12.185  0.00  0.00    +0.120 A 
ATOM     39  N   UNL     1      18.469  17.350  12.379  0.00  0.00    -0.263 NA
ATOM     40  C   UNL     1      17.517  16.990  13.344  0.00  0.00    +0.111 A 
ENDBRANCH   4   3
ENDBRANCH  10   9
BRANCH  12  13
ATOM     13  N   UNL     1      23.490  27.072  15.175  0.00  0.00    -0.281 N 
ATOM     14  C   UNL     1      24.203  27.439  16.305  0.00  0.00    +0.248 C 
ATOM     30  O   UNL     1      23.694  27.768  17.366  0.00  0.00    -0.270 OA
ATOM     31  H   UNL     1      24.024  27.012  14.308  0.00  0.00    +0.155 HD
BRANCH  14  15
ATOM     15  C   UNL     1      25.696  27.459  16.242  0.00  0.00    +0.037 A 
ATOM     16  C   UNL     1      26.455  26.272  15.841  0.00  0.00    +0.013 A 
ATOM     17  C   UNL     1      27.895  26.312  15.805  0.00  0.00    +0.005 A 
ATOM     18  C   UNL     1      28.586  27.547  16.170  0.00  0.00    -0.033 A 
ATOM     28  C   UNL     1      27.808  28.711  16.559  0.00  0.00    +0.005 A 
ATOM     29  C   UNL     1      26.396  28.675  16.596  0.00  0.00    +0.013 A 
BRANCH  18  19
ATOM     19  C   UNL     1      30.121  27.675  16.180  0.00  0.00    +0.119 C 
BRANCH  19  20
ATOM     20  N   UNL     1      30.811  27.736  14.857  0.00  0.00    -0.302 NA
ATOM     21  C   UNL     1      30.029  28.572  13.840  0.00  0.00    +0.066 C 
ATOM     22  C   UNL     1      30.777  28.644  12.469  0.00  0.00    -0.064 C 
ATOM     23  N   UNL     1      31.008  27.227  11.942  0.00  0.00    +0.379 N 
ATOM     24  C   UNL     1      31.659  27.294  10.625  0.00  0.00    -0.096 C 
ATOM     25  H   UNL     1      30.010  26.751  11.802  0.00  0.00    -0.082 HD
ATOM     26  C   UNL     1      31.783  26.389  12.948  0.00  0.00    -0.064 C 
ATOM     27  C   UNL     1      31.046  26.347  14.317  0.00  0.00    +0.066 C 
ENDBRANCH  19  20
ENDBRANCH  18  19
ENDBRANCH  14  15
ENDBRANCH  12  13
TORSDOF 6
ENDMDL
