MODEL 1
REMARK VINA RESULT:      -8.5      0.000      0.000
REMARK  Name = C:\Users\Docking\Desktop\test protocol\1iep_ligandH.pdb
REMARK  8 active torsions:
REMARK  status: ('A' for Active; 'I' for Inactive)
REMARK    1  A    between atoms: _5  and  _11
REMARK    2  A    between atoms: _19  and  _21
REMARK    3  A    between atoms: _22  and  _66
REMARK    4  A    between atoms: _27  and  _30
REMARK    5  A    between atoms: _32  and  _33
REMARK    6  A    between atoms: _38  and  _43
REMARK    7  A    between atoms: _43  and  _46
REMARK    8  A    between atoms: _53  and  _55
REMARK                            x       y       z     vdW  Elec       q    Type
REMARK                         _______ _______ _______ _____ _____    ______ ____
ROOT
ATOM     10  C   UNL     1      22.258   9.719  10.763  0.00  0.00    +0.038 A 
ATOM     11  C   UNL     1      21.710   9.660  12.070  0.00  0.00    +0.047 A 
ATOM     12  C   UNL     1      22.103  10.614  13.095  0.00  0.00    +0.035 A 
ATOM     32  C   UNL     1      23.055  11.618  12.754  0.00  0.00    +0.024 A 
ATOM     33  C   UNL     1      23.624  11.692  11.431  0.00  0.00    +0.007 A 
ATOM     34  C   UNL     1      23.242  10.752  10.416  0.00  0.00    -0.029 A 
ATOM     35  C   UNL     1      23.888  10.875   9.017  0.00  0.00    +0.045 C 
ENDROOT
BRANCH  10   9
ATOM      4  C   UNL     1      22.770   5.552   8.437  0.00  0.00    +0.077 A 
ATOM      5  C   UNL     1      23.977   5.237   9.145  0.00  0.00    +0.048 A 
ATOM      6  C   UNL     1      24.436   6.177  10.095  0.00  0.00    +0.116 A 
ATOM      7  N   UNL     1      23.733   7.342  10.312  0.00  0.00    -0.223 NA
ATOM      8  C   UNL     1      22.573   7.616   9.610  0.00  0.00    +0.220 A 
ATOM      9  N   UNL     1      21.845   8.777   9.818  0.00  0.00    -0.283 N 
ATOM     36  H   UNL     1      20.999   8.946   9.275  0.00  0.00    +0.155 HD
ATOM     37  N   UNL     1      22.114   6.735   8.697  0.00  0.00    -0.214 NA
BRANCH   4   3
ATOM      1  C   UNL     1      22.305   3.021   5.491  0.00  0.00    +0.020 A 
ATOM      2  C   UNL     1      22.947   3.870   6.468  0.00  0.00    +0.013 A 
ATOM      3  C   UNL     1      22.156   4.658   7.405  0.00  0.00    +0.019 A 
ATOM     38  C   UNL     1      20.706   4.564   7.326  0.00  0.00    +0.120 A 
ATOM     39  N   UNL     1      20.115   3.740   6.373  0.00  0.00    -0.263 NA
ATOM     40  C   UNL     1      20.866   2.978   5.466  0.00  0.00    +0.111 A 
ENDBRANCH   4   3
ENDBRANCH  10   9
BRANCH  12  13
ATOM     13  N   UNL     1      21.586  10.598  14.441  0.00  0.00    -0.281 N 
ATOM     14  C   UNL     1      20.900  11.604  15.102  0.00  0.00    +0.248 C 
ATOM     30  O   UNL     1      20.813  12.757  14.705  0.00  0.00    -0.270 OA
ATOM     31  H   UNL     1      21.745   9.742  14.971  0.00  0.00    +0.155 HD
BRANCH  14  15
ATOM     15  C   UNL     1      20.225  11.288  16.397  0.00  0.00    +0.037 A 
ATOM     16  C   UNL     1      20.498  10.037  17.110  0.00  0.00    +0.013 A 
ATOM     17  C   UNL     1      19.820   9.749  18.350  0.00  0.00    +0.005 A 
ATOM     18  C   UNL     1      18.864  10.715  18.885  0.00  0.00    -0.033 A 
ATOM     28  C   UNL     1      18.617  11.950  18.160  0.00  0.00    +0.005 A 
ATOM     29  C   UNL     1      19.278  12.236  16.944  0.00  0.00    +0.013 A 
BRANCH  18  19
ATOM     19  C   UNL     1      18.080  10.481  20.190  0.00  0.00    +0.119 C 
BRANCH  19  20
ATOM     20  N   UNL     1      17.409   9.157  20.356  0.00  0.00    -0.302 NA
ATOM     21  C   UNL     1      16.430   8.862  19.217  0.00  0.00    +0.066 C 
ATOM     22  C   UNL     1      15.754   7.464  19.395  0.00  0.00    -0.064 C 
ATOM     23  N   UNL     1      15.042   7.413  20.748  0.00  0.00    +0.379 N 
ATOM     24  C   UNL     1      14.356   6.121  20.893  0.00  0.00    -0.096 C 
ATOM     25  H   UNL     1      14.263   8.211  20.750  0.00  0.00    -0.082 HD
ATOM     26  C   UNL     1      16.008   7.708  21.886  0.00  0.00    -0.064 C 
ATOM     27  C   UNL     1      16.696   9.087  21.684  0.00  0.00    +0.066 C 
ENDBRANCH  19  20
ENDBRANCH  18  19
ENDBRANCH  14  15
ENDBRANCH  12  13
TORSDOF 6
ENDMDL
MODEL 2
REMARK VINA RESULT:      -8.4      1.616      2.604
REMARK  Name = C:\Users\Docking\Desktop\test protocol\1iep_ligandH.pdb
REMARK  8 active torsions:
REMARK  status: ('A' for Active; 'I' for Inactive)
REMARK    1  A    between atoms: _5  and  _11
REMARK    2  A    between atoms: _19  and  _21
REMARK    3  A    between atoms: _22  and  _66
REMARK    4  A    between atoms: _27  and  _30
REMARK    5  A    between atoms: _32  and  _33
REMARK    6  A    between atoms: _38  and  _43
REMARK    7  A    between atoms: _43  and  _46
REMARK    8  A    between atoms: _53  and  _55
REMARK                            x       y       z     vdW  Elec       q    Type
REMARK                         _______ _______ _______ _____ _____    ______ ____
ROOT
ATOM     10  C   UNL     1      22.291   9.678  10.804  0.00  0.00    +0.038 A 
ATOM     11  C   UNL     1      21.707   9.653  12.096  0.00  0.00    +0.047 A 
ATOM     12  C   UNL     1      22.110  10.601  13.122  0.00  0.00    +0.035 A 
ATOM     32  C   UNL     1      23.110  11.564  12.798  0.00  0.00    +0.024 A 
ATOM     33  C   UNL     1      23.715  11.603  11.490  0.00  0.00    +0.007 A 
ATOM     34  C   UNL     1      23.323  10.669  10.474  0.00  0.00    -0.029 A 
ATOM     35  C   UNL     1      24.011  10.753   9.091  0.00  0.00    +0.045 C 
ENDROOT
BRANCH  10   9
ATOM      4  C   UNL     1      22.760   5.519   8.455  0.00  0.00    +0.077 A 
ATOM      5  C   UNL     1      23.968   5.191   9.156  0.00  0.00    +0.048 A 
ATOM      6  C   UNL     1      24.439   6.123  10.107  0.00  0.00    +0.116 A 
ATOM      7  N   UNL     1      23.745   7.292  10.334  0.00  0.00    -0.223 NA
ATOM      8  C   UNL     1      22.585   7.578   9.639  0.00  0.00    +0.220 A 
ATOM      9  N   UNL     1      21.867   8.744   9.856  0.00  0.00    -0.283 N 
ATOM     36  H   UNL     1      21.019   8.922   9.318  0.00  0.00    +0.155 HD
ATOM     37  N   UNL     1      22.115   6.705   8.724  0.00  0.00    -0.214 NA
BRANCH   4   3
ATOM      1  C   UNL     1      22.258   3.065   5.450  0.00  0.00    +0.020 A 
ATOM      2  C   UNL     1      22.911   3.906   6.426  0.00  0.00    +0.013 A 
ATOM      3  C   UNL     1      22.134   4.634   7.421  0.00  0.00    +0.019 A 
ATOM     38  C   UNL     1      20.687   4.487   7.402  0.00  0.00    +0.120 A 
ATOM     39  N   UNL     1      20.085   3.671   6.449  0.00  0.00    -0.263 NA
ATOM     40  C   UNL     1      20.823   2.967   5.486  0.00  0.00    +0.111 A 
ENDBRANCH   4   3
ENDBRANCH  10   9
BRANCH  12  13
ATOM     13  N   UNL     1      21.558  10.618  14.454  0.00  0.00    -0.281 N 
ATOM     14  C   UNL     1      20.833  11.629  15.062  0.00  0.00    +0.248 C 
ATOM     30  O   UNL     1      20.730  12.766  14.625  0.00  0.00    -0.270 OA
ATOM     31  H   UNL     1      21.722   9.784  15.017  0.00  0.00    +0.155 HD
BRANCH  14  15
ATOM     15  C   UNL     1      20.131  11.341  16.350  0.00  0.00    +0.037 A 
ATOM     16  C   UNL     1      19.196  12.303  16.939  0.00  0.00    +0.013 A 
ATOM     17  C   UNL     1      18.546  12.007  18.191  0.00  0.00    +0.005 A 
ATOM     18  C   UNL     1      18.827  10.741  18.862  0.00  0.00    -0.033 A 
ATOM     28  C   UNL     1      19.755   9.801  18.253  0.00  0.00    +0.005 A 
ATOM     29  C   UNL     1      20.395  10.089  17.027  0.00  0.00    +0.013 A 
BRANCH  18  19
ATOM     19  C   UNL     1      18.195  10.350  20.211  0.00  0.00    +0.119 C 
BRANCH  19  20
ATOM     20  N   UNL     1      17.577  11.444  21.018  0.00  0.00    -0.302 NA
ATOM     21  C   UNL     1      18.624  12.423  21.557  0.00  0.00    +0.066 C 
ATOM     22  C   UNL     1      17.958  13.573  22.380  0.00  0.00    -0.064 C 
ATOM     23  N   UNL     1      17.140  12.971  23.524  0.00  0.00    +0.379 N 
ATOM     24  C   UNL     1      16.560  14.051  24.334  0.00  0.00    -0.096 C 
ATOM     25  H   UNL     1      17.841  12.398  24.175  0.00  0.00    -0.082 HD
ATOM     26  C   UNL     1      16.098  11.994  22.997  0.00  0.00    -0.064 C 
ATOM     27  C   UNL     1      16.768  10.872  22.156  0.00  0.00    +0.066 C 
ENDBRANCH  19  20
ENDBRANCH  18  19
ENDBRANCH  14  15
ENDBRANCH  12  13
TORSDOF 6
ENDMDL
MODEL 3
REMARK VINA RESULT:      -8.2      7.984     14.180
REMARK  Name = C:\Users\Docking\Desktop\test protocol\1iep_ligandH.pdb
REMARK  8 active torsions:
REMARK  status: ('A' for Active; 'I' for Inactive)
REMARK    1  A    between atoms: _5  and  _11
REMARK    2  A    between atoms: _19  and  _21
REMARK    3  A    between atoms: _22  and  _66
REMARK    4  A    between atoms: _27  and  _30
REMARK    5  A    between atoms: _32  and  _33
REMARK    6  A    between atoms: _38  and  _43
REMARK    7  A    between atoms: _43  and  _46
REMARK    8  A    between atoms: _53  and  _55
REMARK                            x       y       z     vdW  Elec       q    Type
REMARK                         _______ _______ _______ _____ _____    ______ ____
ROOT
ATOM     10  C   UNL     1      21.623  -0.291   0.013  0.00  0.00    +0.038 A 
ATOM     11  C   UNL     1      21.476   0.682   1.035  0.00  0.00    +0.047 A 
ATOM     12  C   UNL     1      22.579   1.012   1.924  0.00  0.00    +0.035 A 
ATOM     32  C   UNL     1      23.819   0.334   1.742  0.00  0.00    +0.024 A 
ATOM     33  C   UNL     1      23.986  -0.659   0.710  0.00  0.00    +0.007 A 
ATOM     34  C   UNL     1      22.901  -0.991  -0.168  0.00  0.00    -0.029 A 
ATOM     35  C   UNL     1      23.134  -2.067  -1.254  0.00  0.00    +0.045 C 
ENDROOT
BRANCH  10   9
ATOM      4  C   UNL     1      17.430  -2.453  -0.874  0.00  0.00    +0.077 A 
ATOM      5  C   UNL     1      17.429  -3.105   0.404  0.00  0.00    +0.048 A 
ATOM      6  C   UNL     1      18.529  -2.863   1.257  0.00  0.00    +0.116 A 
ATOM      7  N   UNL     1      19.549  -2.029   0.853  0.00  0.00    -0.223 NA
ATOM      8  C   UNL     1      19.520  -1.418  -0.387  0.00  0.00    +0.220 A 
ATOM      9  N   UNL     1      20.531  -0.569  -0.812  0.00  0.00    -0.283 N 
ATOM     36  H   UNL     1      20.476  -0.143  -1.736  0.00  0.00    +0.155 HD
ATOM     37  N   UNL     1      18.481  -1.633  -1.221  0.00  0.00    -0.214 NA
BRANCH   4   3
ATOM      1  C   UNL     1      13.944  -2.357  -2.646  0.00  0.00    +0.020 A 
ATOM      2  C   UNL     1      14.963  -2.188  -1.635  0.00  0.00    +0.013 A 
ATOM      3  C   UNL     1      16.337  -2.606  -1.885  0.00  0.00    +0.019 A 
ATOM     38  C   UNL     1      16.649  -3.197  -3.177  0.00  0.00    +0.120 A 
ATOM     39  N   UNL     1      15.647  -3.349  -4.130  0.00  0.00    -0.263 NA
ATOM     40  C   UNL     1      14.322  -2.951  -3.901  0.00  0.00    +0.111 A 
ENDBRANCH   4   3
ENDBRANCH  10   9
BRANCH  12  13
ATOM     13  N   UNL     1      22.487   1.985   2.984  0.00  0.00    -0.281 N 
ATOM     14  C   UNL     1      21.386   2.742   3.351  0.00  0.00    +0.248 C 
ATOM     30  O   UNL     1      20.368   2.852   2.684  0.00  0.00    -0.270 OA
ATOM     31  H   UNL     1      23.336   2.135   3.529  0.00  0.00    +0.155 HD
BRANCH  14  15
ATOM     15  C   UNL     1      21.427   3.497   4.641  0.00  0.00    +0.037 A 
ATOM     16  C   UNL     1      20.437   4.533   4.946  0.00  0.00    +0.013 A 
ATOM     17  C   UNL     1      20.510   5.258   6.190  0.00  0.00    +0.005 A 
ATOM     18  C   UNL     1      21.577   4.948   7.139  0.00  0.00    -0.033 A 
ATOM     28  C   UNL     1      22.542   3.912   6.812  0.00  0.00    +0.005 A 
ATOM     29  C   UNL     1      22.475   3.200   5.594  0.00  0.00    +0.013 A 
BRANCH  18  19
ATOM     19  C   UNL     1      21.744   5.686   8.480  0.00  0.00    +0.119 C 
BRANCH  19  20
ATOM     20  N   UNL     1      22.914   6.604   8.615  0.00  0.00    -0.302 NA
ATOM     21  C   UNL     1      24.093   5.930   9.323  0.00  0.00    +0.066 C 
ATOM     22  C   UNL     1      25.317   6.897   9.436  0.00  0.00    -0.064 C 
ATOM     23  N   UNL     1      24.894   8.167  10.176  0.00  0.00    +0.379 N 
ATOM     24  C   UNL     1      26.057   9.053  10.334  0.00  0.00    -0.096 C 
ATOM     25  H   UNL     1      24.556   7.867  11.195  0.00  0.00    -0.082 HD
ATOM     26  C   UNL     1      23.720   8.841   9.480  0.00  0.00    -0.064 C 
ATOM     27  C   UNL     1      22.520   7.863   9.347  0.00  0.00    +0.066 C 
ENDBRANCH  19  20
ENDBRANCH  18  19
ENDBRANCH  14  15
ENDBRANCH  12  13
TORSDOF 6
ENDMDL
MODEL 4
REMARK VINA RESULT:      -8.0      9.860     16.798
REMARK  Name = C:\Users\Docking\Desktop\test protocol\1iep_ligandH.pdb
REMARK  8 active torsions:
REMARK  status: ('A' for Active; 'I' for Inactive)
REMARK    1  A    between atoms: _5  and  _11
REMARK    2  A    between atoms: _19  and  _21
REMARK    3  A    between atoms: _22  and  _66
REMARK    4  A    between atoms: _27  and  _30
REMARK    5  A    between atoms: _32  and  _33
REMARK    6  A    between atoms: _38  and  _43
REMARK    7  A    between atoms: _43  and  _46
REMARK    8  A    between atoms: _53  and  _55
REMARK                            x       y       z     vdW  Elec       q    Type
REMARK                         _______ _______ _______ _____ _____    ______ ____
ROOT
ATOM     10  C   UNL     1      14.209   3.210  24.888  0.00  0.00    +0.038 A 
ATOM     11  C   UNL     1      14.472   4.375  24.123  0.00  0.00    +0.047 A 
ATOM     12  C   UNL     1      15.730   4.538  23.410  0.00  0.00    +0.035 A 
ATOM     32  C   UNL     1      16.696   3.494  23.496  0.00  0.00    +0.024 A 
ATOM     33  C   UNL     1      16.446   2.304  24.271  0.00  0.00    +0.007 A 
ATOM     34  C   UNL     1      15.208   2.138  24.978  0.00  0.00    -0.029 A 
ATOM     35  C   UNL     1      14.996   0.845  25.799  0.00  0.00    +0.045 C 
ENDROOT
BRANCH  10   9
ATOM      4  C   UNL     1      11.472   3.630  28.809  0.00  0.00    +0.077 A 
ATOM      5  C   UNL     1      12.580   4.069  29.607  0.00  0.00    +0.048 A 
ATOM      6  C   UNL     1      13.838   4.166  28.973  0.00  0.00    +0.116 A 
ATOM      7  N   UNL     1      13.968   3.847  27.639  0.00  0.00    -0.223 NA
ATOM      8  C   UNL     1      12.879   3.425  26.898  0.00  0.00    +0.220 A 
ATOM      9  N   UNL     1      12.985   3.106  25.553  0.00  0.00    -0.283 N 
ATOM     36  H   UNL     1      12.160   2.791  25.043  0.00  0.00    +0.155 HD
ATOM     37  N   UNL     1      11.667   3.322  27.481  0.00  0.00    -0.214 NA
BRANCH   4   3
ATOM      1  C   UNL     1       7.904   4.415  30.207  0.00  0.00    +0.020 A 
ATOM      2  C   UNL     1       9.244   4.615  29.705  0.00  0.00    +0.013 A 
ATOM      3  C   UNL     1      10.078   3.479  29.334  0.00  0.00    +0.019 A 
ATOM     38  C   UNL     1       9.522   2.143  29.484  0.00  0.00    +0.120 A 
ATOM     39  N   UNL     1       8.229   1.981  29.972  0.00  0.00    -0.263 NA
ATOM     40  C   UNL     1       7.417   3.067  30.333  0.00  0.00    +0.111 A 
ENDBRANCH   4   3
ENDBRANCH  10   9
BRANCH  12  13
ATOM     13  N   UNL     1      16.056   5.702  22.623  0.00  0.00    -0.281 N 
ATOM     14  C   UNL     1      15.600   6.029  21.357  0.00  0.00    +0.248 C 
ATOM     30  O   UNL     1      15.004   5.260  20.617  0.00  0.00    -0.270 OA
ATOM     31  H   UNL     1      16.702   6.364  23.052  0.00  0.00    +0.155 HD
BRANCH  14  15
ATOM     15  C   UNL     1      15.855   7.404  20.831  0.00  0.00    +0.037 A 
ATOM     16  C   UNL     1      15.851   7.681  19.392  0.00  0.00    +0.013 A 
ATOM     17  C   UNL     1      16.116   9.013  18.910  0.00  0.00    +0.005 A 
ATOM     18  C   UNL     1      16.387  10.081  19.870  0.00  0.00    -0.033 A 
ATOM     28  C   UNL     1      16.379   9.780  21.292  0.00  0.00    +0.005 A 
ATOM     29  C   UNL     1      16.120   8.475  21.768  0.00  0.00    +0.013 A 
BRANCH  18  19
ATOM     19  C   UNL     1      16.701  11.527  19.445  0.00  0.00    +0.119 C 
BRANCH  19  20
ATOM     20  N   UNL     1      16.812  12.549  20.528  0.00  0.00    -0.302 NA
ATOM     21  C   UNL     1      15.540  13.392  20.657  0.00  0.00    +0.066 C 
ATOM     22  C   UNL     1      15.666  14.440  21.809  0.00  0.00    -0.064 C 
ATOM     23  N   UNL     1      16.882  15.332  21.554  0.00  0.00    +0.379 N 
ATOM     24  C   UNL     1      16.969  16.356  22.605  0.00  0.00    -0.096 C 
ATOM     25  H   UNL     1      16.719  15.856  20.584  0.00  0.00    -0.082 HD
ATOM     26  C   UNL     1      18.151  14.502  21.422  0.00  0.00    -0.064 C 
ATOM     27  C   UNL     1      18.005  13.444  20.294  0.00  0.00    +0.066 C 
ENDBRANCH  19  20
ENDBRANCH  18  19
ENDBRANCH  14  15
ENDBRANCH  12  13
TORSDOF 6
ENDMDL
MODEL 5
REMARK VINA RESULT:      -7.9      2.430     11.920
REMARK  Name = C:\Users\Docking\Desktop\test protocol\1iep_ligandH.pdb
REMARK  8 active torsions:
REMARK  status: ('A' for Active; 'I' for Inactive)
REMARK    1  A    between atoms: _5  and  _11
REMARK    2  A    between atoms: _19  and  _21
REMARK    3  A    between atoms: _22  and  _66
REMARK    4  A    between atoms: _27  and  _30
REMARK    5  A    between atoms: _32  and  _33
REMARK    6  A    between atoms: _38  and  _43
REMARK    7  A    between atoms: _43  and  _46
REMARK    8  A    between atoms: _53  and  _55
REMARK                            x       y       z     vdW  Elec       q    Type
REMARK                         _______ _______ _______ _____ _____    ______ ____
ROOT
ATOM     10  C   UNL     1      17.461  11.654  20.247  0.00  0.00    +0.038 A 
ATOM     11  C   UNL     1      18.246  11.551  19.070  0.00  0.00    +0.047 A 
ATOM     12  C   UNL     1      18.510  12.714  18.237  0.00  0.00    +0.035 A 
ATOM     32  C   UNL     1      17.960  13.968  18.634  0.00  0.00    +0.024 A 
ATOM     33  C   UNL     1      17.159  14.091  19.827  0.00  0.00    +0.007 A 
ATOM     34  C   UNL     1      16.894  12.946  20.651  0.00  0.00    -0.029 A 
ATOM     35  C   UNL     1      16.023  13.135  21.915  0.00  0.00    +0.045 C 
ENDROOT
BRANCH  10   9
ATOM      4  C   UNL     1      15.851   7.162  20.761  0.00  0.00    +0.077 A 
ATOM      5  C   UNL     1      15.388   7.109  19.405  0.00  0.00    +0.048 A 
ATOM      6  C   UNL     1      15.577   8.262  18.609  0.00  0.00    +0.116 A 
ATOM      7  N   UNL     1      16.185   9.378  19.142  0.00  0.00    -0.223 NA
ATOM      8  C   UNL     1      16.618   9.396  20.455  0.00  0.00    +0.220 A 
ATOM      9  N   UNL     1      17.239  10.505  21.009  0.00  0.00    -0.283 N 
ATOM     36  H   UNL     1      17.537  10.481  21.984  0.00  0.00    +0.155 HD
ATOM     37  N   UNL     1      16.448   8.309  21.235  0.00  0.00    -0.214 NA
BRANCH   4   3
ATOM      1  C   UNL     1      15.763   5.049  24.052  0.00  0.00    +0.020 A 
ATOM      2  C   UNL     1      15.894   6.181  23.164  0.00  0.00    +0.013 A 
ATOM      3  C   UNL     1      15.726   6.023  21.725  0.00  0.00    +0.019 A 
ATOM     38  C   UNL     1      15.422   4.696  21.213  0.00  0.00    +0.120 A 
ATOM     39  N   UNL     1      15.303   3.623  22.091  0.00  0.00    -0.263 NA
ATOM     40  C   UNL     1      15.465   3.763  23.478  0.00  0.00    +0.111 A 
ENDBRANCH   4   3
ENDBRANCH  10   9
BRANCH  12  13
ATOM     13  N   UNL     1      19.293  12.669  17.027  0.00  0.00    -0.281 N 
ATOM     14  C   UNL     1      20.632  12.341  16.891  0.00  0.00    +0.248 C 
ATOM     30  O   UNL     1      21.417  12.242  17.822  0.00  0.00    -0.270 OA
ATOM     31  H   UNL     1      18.800  12.908  16.167  0.00  0.00    +0.155 HD
BRANCH  14  15
ATOM     15  C   UNL     1      21.181  12.101  15.522  0.00  0.00    +0.037 A 
ATOM     16  C   UNL     1      21.469  13.214  14.613  0.00  0.00    +0.013 A 
ATOM     17  C   UNL     1      21.982  12.954  13.291  0.00  0.00    +0.005 A 
ATOM     18  C   UNL     1      22.212  11.573  12.871  0.00  0.00    -0.033 A 
ATOM     28  C   UNL     1      21.922  10.489  13.795  0.00  0.00    +0.005 A 
ATOM     29  C   UNL     1      21.418  10.740  15.090  0.00  0.00    +0.013 A 
BRANCH  18  19
ATOM     19  C   UNL     1      22.737  11.202  11.472  0.00  0.00    +0.119 C 
BRANCH  19  20
ATOM     20  N   UNL     1      23.056   9.765  11.221  0.00  0.00    -0.302 NA
ATOM     21  C   UNL     1      24.471   9.579  10.665  0.00  0.00    +0.066 C 
ATOM     22  C   UNL     1      24.796   8.068  10.430  0.00  0.00    -0.064 C 
ATOM     23  N   UNL     1      23.758   7.468   9.479  0.00  0.00    +0.379 N 
ATOM     24  C   UNL     1      24.094   6.062   9.210  0.00  0.00    -0.096 C 
ATOM     25  H   UNL     1      23.823   8.022   8.515  0.00  0.00    -0.082 HD
ATOM     26  C   UNL     1      22.348   7.651  10.023  0.00  0.00    -0.064 C 
ATOM     27  C   UNL     1      22.046   9.153  10.281  0.00  0.00    +0.066 C 
ENDBRANCH  19  20
ENDBRANCH  18  19
ENDBRANCH  14  15
ENDBRANCH  12  13
TORSDOF 6
ENDMDL
