MODEL 1
REMARK VINA RESULT:      -9.4      0.000      0.000
REMARK  Name = C:\Users\Docking\Desktop\test protocol\1iep_ligandH.pdb
REMARK  8 active torsions:
REMARK  status: ('A' for Active; 'I' for Inactive)
REMARK    1  A    between atoms: _5  and  _11
REMARK    2  A    between atoms: _19  and  _21
REMARK    3  A    between atoms: _22  and  _66
REMARK    4  A    between atoms: _27  and  _30
REMARK    5  A    between atoms: _32  and  _33
REMARK    6  A    between atoms: _38  and  _43
REMARK    7  A    between atoms: _43  and  _46
REMARK    8  A    between atoms: _53  and  _55
REMARK                            x       y       z     vdW  Elec       q    Type
REMARK                         _______ _______ _______ _____ _____    ______ ____
ROOT
ATOM     10  C   UNL     1      -2.302   1.488  35.324  0.00  0.00    +0.038 A 
ATOM     11  C   UNL     1      -1.954   2.546  36.202  0.00  0.00    +0.047 A 
ATOM     12  C   UNL     1      -1.825   3.913  35.721  0.00  0.00    +0.035 A 
ATOM     32  C   UNL     1      -2.060   4.167  34.338  0.00  0.00    +0.024 A 
ATOM     33  C   UNL     1      -2.413   3.103  33.431  0.00  0.00    +0.007 A 
ATOM     34  C   UNL     1      -2.539   1.753  33.899  0.00  0.00    -0.029 A 
ATOM     35  C   UNL     1      -2.914   0.651  32.880  0.00  0.00    +0.045 C 
ENDROOT
BRANCH  10   9
ATOM      4  C   UNL     1      -0.721  -3.016  35.830  0.00  0.00    +0.077 A 
ATOM      5  C   UNL     1       0.404  -2.780  34.972  0.00  0.00    +0.048 A 
ATOM      6  C   UNL     1       0.536  -1.488  34.415  0.00  0.00    +0.116 A 
ATOM      7  N   UNL     1      -0.394  -0.512  34.702  0.00  0.00    -0.223 NA
ATOM      8  C   UNL     1      -1.469  -0.773  35.532  0.00  0.00    +0.220 A 
ATOM      9  N   UNL     1      -2.412   0.195  35.840  0.00  0.00    -0.283 N 
ATOM     36  H   UNL     1      -3.194  -0.039  36.450  0.00  0.00    +0.155 HD
ATOM     37  N   UNL     1      -1.618  -1.999  36.075  0.00  0.00    -0.214 NA
BRANCH   4   3
ATOM      1  C   UNL     1      -1.357  -6.824  36.456  0.00  0.00    +0.020 A 
ATOM      2  C   UNL     1      -1.090  -5.584  35.764  0.00  0.00    +0.013 A 
ATOM      3  C   UNL     1      -0.996  -4.328  36.497  0.00  0.00    +0.019 A 
ATOM     38  C   UNL     1      -1.178  -4.361  37.940  0.00  0.00    +0.120 A 
ATOM     39  N   UNL     1      -1.435  -5.569  38.579  0.00  0.00    -0.263 NA
ATOM     40  C   UNL     1      -1.529  -6.785  37.885  0.00  0.00    +0.111 A 
ENDBRANCH   4   3
ENDBRANCH  10   9
BRANCH  12  13
ATOM     13  N   UNL     1      -1.468   5.026  36.564  0.00  0.00    -0.281 N 
ATOM     14  C   UNL     1      -2.220   6.153  36.852  0.00  0.00    +0.248 C 
ATOM     30  O   UNL     1      -3.236   6.476  36.255  0.00  0.00    -0.270 OA
ATOM     31  H   UNL     1      -0.547   4.978  37.002  0.00  0.00    +0.155 HD
BRANCH  14  15
ATOM     15  C   UNL     1      -1.772   7.058  37.954  0.00  0.00    +0.037 A 
ATOM     16  C   UNL     1      -0.356   7.382  38.142  0.00  0.00    +0.013 A 
ATOM     17  C   UNL     1       0.051   8.245  39.223  0.00  0.00    +0.005 A 
ATOM     18  C   UNL     1      -0.962   8.791  40.124  0.00  0.00    -0.033 A 
ATOM     28  C   UNL     1      -2.360   8.457  39.911  0.00  0.00    +0.005 A 
ATOM     29  C   UNL     1      -2.763   7.611  38.853  0.00  0.00    +0.013 A 
BRANCH  18  19
ATOM     19  C   UNL     1      -0.616   9.702  41.316  0.00  0.00    +0.119 C 
BRANCH  19  20
ATOM     20  N   UNL     1      -1.114  11.109  41.268  0.00  0.00    -0.302 NA
ATOM     21  C   UNL     1      -0.609  11.855  40.030  0.00  0.00    +0.066 C 
ATOM     22  C   UNL     1      -1.158  13.319  39.984  0.00  0.00    -0.064 C 
ATOM     23  N   UNL     1      -0.751  14.053  41.262  0.00  0.00    +0.379 N 
ATOM     24  C   UNL     1      -1.216  15.447  41.196  0.00  0.00    -0.096 C 
ATOM     25  H   UNL     1       0.363  14.070  41.303  0.00  0.00    -0.082 HD
ATOM     26  C   UNL     1      -1.247  13.317  42.498  0.00  0.00    -0.064 C 
ATOM     27  C   UNL     1      -0.720  11.855  42.519  0.00  0.00    +0.066 C 
ENDBRANCH  19  20
ENDBRANCH  18  19
ENDBRANCH  14  15
ENDBRANCH  12  13
TORSDOF 6
ENDMDL
MODEL 2
REMARK VINA RESULT:      -9.2      2.324      3.288
REMARK  Name = C:\Users\Docking\Desktop\test protocol\1iep_ligandH.pdb
REMARK  8 active torsions:
REMARK  status: ('A' for Active; 'I' for Inactive)
REMARK    1  A    between atoms: _5  and  _11
REMARK    2  A    between atoms: _19  and  _21
REMARK    3  A    between atoms: _22  and  _66
REMARK    4  A    between atoms: _27  and  _30
REMARK    5  A    between atoms: _32  and  _33
REMARK    6  A    between atoms: _38  and  _43
REMARK    7  A    between atoms: _43  and  _46
REMARK    8  A    between atoms: _53  and  _55
REMARK                            x       y       z     vdW  Elec       q    Type
REMARK                         _______ _______ _______ _____ _____    ______ ____
ROOT
ATOM     10  C   UNL     1      -2.381   1.473  35.365  0.00  0.00    +0.038 A 
ATOM     11  C   UNL     1      -1.802   2.493  36.163  0.00  0.00    +0.047 A 
ATOM     12  C   UNL     1      -1.701   3.861  35.677  0.00  0.00    +0.035 A 
ATOM     32  C   UNL     1      -2.201   4.155  34.375  0.00  0.00    +0.024 A 
ATOM     33  C   UNL     1      -2.791   3.129  33.551  0.00  0.00    +0.007 A 
ATOM     34  C   UNL     1      -2.892   1.778  34.023  0.00  0.00    -0.029 A 
ATOM     35  C   UNL     1      -3.528   0.718  33.094  0.00  0.00    +0.045 C 
ENDROOT
BRANCH  10   9
ATOM      4  C   UNL     1      -0.716  -3.008  35.801  0.00  0.00    +0.077 A 
ATOM      5  C   UNL     1       0.374  -2.753  34.904  0.00  0.00    +0.048 A 
ATOM      6  C   UNL     1       0.467  -1.458  34.347  0.00  0.00    +0.116 A 
ATOM      7  N   UNL     1      -0.467  -0.497  34.669  0.00  0.00    -0.223 NA
ATOM      8  C   UNL     1      -1.507  -0.776  35.537  0.00  0.00    +0.220 A 
ATOM      9  N   UNL     1      -2.453   0.177  35.881  0.00  0.00    -0.283 N 
ATOM     36  H   UNL     1      -3.209  -0.070  36.519  0.00  0.00    +0.155 HD
ATOM     37  N   UNL     1      -1.618  -2.006  36.081  0.00  0.00    -0.214 NA
BRANCH   4   3
ATOM      1  C   UNL     1      -1.313  -6.821  36.436  0.00  0.00    +0.020 A 
ATOM      2  C   UNL     1      -1.092  -5.575  35.738  0.00  0.00    +0.013 A 
ATOM      3  C   UNL     1      -0.947  -4.325  36.474  0.00  0.00    +0.019 A 
ATOM     38  C   UNL     1      -1.031  -4.371  37.926  0.00  0.00    +0.120 A 
ATOM     39  N   UNL     1      -1.246  -5.585  38.570  0.00  0.00    -0.263 NA
ATOM     40  C   UNL     1      -1.389  -6.794  37.873  0.00  0.00    +0.111 A 
ENDBRANCH   4   3
ENDBRANCH  10   9
BRANCH  12  13
ATOM     13  N   UNL     1      -1.116   4.937  36.439  0.00  0.00    -0.281 N 
ATOM     14  C   UNL     1      -1.741   6.075  36.922  0.00  0.00    +0.248 C 
ATOM     30  O   UNL     1      -2.856   6.446  36.588  0.00  0.00    -0.270 OA
ATOM     31  H   UNL     1      -0.122   4.849  36.646  0.00  0.00    +0.155 HD
BRANCH  14  15
ATOM     15  C   UNL     1      -1.016   6.933  37.908  0.00  0.00    +0.037 A 
ATOM     16  C   UNL     1      -1.698   7.486  39.081  0.00  0.00    +0.013 A 
ATOM     17  C   UNL     1      -0.980   8.325  40.007  0.00  0.00    +0.005 A 
ATOM     18  C   UNL     1       0.432   8.614  39.765  0.00  0.00    -0.033 A 
ATOM     28  C   UNL     1       1.086   8.048  38.596  0.00  0.00    +0.005 A 
ATOM     29  C   UNL     1       0.384   7.226  37.686  0.00  0.00    +0.013 A 
BRANCH  18  19
ATOM     19  C   UNL     1       1.271   9.516  40.689  0.00  0.00    +0.119 C 
BRANCH  19  20
ATOM     20  N   UNL     1       2.249   8.844  41.596  0.00  0.00    -0.302 NA
ATOM     21  C   UNL     1       2.395   9.582  42.930  0.00  0.00    +0.066 C 
ATOM     22  C   UNL     1       3.404   8.853  43.876  0.00  0.00    -0.064 C 
ATOM     23  N   UNL     1       4.758   8.728  43.174  0.00  0.00    +0.379 N 
ATOM     24  C   UNL     1       5.725   8.095  44.083  0.00  0.00    -0.096 C 
ATOM     25  H   UNL     1       5.122   9.759  42.957  0.00  0.00    -0.082 HD
ATOM     26  C   UNL     1       4.621   7.998  41.846  0.00  0.00    -0.064 C 
ATOM     27  C   UNL     1       3.594   8.714  40.925  0.00  0.00    +0.066 C 
ENDBRANCH  19  20
ENDBRANCH  18  19
ENDBRANCH  14  15
ENDBRANCH  12  13
TORSDOF 6
ENDMDL
MODEL 3
REMARK VINA RESULT:      -8.5      1.782      1.989
REMARK  Name = C:\Users\Docking\Desktop\test protocol\1iep_ligandH.pdb
REMARK  8 active torsions:
REMARK  status: ('A' for Active; 'I' for Inactive)
REMARK    1  A    between atoms: _5  and  _11
REMARK    2  A    between atoms: _19  and  _21
REMARK    3  A    between atoms: _22  and  _66
REMARK    4  A    between atoms: _27  and  _30
REMARK    5  A    between atoms: _32  and  _33
REMARK    6  A    between atoms: _38  and  _43
REMARK    7  A    between atoms: _43  and  _46
REMARK    8  A    between atoms: _53  and  _55
REMARK                            x       y       z     vdW  Elec       q    Type
REMARK                         _______ _______ _______ _____ _____    ______ ____
ROOT
ATOM     10  C   UNL     1      -2.148   1.277  35.282  0.00  0.00    +0.038 A 
ATOM     11  C   UNL     1      -1.495   2.247  36.086  0.00  0.00    +0.047 A 
ATOM     12  C   UNL     1      -1.288   3.604  35.607  0.00  0.00    +0.035 A 
ATOM     32  C   UNL     1      -1.761   3.941  34.305  0.00  0.00    +0.024 A 
ATOM     33  C   UNL     1      -2.426   2.968  33.475  0.00  0.00    +0.007 A 
ATOM     34  C   UNL     1      -2.631   1.626  33.941  0.00  0.00    -0.029 A 
ATOM     35  C   UNL     1      -3.344   0.622  33.006  0.00  0.00    +0.045 C 
ENDROOT
BRANCH  10   9
ATOM      4  C   UNL     1      -0.787  -3.301  35.766  0.00  0.00    +0.077 A 
ATOM      5  C   UNL     1       0.348  -3.116  34.908  0.00  0.00    +0.048 A 
ATOM      6  C   UNL     1       0.542  -1.829  34.357  0.00  0.00    +0.116 A 
ATOM      7  N   UNL     1      -0.339  -0.811  34.649  0.00  0.00    -0.223 NA
ATOM      8  C   UNL     1      -1.425  -1.024  35.479  0.00  0.00    +0.220 A 
ATOM      9  N   UNL     1      -2.320  -0.012  35.792  0.00  0.00    -0.283 N 
ATOM     36  H   UNL     1      -3.112  -0.211  36.402  0.00  0.00    +0.155 HD
ATOM     37  N   UNL     1      -1.633  -2.243  36.016  0.00  0.00    -0.214 NA
BRANCH   4   3
ATOM      1  C   UNL     1      -1.429  -7.105  36.408  0.00  0.00    +0.020 A 
ATOM      2  C   UNL     1      -1.094  -5.878  35.724  0.00  0.00    +0.013 A 
ATOM      3  C   UNL     1      -1.124  -4.601  36.426  0.00  0.00    +0.019 A 
ATOM     38  C   UNL     1      -1.499  -4.601  37.832  0.00  0.00    +0.120 A 
ATOM     39  N   UNL     1      -1.817  -5.799  38.465  0.00  0.00    -0.263 NA
ATOM     40  C   UNL     1      -1.794  -7.033  37.799  0.00  0.00    +0.111 A 
ENDBRANCH   4   3
ENDBRANCH  10   9
BRANCH  12  13
ATOM     13  N   UNL     1      -0.625   4.629  36.374  0.00  0.00    -0.281 N 
ATOM     14  C   UNL     1       0.651   5.137  36.193  0.00  0.00    +0.248 C 
ATOM     30  O   UNL     1       1.500   4.634  35.471  0.00  0.00    -0.270 OA
ATOM     31  H   UNL     1      -1.161   5.029  37.144  0.00  0.00    +0.155 HD
BRANCH  14  15
ATOM     15  C   UNL     1       1.047   6.376  36.930  0.00  0.00    +0.037 A 
ATOM     16  C   UNL     1       1.917   6.313  38.108  0.00  0.00    +0.013 A 
ATOM     17  C   UNL     1       2.269   7.521  38.811  0.00  0.00    +0.005 A 
ATOM     18  C   UNL     1       1.752   8.803  38.337  0.00  0.00    -0.033 A 
ATOM     28  C   UNL     1       0.895   8.836  37.163  0.00  0.00    +0.005 A 
ATOM     29  C   UNL     1       0.547   7.654  36.472  0.00  0.00    +0.013 A 
BRANCH  18  19
ATOM     19  C   UNL     1       2.059  10.139  39.038  0.00  0.00    +0.119 C 
BRANCH  19  20
ATOM     20  N   UNL     1       0.946  10.786  39.795  0.00  0.00    -0.302 NA
ATOM     21  C   UNL     1       0.599  12.169  39.236  0.00  0.00    +0.066 C 
ATOM     22  C   UNL     1      -0.582  12.822  40.025  0.00  0.00    -0.064 C 
ATOM     23  N   UNL     1      -0.213  12.913  41.506  0.00  0.00    +0.379 N 
ATOM     24  C   UNL     1      -1.298  13.579  42.242  0.00  0.00    -0.096 C 
ATOM     25  H   UNL     1       0.695  13.554  41.589  0.00  0.00    -0.082 HD
ATOM     26  C   UNL     1       0.136  11.543  42.069  0.00  0.00    -0.064 C 
ATOM     27  C   UNL     1       1.291  10.891  41.260  0.00  0.00    +0.066 C 
ENDBRANCH  19  20
ENDBRANCH  18  19
ENDBRANCH  14  15
ENDBRANCH  12  13
TORSDOF 6
ENDMDL
MODEL 4
REMARK VINA RESULT:      -8.5      4.485     12.619
REMARK  Name = C:\Users\Docking\Desktop\test protocol\1iep_ligandH.pdb
REMARK  8 active torsions:
REMARK  status: ('A' for Active; 'I' for Inactive)
REMARK    1  A    between atoms: _5  and  _11
REMARK    2  A    between atoms: _19  and  _21
REMARK    3  A    between atoms: _22  and  _66
REMARK    4  A    between atoms: _27  and  _30
REMARK    5  A    between atoms: _32  and  _33
REMARK    6  A    between atoms: _38  and  _43
REMARK    7  A    between atoms: _43  and  _46
REMARK    8  A    between atoms: _53  and  _55
REMARK                            x       y       z     vdW  Elec       q    Type
REMARK                         _______ _______ _______ _____ _____    ______ ____
ROOT
ATOM     10  C   UNL     1       1.096   9.121  40.806  0.00  0.00    +0.038 A 
ATOM     11  C   UNL     1       0.679   8.161  39.849  0.00  0.00    +0.047 A 
ATOM     12  C   UNL     1      -0.729   7.965  39.544  0.00  0.00    +0.035 A 
ATOM     32  C   UNL     1      -1.687   8.765  40.232  0.00  0.00    +0.024 A 
ATOM     33  C   UNL     1      -1.281   9.745  41.208  0.00  0.00    +0.007 A 
ATOM     34  C   UNL     1       0.107   9.942  41.515  0.00  0.00    -0.029 A 
ATOM     35  C   UNL     1       0.484  11.002  42.575  0.00  0.00    +0.045 C 
ENDROOT
BRANCH  10   9
ATOM      4  C   UNL     1       5.064   8.142  43.323  0.00  0.00    +0.077 A 
ATOM      5  C   UNL     1       4.351   7.286  44.226  0.00  0.00    +0.048 A 
ATOM      6  C   UNL     1       2.963   7.130  44.013  0.00  0.00    +0.116 A 
ATOM      7  N   UNL     1       2.345   7.786  42.970  0.00  0.00    -0.223 NA
ATOM      8  C   UNL     1       3.061   8.606  42.118  0.00  0.00    +0.220 A 
ATOM      9  N   UNL     1       2.462   9.269  41.059  0.00  0.00    -0.283 N 
ATOM     36  H   UNL     1       3.024   9.870  40.458  0.00  0.00    +0.155 HD
ATOM     37  N   UNL     1       4.388   8.772  42.302  0.00  0.00    -0.214 NA
BRANCH   4   3
ATOM      1  C   UNL     1       8.618   9.031  44.694  0.00  0.00    +0.020 A 
ATOM      2  C   UNL     1       7.194   8.789  44.658  0.00  0.00    +0.013 A 
ATOM      3  C   UNL     1       6.535   8.405  43.416  0.00  0.00    +0.019 A 
ATOM     38  C   UNL     1       7.352   8.273  42.219  0.00  0.00    +0.120 A 
ATOM     39  N   UNL     1       8.720   8.514  42.283  0.00  0.00    -0.263 NA
ATOM     40  C   UNL     1       9.365   8.886  43.473  0.00  0.00    +0.111 A 
ENDBRANCH   4   3
ENDBRANCH  10   9
BRANCH  12  13
ATOM     13  N   UNL     1      -1.212   7.000  38.588  0.00  0.00    -0.281 N 
ATOM     14  C   UNL     1      -1.342   7.150  37.217  0.00  0.00    +0.248 C 
ATOM     30  O   UNL     1      -1.263   8.219  36.629  0.00  0.00    -0.270 OA
ATOM     31  H   UNL     1      -1.493   6.095  38.968  0.00  0.00    +0.155 HD
BRANCH  14  15
ATOM     15  C   UNL     1      -1.614   5.942  36.380  0.00  0.00    +0.037 A 
ATOM     16  C   UNL     1      -2.918   5.735  35.745  0.00  0.00    +0.013 A 
ATOM     17  C   UNL     1      -3.159   4.553  34.957  0.00  0.00    +0.005 A 
ATOM     18  C   UNL     1      -2.092   3.568  34.799  0.00  0.00    -0.033 A 
ATOM     28  C   UNL     1      -0.807   3.800  35.435  0.00  0.00    +0.005 A 
ATOM     29  C   UNL     1      -0.567   4.958  36.209  0.00  0.00    +0.013 A 
BRANCH  18  19
ATOM     19  C   UNL     1      -2.268   2.267  33.993  0.00  0.00    +0.119 C 
BRANCH  19  20
ATOM     20  N   UNL     1      -1.337   1.140  34.302  0.00  0.00    -0.302 NA
ATOM     21  C   UNL     1      -1.068   0.265  33.075  0.00  0.00    +0.066 C 
ATOM     22  C   UNL     1      -0.075  -0.895  33.411  0.00  0.00    -0.064 C 
ATOM     23  N   UNL     1      -0.642  -1.732  34.559  0.00  0.00    +0.379 N 
ATOM     24  C   UNL     1       0.261  -2.858  34.839  0.00  0.00    -0.096 C 
ATOM     25  H   UNL     1      -1.616  -2.155  34.220  0.00  0.00    -0.082 HD
ATOM     26  C   UNL     1      -0.916  -0.868  35.783  0.00  0.00    -0.064 C 
ATOM     27  C   UNL     1      -1.880   0.299  35.431  0.00  0.00    +0.066 C 
ENDBRANCH  19  20
ENDBRANCH  18  19
ENDBRANCH  14  15
ENDBRANCH  12  13
TORSDOF 6
ENDMDL
MODEL 5
REMARK VINA RESULT:      -8.3      2.307      3.586
REMARK  Name = C:\Users\Docking\Desktop\test protocol\1iep_ligandH.pdb
REMARK  8 active torsions:
REMARK  status: ('A' for Active; 'I' for Inactive)
REMARK    1  A    between atoms: _5  and  _11
REMARK    2  A    between atoms: _19  and  _21
REMARK    3  A    between atoms: _22  and  _66
REMARK    4  A    between atoms: _27  and  _30
REMARK    5  A    between atoms: _32  and  _33
REMARK    6  A    between atoms: _38  and  _43
REMARK    7  A    between atoms: _43  and  _46
REMARK    8  A    between atoms: _53  and  _55
REMARK                            x       y       z     vdW  Elec       q    Type
REMARK                         _______ _______ _______ _____ _____    ______ ____
ROOT
ATOM     10  C   UNL     1      -1.542   1.669  33.765  0.00  0.00    +0.038 A 
ATOM     11  C   UNL     1      -1.160   2.633  34.733  0.00  0.00    +0.047 A 
ATOM     12  C   UNL     1      -2.154   3.429  35.436  0.00  0.00    +0.035 A 
ATOM     32  C   UNL     1      -3.529   3.216  35.129  0.00  0.00    +0.024 A 
ATOM     33  C   UNL     1      -3.936   2.242  34.148  0.00  0.00    +0.007 A 
ATOM     34  C   UNL     1      -2.960   1.455  33.450  0.00  0.00    -0.029 A 
ATOM     35  C   UNL     1      -3.453   0.429  32.402  0.00  0.00    +0.045 C 
ENDROOT
BRANCH  10   9
ATOM      4  C   UNL     1       1.276  -2.196  33.368  0.00  0.00    +0.077 A 
ATOM      5  C   UNL     1       0.737  -2.784  34.561  0.00  0.00    +0.048 A 
ATOM      6  C   UNL     1      -0.258  -2.057  35.251  0.00  0.00    +0.116 A 
ATOM      7  N   UNL     1      -0.677  -0.833  34.774  0.00  0.00    -0.223 NA
ATOM      8  C   UNL     1      -0.135  -0.293  33.622  0.00  0.00    +0.220 A 
ATOM      9  N   UNL     1      -0.546   0.932  33.121  0.00  0.00    -0.283 N 
ATOM     36  H   UNL     1      -0.117   1.299  32.272  0.00  0.00    +0.155 HD
ATOM     37  N   UNL     1       0.818  -0.968  32.946  0.00  0.00    -0.214 NA
BRANCH   4   3
ATOM      1  C   UNL     1       3.149  -4.642  30.959  0.00  0.00    +0.020 A 
ATOM      2  C   UNL     1       2.096  -4.057  31.756  0.00  0.00    +0.013 A 
ATOM      3  C   UNL     1       2.332  -2.844  32.528  0.00  0.00    +0.019 A 
ATOM     38  C   UNL     1       3.655  -2.242  32.471  0.00  0.00    +0.120 A 
ATOM     39  N   UNL     1       4.651  -2.829  31.696  0.00  0.00    -0.263 NA
ATOM     40  C   UNL     1       4.436  -3.998  30.950  0.00  0.00    +0.111 A 
ENDBRANCH   4   3
ENDBRANCH  10   9
BRANCH  12  13
ATOM     13  N   UNL     1      -1.824   4.428  36.422  0.00  0.00    -0.281 N 
ATOM     14  C   UNL     1      -1.484   5.754  36.211  0.00  0.00    +0.248 C 
ATOM     30  O   UNL     1      -1.201   6.230  35.121  0.00  0.00    -0.270 OA
ATOM     31  H   UNL     1      -1.845   4.120  37.394  0.00  0.00    +0.155 HD
BRANCH  14  15
ATOM     15  C   UNL     1      -1.436   6.682  37.381  0.00  0.00    +0.037 A 
ATOM     16  C   UNL     1      -0.179   7.300  37.810  0.00  0.00    +0.013 A 
ATOM     17  C   UNL     1      -0.158   8.179  38.953  0.00  0.00    +0.005 A 
ATOM     18  C   UNL     1      -1.400   8.446  39.674  0.00  0.00    -0.033 A 
ATOM     28  C   UNL     1      -2.634   7.823  39.224  0.00  0.00    +0.005 A 
ATOM     29  C   UNL     1      -2.658   6.961  38.105  0.00  0.00    +0.013 A 
BRANCH  18  19
ATOM     19  C   UNL     1      -1.467   9.353  40.917  0.00  0.00    +0.119 C 
BRANCH  19  20
ATOM     20  N   UNL     1      -0.416  10.405  41.053  0.00  0.00    -0.302 NA
ATOM     21  C   UNL     1       0.028  10.589  42.507  0.00  0.00    +0.066 C 
ATOM     22  C   UNL     1       1.144  11.677  42.628  0.00  0.00    -0.064 C 
ATOM     23  N   UNL     1       0.631  12.996  42.047  0.00  0.00    +0.379 N 
ATOM     24  C   UNL     1       1.656  14.037  42.212  0.00  0.00    -0.096 C 
ATOM     25  H   UNL     1      -0.261  13.303  42.642  0.00  0.00    -0.082 HD
ATOM     26  C   UNL     1       0.184  12.822  40.603  0.00  0.00    -0.064 C 
ATOM     27  C   UNL     1      -0.903  11.718  40.490  0.00  0.00    +0.066 C 
ENDBRANCH  19  20
ENDBRANCH  18  19
ENDBRANCH  14  15
ENDBRANCH  12  13
TORSDOF 6
ENDMDL
