MODEL 1
REMARK VINA RESULT:      -8.7      0.000      0.000
REMARK  Name = C:\Users\Docking\Desktop\test protocol\1iep_ligandH.pdb
REMARK  8 active torsions:
REMARK  status: ('A' for Active; 'I' for Inactive)
REMARK    1  A    between atoms: _5  and  _11
REMARK    2  A    between atoms: _19  and  _21
REMARK    3  A    between atoms: _22  and  _66
REMARK    4  A    between atoms: _27  and  _30
REMARK    5  A    between atoms: _32  and  _33
REMARK    6  A    between atoms: _38  and  _43
REMARK    7  A    between atoms: _43  and  _46
REMARK    8  A    between atoms: _53  and  _55
REMARK                            x       y       z     vdW  Elec       q    Type
REMARK                         _______ _______ _______ _____ _____    ______ ____
ROOT
ATOM     10  C   UNL     1      17.573  22.699  14.794  0.00  0.00    +0.038 A 
ATOM     11  C   UNL     1      16.326  22.977  15.411  0.00  0.00    +0.047 A 
ATOM     12  C   UNL     1      15.082  22.468  14.856  0.00  0.00    +0.035 A 
ATOM     32  C   UNL     1      15.144  21.676  13.672  0.00  0.00    +0.024 A 
ATOM     33  C   UNL     1      16.402  21.384  13.032  0.00  0.00    +0.007 A 
ATOM     34  C   UNL     1      17.633  21.886  13.573  0.00  0.00    -0.029 A 
ATOM     35  C   UNL     1      18.952  21.547  12.840  0.00  0.00    +0.045 C 
ENDROOT
BRANCH  10   9
ATOM      4  C   UNL     1      20.633  26.292  15.666  0.00  0.00    +0.077 A 
ATOM      5  C   UNL     1      19.861  27.217  14.886  0.00  0.00    +0.048 A 
ATOM      6  C   UNL     1      18.688  26.726  14.272  0.00  0.00    +0.116 A 
ATOM      7  N   UNL     1      18.322  25.407  14.432  0.00  0.00    -0.223 NA
ATOM      8  C   UNL     1      19.090  24.541  15.189  0.00  0.00    +0.220 A 
ATOM      9  N   UNL     1      18.737  23.213  15.369  0.00  0.00    -0.283 N 
ATOM     36  H   UNL     1      19.334  22.604  15.929  0.00  0.00    +0.155 HD
ATOM     37  N   UNL     1      20.216  24.985  15.785  0.00  0.00    -0.214 NA
BRANCH   4   3
ATOM      1  C   UNL     1      24.234  27.607  16.443  0.00  0.00    +0.020 A 
ATOM      2  C   UNL     1      23.037  27.270  15.708  0.00  0.00    +0.013 A 
ATOM      3  C   UNL     1      21.896  26.660  16.380  0.00  0.00    +0.019 A 
ATOM     38  C   UNL     1      22.000  26.404  17.808  0.00  0.00    +0.120 A 
ATOM     39  N   UNL     1      23.165  26.738  18.490  0.00  0.00    -0.263 NA
ATOM     40  C   UNL     1      24.270  27.323  17.854  0.00  0.00    +0.111 A 
ENDBRANCH   4   3
ENDBRANCH  10   9
BRANCH  12  13
ATOM     13  N   UNL     1      13.786  22.724  15.434  0.00  0.00    -0.281 N 
ATOM     14  C   UNL     1      13.148  22.018  16.441  0.00  0.00    +0.248 C 
ATOM     30  O   UNL     1      13.506  20.925  16.853  0.00  0.00    -0.270 OA
ATOM     31  H   UNL     1      13.277  23.523  15.055  0.00  0.00    +0.155 HD
BRANCH  14  15
ATOM     15  C   UNL     1      11.927  22.605  17.073  0.00  0.00    +0.037 A 
ATOM     16  C   UNL     1      10.601  22.025  16.847  0.00  0.00    +0.013 A 
ATOM     17  C   UNL     1       9.438  22.621  17.454  0.00  0.00    +0.005 A 
ATOM     18  C   UNL     1       9.596  23.805  18.295  0.00  0.00    -0.033 A 
ATOM     28  C   UNL     1      10.924  24.357  18.507  0.00  0.00    +0.005 A 
ATOM     29  C   UNL     1      12.067  23.776  17.912  0.00  0.00    +0.013 A 
BRANCH  18  19
ATOM     19  C   UNL     1       8.408  24.520  18.966  0.00  0.00    +0.119 C 
BRANCH  19  20
ATOM     20  N   UNL     1       8.723  25.512  20.037  0.00  0.00    -0.302 NA
ATOM     21  C   UNL     1       7.564  25.681  21.023  0.00  0.00    +0.066 C 
ATOM     22  C   UNL     1       7.919  26.706  22.149  0.00  0.00    -0.064 C 
ATOM     23  N   UNL     1       8.291  28.047  21.515  0.00  0.00    +0.379 N 
ATOM     24  C   UNL     1       8.570  29.029  22.574  0.00  0.00    -0.096 C 
ATOM     25  H   UNL     1       7.406  28.409  20.943  0.00  0.00    -0.082 HD
ATOM     26  C   UNL     1       9.442  27.887  20.532  0.00  0.00    -0.064 C 
ATOM     27  C   UNL     1       9.090  26.845  19.434  0.00  0.00    +0.066 C 
ENDBRANCH  19  20
ENDBRANCH  18  19
ENDBRANCH  14  15
ENDBRANCH  12  13
TORSDOF 6
ENDMDL
MODEL 2
REMARK VINA RESULT:      -8.7      6.144     13.569
REMARK  Name = C:\Users\Docking\Desktop\test protocol\1iep_ligandH.pdb
REMARK  8 active torsions:
REMARK  status: ('A' for Active; 'I' for Inactive)
REMARK    1  A    between atoms: _5  and  _11
REMARK    2  A    between atoms: _19  and  _21
REMARK    3  A    between atoms: _22  and  _66
REMARK    4  A    between atoms: _27  and  _30
REMARK    5  A    between atoms: _32  and  _33
REMARK    6  A    between atoms: _38  and  _43
REMARK    7  A    between atoms: _43  and  _46
REMARK    8  A    between atoms: _53  and  _55
REMARK                            x       y       z     vdW  Elec       q    Type
REMARK                         _______ _______ _______ _____ _____    ______ ____
ROOT
ATOM     10  C   UNL     1      19.135  23.456  15.605  0.00  0.00    +0.038 A 
ATOM     11  C   UNL     1      20.348  24.191  15.581  0.00  0.00    +0.047 A 
ATOM     12  C   UNL     1      20.429  25.528  16.148  0.00  0.00    +0.035 A 
ATOM     32  C   UNL     1      19.256  26.085  16.735  0.00  0.00    +0.024 A 
ATOM     33  C   UNL     1      18.015  25.353  16.768  0.00  0.00    +0.007 A 
ATOM     34  C   UNL     1      17.928  24.034  16.207  0.00  0.00    -0.029 A 
ATOM     35  C   UNL     1      16.569  23.298  16.264  0.00  0.00    +0.045 C 
ENDROOT
BRANCH  10   9
ATOM      4  C   UNL     1      18.974  20.485  11.839  0.00  0.00    +0.077 A 
ATOM      5  C   UNL     1      18.900  21.574  10.908  0.00  0.00    +0.048 A 
ATOM      6  C   UNL     1      18.898  22.883  11.439  0.00  0.00    +0.116 A 
ATOM      7  N   UNL     1      18.967  23.077  12.802  0.00  0.00    -0.223 NA
ATOM      8  C   UNL     1      19.036  22.005  13.672  0.00  0.00    +0.220 A 
ATOM      9  N   UNL     1      19.114  22.176  15.046  0.00  0.00    -0.283 N 
ATOM     36  H   UNL     1      19.156  21.359  15.654  0.00  0.00    +0.155 HD
ATOM     37  N   UNL     1      19.038  20.745  13.190  0.00  0.00    -0.214 NA
BRANCH   4   3
ATOM      1  C   UNL     1      19.214  17.209   9.716  0.00  0.00    +0.020 A 
ATOM      2  C   UNL     1      19.209  18.613  10.056  0.00  0.00    +0.013 A 
ATOM      3  C   UNL     1      18.989  19.045  11.431  0.00  0.00    +0.019 A 
ATOM     38  C   UNL     1      18.777  18.023  12.445  0.00  0.00    +0.120 A 
ATOM     39  N   UNL     1      18.785  16.678  12.087  0.00  0.00    -0.263 NA
ATOM     40  C   UNL     1      18.994  16.251  10.767  0.00  0.00    +0.111 A 
ENDBRANCH   4   3
ENDBRANCH  10   9
BRANCH  12  13
ATOM     13  N   UNL     1      21.631  26.325  16.146  0.00  0.00    -0.281 N 
ATOM     14  C   UNL     1      22.566  26.459  17.159  0.00  0.00    +0.248 C 
ATOM     30  O   UNL     1      22.399  26.079  18.308  0.00  0.00    -0.270 OA
ATOM     31  H   UNL     1      21.815  26.854  15.293  0.00  0.00    +0.155 HD
BRANCH  14  15
ATOM     15  C   UNL     1      23.869  27.125  16.856  0.00  0.00    +0.037 A 
ATOM     16  C   UNL     1      24.303  27.352  15.475  0.00  0.00    +0.013 A 
ATOM     17  C   UNL     1      25.573  27.981  15.210  0.00  0.00    +0.005 A 
ATOM     18  C   UNL     1      26.417  28.390  16.330  0.00  0.00    -0.033 A 
ATOM     28  C   UNL     1      25.960  28.158  17.690  0.00  0.00    +0.005 A 
ATOM     29  C   UNL     1      24.716  27.540  17.953  0.00  0.00    +0.013 A 
BRANCH  18  19
ATOM     19  C   UNL     1      27.796  29.049  16.140  0.00  0.00    +0.119 C 
BRANCH  19  20
ATOM     20  N   UNL     1      28.924  28.166  15.718  0.00  0.00    -0.302 NA
ATOM     21  C   UNL     1      29.298  28.375  14.248  0.00  0.00    +0.066 C 
ATOM     22  C   UNL     1      30.494  27.460  13.830  0.00  0.00    -0.064 C 
ATOM     23  N   UNL     1      30.131  25.997  14.093  0.00  0.00    +0.379 N 
ATOM     24  C   UNL     1      31.231  25.130  13.647  0.00  0.00    -0.096 C 
ATOM     25  H   UNL     1      29.236  25.755  13.474  0.00  0.00    -0.082 HD
ATOM     26  C   UNL     1      29.755  25.781  15.552  0.00  0.00    -0.064 C 
ATOM     27  C   UNL     1      28.584  26.717  15.966  0.00  0.00    +0.066 C 
ENDBRANCH  19  20
ENDBRANCH  18  19
ENDBRANCH  14  15
ENDBRANCH  12  13
TORSDOF 6
ENDMDL
MODEL 3
REMARK VINA RESULT:      -8.6      5.247     10.429
REMARK  Name = C:\Users\Docking\Desktop\test protocol\1iep_ligandH.pdb
REMARK  8 active torsions:
REMARK  status: ('A' for Active; 'I' for Inactive)
REMARK    1  A    between atoms: _5  and  _11
REMARK    2  A    between atoms: _19  and  _21
REMARK    3  A    between atoms: _22  and  _66
REMARK    4  A    between atoms: _27  and  _30
REMARK    5  A    between atoms: _32  and  _33
REMARK    6  A    between atoms: _38  and  _43
REMARK    7  A    between atoms: _43  and  _46
REMARK    8  A    between atoms: _53  and  _55
REMARK                            x       y       z     vdW  Elec       q    Type
REMARK                         _______ _______ _______ _____ _____    ______ ____
ROOT
ATOM     10  C   UNL     1      10.458  25.516  20.043  0.00  0.00    +0.038 A 
ATOM     11  C   UNL     1       9.839  26.764  19.775  0.00  0.00    +0.047 A 
ATOM     12  C   UNL     1       8.823  27.306  20.664  0.00  0.00    +0.035 A 
ATOM     32  C   UNL     1       8.463  26.551  21.818  0.00  0.00    +0.024 A 
ATOM     33  C   UNL     1       9.081  25.280  22.105  0.00  0.00    +0.007 A 
ATOM     34  C   UNL     1      10.082  24.740  21.230  0.00  0.00    -0.029 A 
ATOM     35  C   UNL     1      10.707  23.370  21.583  0.00  0.00    +0.045 C 
ENDROOT
BRANCH  10   9
ATOM      4  C   UNL     1      11.910  22.594  16.523  0.00  0.00    +0.077 A 
ATOM      5  C   UNL     1      10.638  21.935  16.465  0.00  0.00    +0.048 A 
ATOM      6  C   UNL     1       9.638  22.373  17.363  0.00  0.00    +0.116 A 
ATOM      7  N   UNL     1       9.903  23.395  18.248  0.00  0.00    -0.223 NA
ATOM      8  C   UNL     1      11.142  24.008  18.279  0.00  0.00    +0.220 A 
ATOM      9  N   UNL     1      11.428  25.044  19.155  0.00  0.00    -0.283 N 
ATOM     36  H   UNL     1      12.356  25.465  19.152  0.00  0.00    +0.155 HD
ATOM     37  N   UNL     1      12.114  23.607  17.433  0.00  0.00    -0.214 NA
BRANCH   4   3
ATOM      1  C   UNL     1      15.480  22.440  14.931  0.00  0.00    +0.020 A 
ATOM      2  C   UNL     1      14.398  22.810  15.815  0.00  0.00    +0.013 A 
ATOM      3  C   UNL     1      13.066  22.246  15.637  0.00  0.00    +0.019 A 
ATOM     38  C   UNL     1      12.860  21.304  14.547  0.00  0.00    +0.120 A 
ATOM     39  N   UNL     1      13.921  20.969  13.711  0.00  0.00    -0.263 NA
ATOM     40  C   UNL     1      15.207  21.506  13.872  0.00  0.00    +0.111 A 
ENDBRANCH   4   3
ENDBRANCH  10   9
BRANCH  12  13
ATOM     13  N   UNL     1       8.154  28.563  20.440  0.00  0.00    -0.281 N 
ATOM     14  C   UNL     1       8.244  29.722  21.194  0.00  0.00    +0.248 C 
ATOM     30  O   UNL     1       8.750  29.786  22.304  0.00  0.00    -0.270 OA
ATOM     31  H   UNL     1       7.540  28.604  19.626  0.00  0.00    +0.155 HD
BRANCH  14  15
ATOM     15  C   UNL     1       7.675  30.989  20.641  0.00  0.00    +0.037 A 
ATOM     16  C   UNL     1       8.448  31.833  19.726  0.00  0.00    +0.013 A 
ATOM     17  C   UNL     1       7.882  33.059  19.221  0.00  0.00    +0.005 A 
ATOM     18  C   UNL     1       6.534  33.447  19.630  0.00  0.00    -0.033 A 
ATOM     28  C   UNL     1       5.788  32.588  20.534  0.00  0.00    +0.005 A 
ATOM     29  C   UNL     1       6.339  31.387  21.032  0.00  0.00    +0.013 A 
BRANCH  18  19
ATOM     19  C   UNL     1       5.859  34.748  19.157  0.00  0.00    +0.119 C 
BRANCH  19  20
ATOM     20  N   UNL     1       5.542  35.771  20.198  0.00  0.00    -0.302 NA
ATOM     21  C   UNL     1       4.089  35.678  20.671  0.00  0.00    +0.066 C 
ATOM     22  C   UNL     1       3.781  36.741  21.776  0.00  0.00    -0.064 C 
ATOM     23  N   UNL     1       4.086  38.139  21.234  0.00  0.00    +0.379 N 
ATOM     24  C   UNL     1       3.742  39.144  22.250  0.00  0.00    -0.096 C 
ATOM     25  H   UNL     1       3.426  38.310  20.352  0.00  0.00    -0.082 HD
ATOM     26  C   UNL     1       5.528  38.239  20.759  0.00  0.00    -0.064 C 
ATOM     27  C   UNL     1       5.832  37.160  19.682  0.00  0.00    +0.066 C 
ENDBRANCH  19  20
ENDBRANCH  18  19
ENDBRANCH  14  15
ENDBRANCH  12  13
TORSDOF 6
ENDMDL
MODEL 4
REMARK VINA RESULT:      -8.6      7.672     11.908
REMARK  Name = C:\Users\Docking\Desktop\test protocol\1iep_ligandH.pdb
REMARK  8 active torsions:
REMARK  status: ('A' for Active; 'I' for Inactive)
REMARK    1  A    between atoms: _5  and  _11
REMARK    2  A    between atoms: _19  and  _21
REMARK    3  A    between atoms: _22  and  _66
REMARK    4  A    between atoms: _27  and  _30
REMARK    5  A    between atoms: _32  and  _33
REMARK    6  A    between atoms: _38  and  _43
REMARK    7  A    between atoms: _43  and  _46
REMARK    8  A    between atoms: _53  and  _55
REMARK                            x       y       z     vdW  Elec       q    Type
REMARK                         _______ _______ _______ _____ _____    ______ ____
ROOT
ATOM     10  C   UNL     1      21.923  15.888  11.761  0.00  0.00    +0.038 A 
ATOM     11  C   UNL     1      21.875  17.268  12.084  0.00  0.00    +0.047 A 
ATOM     12  C   UNL     1      20.606  17.948  12.293  0.00  0.00    +0.035 A 
ATOM     32  C   UNL     1      19.405  17.191  12.168  0.00  0.00    +0.024 A 
ATOM     33  C   UNL     1      19.436  15.788  11.839  0.00  0.00    +0.007 A 
ATOM     34  C   UNL     1      20.684  15.112  11.630  0.00  0.00    -0.029 A 
ATOM     35  C   UNL     1      20.657  13.608  11.273  0.00  0.00    +0.045 C 
ENDROOT
BRANCH  10   9
ATOM      4  C   UNL     1      25.711  14.766   9.035  0.00  0.00    +0.077 A 
ATOM      5  C   UNL     1      25.148  15.412   7.884  0.00  0.00    +0.048 A 
ATOM      6  C   UNL     1      23.879  16.014   8.034  0.00  0.00    +0.116 A 
ATOM      7  N   UNL     1      23.230  15.969   9.249  0.00  0.00    -0.223 NA
ATOM      8  C   UNL     1      23.800  15.337  10.338  0.00  0.00    +0.220 A 
ATOM      9  N   UNL     1      23.169  15.286  11.572  0.00  0.00    -0.283 N 
ATOM     36  H   UNL     1      23.619  14.804  12.349  0.00  0.00    +0.155 HD
ATOM     37  N   UNL     1      25.011  14.753  10.221  0.00  0.00    -0.214 NA
BRANCH   4   3
ATOM      1  C   UNL     1      29.488  13.957   8.420  0.00  0.00    +0.020 A 
ATOM      2  C   UNL     1      28.222  14.653   8.389  0.00  0.00    +0.013 A 
ATOM      3  C   UNL     1      27.045  14.088   9.036  0.00  0.00    +0.019 A 
ATOM     38  C   UNL     1      27.184  12.806   9.712  0.00  0.00    +0.120 A 
ATOM     39  N   UNL     1      28.415  12.158   9.724  0.00  0.00    -0.263 NA
ATOM     40  C   UNL     1      29.554  12.692   9.103  0.00  0.00    +0.111 A 
ENDBRANCH   4   3
ENDBRANCH  10   9
BRANCH  12  13
ATOM     13  N   UNL     1      20.495  19.350  12.615  0.00  0.00    -0.281 N 
ATOM     14  C   UNL     1      19.871  20.345  11.881  0.00  0.00    +0.248 C 
ATOM     30  O   UNL     1      19.497  20.219  10.724  0.00  0.00    -0.270 OA
ATOM     31  H   UNL     1      20.928  19.643  13.491  0.00  0.00    +0.155 HD
BRANCH  14  15
ATOM     15  C   UNL     1      19.643  21.678  12.519  0.00  0.00    +0.037 A 
ATOM     16  C   UNL     1      18.552  22.552  12.083  0.00  0.00    +0.013 A 
ATOM     17  C   UNL     1      18.365  23.840  12.703  0.00  0.00    +0.005 A 
ATOM     18  C   UNL     1      19.272  24.260  13.768  0.00  0.00    -0.033 A 
ATOM     28  C   UNL     1      20.343  23.370  14.185  0.00  0.00    +0.005 A 
ATOM     29  C   UNL     1      20.530  22.108  13.578  0.00  0.00    +0.013 A 
BRANCH  18  19
ATOM     19  C   UNL     1      19.160  25.625  14.472  0.00  0.00    +0.119 C 
BRANCH  19  20
ATOM     20  N   UNL     1      20.000  25.839  15.688  0.00  0.00    -0.302 NA
ATOM     21  C   UNL     1      19.254  25.468  16.974  0.00  0.00    +0.066 C 
ATOM     22  C   UNL     1      20.155  25.676  18.234  0.00  0.00    -0.064 C 
ATOM     23  N   UNL     1      20.631  27.129  18.284  0.00  0.00    +0.379 N 
ATOM     24  C   UNL     1      21.430  27.342  19.499  0.00  0.00    -0.096 C 
ATOM     25  H   UNL     1      19.727  27.778  18.355  0.00  0.00    -0.082 HD
ATOM     26  C   UNL     1      21.371  27.507  17.008  0.00  0.00    -0.064 C 
ATOM     27  C   UNL     1      20.477  27.268  15.760  0.00  0.00    +0.066 C 
ENDBRANCH  19  20
ENDBRANCH  18  19
ENDBRANCH  14  15
ENDBRANCH  12  13
TORSDOF 6
ENDMDL
MODEL 5
REMARK VINA RESULT:      -8.6     14.369     17.035
REMARK  Name = C:\Users\Docking\Desktop\test protocol\1iep_ligandH.pdb
REMARK  8 active torsions:
REMARK  status: ('A' for Active; 'I' for Inactive)
REMARK    1  A    between atoms: _5  and  _11
REMARK    2  A    between atoms: _19  and  _21
REMARK    3  A    between atoms: _22  and  _66
REMARK    4  A    between atoms: _27  and  _30
REMARK    5  A    between atoms: _32  and  _33
REMARK    6  A    between atoms: _38  and  _43
REMARK    7  A    between atoms: _43  and  _46
REMARK    8  A    between atoms: _53  and  _55
REMARK                            x       y       z     vdW  Elec       q    Type
REMARK                         _______ _______ _______ _____ _____    ______ ____
ROOT
ATOM     10  C   UNL     1       4.700  31.166  27.105  0.00  0.00    +0.038 A 
ATOM     11  C   UNL     1       5.027  32.083  26.073  0.00  0.00    +0.047 A 
ATOM     12  C   UNL     1       4.130  32.304  24.950  0.00  0.00    +0.035 A 
ATOM     32  C   UNL     1       2.905  31.576  24.911  0.00  0.00    +0.024 A 
ATOM     33  C   UNL     1       2.556  30.640  25.950  0.00  0.00    +0.007 A 
ATOM     34  C   UNL     1       3.439  30.416  27.059  0.00  0.00    -0.029 A 
ATOM     35  C   UNL     1       3.017  29.395  28.141  0.00  0.00    +0.045 C 
ENDROOT
BRANCH  10   9
ATOM      4  C   UNL     1       8.680  29.275  29.007  0.00  0.00    +0.077 A 
ATOM      5  C   UNL     1       8.980  28.550  27.806  0.00  0.00    +0.048 A 
ATOM      6  C   UNL     1       8.082  28.685  26.724  0.00  0.00    +0.116 A 
ATOM      7  N   UNL     1       6.969  29.489  26.846  0.00  0.00    -0.223 NA
ATOM      8  C   UNL     1       6.707  30.173  28.019  0.00  0.00    +0.220 A 
ATOM      9  N   UNL     1       5.598  30.993  28.160  0.00  0.00    -0.283 N 
ATOM     36  H   UNL     1       5.437  31.475  29.044  0.00  0.00    +0.155 HD
ATOM     37  N   UNL     1       7.550  30.059  29.066  0.00  0.00    -0.214 NA
BRANCH   4   3
ATOM      1  C   UNL     1      11.714  29.599  31.455  0.00  0.00    +0.020 A 
ATOM      2  C   UNL     1      10.932  29.655  30.241  0.00  0.00    +0.013 A 
ATOM      3  C   UNL     1       9.535  29.237  30.235  0.00  0.00    +0.019 A 
ATOM     38  C   UNL     1       8.956  28.765  31.484  0.00  0.00    +0.120 A 
ATOM     39  N   UNL     1       9.734  28.721  32.636  0.00  0.00    -0.263 NA
ATOM     40  C   UNL     1      11.079  29.118  32.654  0.00  0.00    +0.111 A 
ENDBRANCH   4   3
ENDBRANCH  10   9
BRANCH  12  13
ATOM     13  N   UNL     1       4.413  33.216  23.870  0.00  0.00    -0.281 N 
ATOM     14  C   UNL     1       4.988  32.930  22.642  0.00  0.00    +0.248 C 
ATOM     30  O   UNL     1       5.545  31.877  22.369  0.00  0.00    -0.270 OA
ATOM     31  H   UNL     1       4.158  34.191  24.029  0.00  0.00    +0.155 HD
BRANCH  14  15
ATOM     15  C   UNL     1       4.952  33.969  21.568  0.00  0.00    +0.037 A 
ATOM     16  C   UNL     1       3.989  35.072  21.610  0.00  0.00    +0.013 A 
ATOM     17  C   UNL     1       3.964  36.051  20.553  0.00  0.00    +0.005 A 
ATOM     18  C   UNL     1       4.908  35.931  19.444  0.00  0.00    -0.033 A 
ATOM     28  C   UNL     1       5.856  34.830  19.430  0.00  0.00    +0.005 A 
ATOM     29  C   UNL     1       5.882  33.868  20.464  0.00  0.00    +0.013 A 
BRANCH  18  19
ATOM     19  C   UNL     1       4.939  36.918  18.262  0.00  0.00    +0.119 C 
BRANCH  19  20
ATOM     20  N   UNL     1       4.620  38.347  18.555  0.00  0.00    -0.302 NA
ATOM     21  C   UNL     1       4.491  39.182  17.278  0.00  0.00    +0.066 C 
ATOM     22  C   UNL     1       4.135  40.669  17.603  0.00  0.00    -0.064 C 
ATOM     23  N   UNL     1       5.204  41.256  18.527  0.00  0.00    +0.379 N 
ATOM     24  C   UNL     1       4.904  42.671  18.787  0.00  0.00    -0.096 C 
ATOM     25  H   UNL     1       6.179  41.210  17.987  0.00  0.00    -0.082 HD
ATOM     26  C   UNL     1       5.341  40.431  19.798  0.00  0.00    -0.064 C 
ATOM     27  C   UNL     1       5.665  38.948  19.463  0.00  0.00    +0.066 C 
ENDBRANCH  19  20
ENDBRANCH  18  19
ENDBRANCH  14  15
ENDBRANCH  12  13
TORSDOF 6
ENDMDL
