MODEL 1
REMARK VINA RESULT:      -8.4      0.000      0.000
REMARK  Name = C:\Users\Docking\Desktop\test protocol\1iep_ligandH.pdb
REMARK  8 active torsions:
REMARK  status: ('A' for Active; 'I' for Inactive)
REMARK    1  A    between atoms: _5  and  _11
REMARK    2  A    between atoms: _19  and  _21
REMARK    3  A    between atoms: _22  and  _66
REMARK    4  A    between atoms: _27  and  _30
REMARK    5  A    between atoms: _32  and  _33
REMARK    6  A    between atoms: _38  and  _43
REMARK    7  A    between atoms: _43  and  _46
REMARK    8  A    between atoms: _53  and  _55
REMARK                            x       y       z     vdW  Elec       q    Type
REMARK                         _______ _______ _______ _____ _____    ______ ____
ROOT
ATOM     10  C   UNL     1      -2.369   0.800  35.248  0.00  0.00    +0.038 A 
ATOM     11  C   UNL     1      -1.832   1.808  36.089  0.00  0.00    +0.047 A 
ATOM     12  C   UNL     1      -1.692   3.180  35.625  0.00  0.00    +0.035 A 
ATOM     32  C   UNL     1      -2.112   3.491  34.299  0.00  0.00    +0.024 A 
ATOM     33  C   UNL     1      -2.660   2.479  33.430  0.00  0.00    +0.007 A 
ATOM     34  C   UNL     1      -2.798   1.124  33.881  0.00  0.00    -0.029 A 
ATOM     35  C   UNL     1      -3.386   0.079  32.905  0.00  0.00    +0.045 C 
ENDROOT
BRANCH  10   9
ATOM      4  C   UNL     1      -0.836  -3.732  35.628  0.00  0.00    +0.077 A 
ATOM      5  C   UNL     1       0.267  -3.495  34.741  0.00  0.00    +0.048 A 
ATOM      6  C   UNL     1       0.399  -2.196  34.203  0.00  0.00    +0.116 A 
ATOM      7  N   UNL     1      -0.508  -1.213  34.534  0.00  0.00    -0.223 NA
ATOM      8  C   UNL     1      -1.561  -1.475  35.391  0.00  0.00    +0.220 A 
ATOM      9  N   UNL     1      -2.481  -0.500  35.744  0.00  0.00    -0.283 N 
ATOM     36  H   UNL     1      -3.248  -0.735  36.374  0.00  0.00    +0.155 HD
ATOM     37  N   UNL     1      -1.711  -2.709  35.917  0.00  0.00    -0.214 NA
BRANCH   4   3
ATOM      1  C   UNL     1      -0.865  -7.557  36.443  0.00  0.00    +0.020 A 
ATOM      2  C   UNL     1      -0.572  -6.310  35.776  0.00  0.00    +0.013 A 
ATOM      3  C   UNL     1      -1.108  -5.052  36.280  0.00  0.00    +0.019 A 
ATOM     38  C   UNL     1      -1.943  -5.091  37.471  0.00  0.00    +0.120 A 
ATOM     39  N   UNL     1      -2.209  -6.307  38.092  0.00  0.00    -0.263 NA
ATOM     40  C   UNL     1      -1.700  -7.525  37.614  0.00  0.00    +0.111 A 
ENDBRANCH   4   3
ENDBRANCH  10   9
BRANCH  12  13
ATOM     13  N   UNL     1      -1.145   4.243  36.431  0.00  0.00    -0.281 N 
ATOM     14  C   UNL     1      -1.715   5.473  36.719  0.00  0.00    +0.248 C 
ATOM     30  O   UNL     1      -2.693   5.931  36.148  0.00  0.00    -0.270 OA
ATOM     31  H   UNL     1      -0.227   4.068  36.840  0.00  0.00    +0.155 HD
BRANCH  14  15
ATOM     15  C   UNL     1      -1.100   6.322  37.784  0.00  0.00    +0.037 A 
ATOM     16  C   UNL     1       0.347   6.544  37.838  0.00  0.00    +0.013 A 
ATOM     17  C   UNL     1       0.915   7.354  38.887  0.00  0.00    +0.005 A 
ATOM     18  C   UNL     1       0.035   7.948  39.890  0.00  0.00    -0.033 A 
ATOM     28  C   UNL     1      -1.398   7.715  39.809  0.00  0.00    +0.005 A 
ATOM     29  C   UNL     1      -1.958   6.922  38.784  0.00  0.00    +0.013 A 
BRANCH  18  19
ATOM     19  C   UNL     1       0.556   8.808  41.056  0.00  0.00    +0.119 C 
BRANCH  19  20
ATOM     20  N   UNL     1       0.229  10.265  41.031  0.00  0.00    -0.302 NA
ATOM     21  C   UNL     1       0.582  10.910  39.688  0.00  0.00    +0.066 C 
ATOM     22  C   UNL     1       0.212  12.429  39.671  0.00  0.00    -0.064 C 
ATOM     23  N   UNL     1       0.932  13.139  40.819  0.00  0.00    +0.379 N 
ATOM     24  C   UNL     1       0.632  14.578  40.771  0.00  0.00    -0.096 C 
ATOM     25  H   UNL     1       2.028  13.016  40.657  0.00  0.00    -0.082 HD
ATOM     26  C   UNL     1       0.589  12.502  42.158  0.00  0.00    -0.064 C 
ATOM     27  C   UNL     1       0.933  10.987  42.154  0.00  0.00    +0.066 C 
ENDBRANCH  19  20
ENDBRANCH  18  19
ENDBRANCH  14  15
ENDBRANCH  12  13
TORSDOF 6
ENDMDL
MODEL 2
REMARK VINA RESULT:      -8.2     12.997     15.488
REMARK  Name = C:\Users\Docking\Desktop\test protocol\1iep_ligandH.pdb
REMARK  8 active torsions:
REMARK  status: ('A' for Active; 'I' for Inactive)
REMARK    1  A    between atoms: _5  and  _11
REMARK    2  A    between atoms: _19  and  _21
REMARK    3  A    between atoms: _22  and  _66
REMARK    4  A    between atoms: _27  and  _30
REMARK    5  A    between atoms: _32  and  _33
REMARK    6  A    between atoms: _38  and  _43
REMARK    7  A    between atoms: _43  and  _46
REMARK    8  A    between atoms: _53  and  _55
REMARK                            x       y       z     vdW  Elec       q    Type
REMARK                         _______ _______ _______ _____ _____    ______ ____
ROOT
ATOM     10  C   UNL     1      -1.444 -12.442  36.573  0.00  0.00    +0.038 A 
ATOM     11  C   UNL     1      -1.685 -11.514  35.528  0.00  0.00    +0.047 A 
ATOM     12  C   UNL     1      -1.048 -11.663  34.228  0.00  0.00    +0.035 A 
ATOM     32  C   UNL     1      -0.173 -12.770  34.028  0.00  0.00    +0.024 A 
ATOM     33  C   UNL     1       0.084 -13.721  35.080  0.00  0.00    +0.007 A 
ATOM     34  C   UNL     1      -0.539 -13.579  36.364  0.00  0.00    -0.029 A 
ATOM     35  C   UNL     1      -0.222 -14.625  37.458  0.00  0.00    +0.045 C 
ENDROOT
BRANCH  10   9
ATOM      4  C   UNL     1      -2.619  -9.732  40.357  0.00  0.00    +0.077 A 
ATOM      5  C   UNL     1      -1.876  -8.611  39.859  0.00  0.00    +0.048 A 
ATOM      6  C   UNL     1      -1.200  -8.774  38.629  0.00  0.00    +0.116 A 
ATOM      7  N   UNL     1      -1.269  -9.975  37.956  0.00  0.00    -0.223 NA
ATOM      8  C   UNL     1      -1.993 -11.037  38.465  0.00  0.00    +0.220 A 
ATOM      9  N   UNL     1      -2.082 -12.251  37.801  0.00  0.00    -0.283 N 
ATOM     36  H   UNL     1      -2.620 -13.013  38.213  0.00  0.00    +0.155 HD
ATOM     37  N   UNL     1      -2.646 -10.907  39.638  0.00  0.00    -0.214 NA
BRANCH   4   3
ATOM      1  C   UNL     1      -5.257  -8.878  43.116  0.00  0.00    +0.020 A 
ATOM      2  C   UNL     1      -4.549  -8.857  41.857  0.00  0.00    +0.013 A 
ATOM      3  C   UNL     1      -3.389  -9.714  41.641  0.00  0.00    +0.019 A 
ATOM     38  C   UNL     1      -2.970 -10.587  42.727  0.00  0.00    +0.120 A 
ATOM     39  N   UNL     1      -3.671 -10.584  43.929  0.00  0.00    -0.263 NA
ATOM     40  C   UNL     1      -4.787  -9.763  44.149  0.00  0.00    +0.111 A 
ENDBRANCH   4   3
ENDBRANCH  10   9
BRANCH  12  13
ATOM     13  N   UNL     1      -1.249 -10.748  33.132  0.00  0.00    -0.281 N 
ATOM     14  C   UNL     1      -0.549  -9.586  32.854  0.00  0.00    +0.248 C 
ATOM     30  O   UNL     1       0.222  -9.040  33.630  0.00  0.00    -0.270 OA
ATOM     31  H   UNL     1      -1.998 -10.987  32.482  0.00  0.00    +0.155 HD
BRANCH  14  15
ATOM     15  C   UNL     1      -0.743  -8.926  31.527  0.00  0.00    +0.037 A 
ATOM     16  C   UNL     1       0.359  -8.233  30.854  0.00  0.00    +0.013 A 
ATOM     17  C   UNL     1       0.140  -7.590  29.582  0.00  0.00    +0.005 A 
ATOM     18  C   UNL     1      -1.187  -7.639  28.974  0.00  0.00    -0.033 A 
ATOM     28  C   UNL     1      -2.261  -8.338  29.661  0.00  0.00    +0.005 A 
ATOM     29  C   UNL     1      -2.051  -8.968  30.908  0.00  0.00    +0.013 A 
BRANCH  18  19
ATOM     19  C   UNL     1      -1.517  -6.963  27.630  0.00  0.00    +0.119 C 
BRANCH  19  20
ATOM     20  N   UNL     1      -2.403  -5.761  27.668  0.00  0.00    -0.302 NA
ATOM     21  C   UNL     1      -3.354  -5.711  26.470  0.00  0.00    +0.066 C 
ATOM     22  C   UNL     1      -4.288  -4.459  26.537  0.00  0.00    -0.064 C 
ATOM     23  N   UNL     1      -3.435  -3.192  26.605  0.00  0.00    +0.379 N 
ATOM     24  C   UNL     1      -4.310  -2.010  26.610  0.00  0.00    -0.096 C 
ATOM     25  H   UNL     1      -2.816  -3.151  25.678  0.00  0.00    -0.082 HD
ATOM     26  C   UNL     1      -2.484  -3.235  27.793  0.00  0.00    -0.064 C 
ATOM     27  C   UNL     1      -1.580  -4.498  27.731  0.00  0.00    +0.066 C 
ENDBRANCH  19  20
ENDBRANCH  18  19
ENDBRANCH  14  15
ENDBRANCH  12  13
TORSDOF 6
ENDMDL
MODEL 3
REMARK VINA RESULT:      -8.1      3.101     13.789
REMARK  Name = C:\Users\Docking\Desktop\test protocol\1iep_ligandH.pdb
REMARK  8 active torsions:
REMARK  status: ('A' for Active; 'I' for Inactive)
REMARK    1  A    between atoms: _5  and  _11
REMARK    2  A    between atoms: _19  and  _21
REMARK    3  A    between atoms: _22  and  _66
REMARK    4  A    between atoms: _27  and  _30
REMARK    5  A    between atoms: _32  and  _33
REMARK    6  A    between atoms: _38  and  _43
REMARK    7  A    between atoms: _43  and  _46
REMARK    8  A    between atoms: _53  and  _55
REMARK                            x       y       z     vdW  Elec       q    Type
REMARK                         _______ _______ _______ _____ _____    ______ ____
ROOT
ATOM     10  C   UNL     1      -2.198   1.083  34.664  0.00  0.00    +0.038 A 
ATOM     11  C   UNL     1      -2.281  -0.136  35.383  0.00  0.00    +0.047 A 
ATOM     12  C   UNL     1      -2.071  -1.415  34.722  0.00  0.00    +0.035 A 
ATOM     32  C   UNL     1      -1.776  -1.415  33.328  0.00  0.00    +0.024 A 
ATOM     33  C   UNL     1      -1.689  -0.184  32.581  0.00  0.00    +0.007 A 
ATOM     34  C   UNL     1      -1.898   1.080  33.227  0.00  0.00    -0.029 A 
ATOM     35  C   UNL     1      -1.799   2.367  32.375  0.00  0.00    +0.045 C 
ENDROOT
BRANCH  10   9
ATOM      4  C   UNL     1      -0.622   5.171  36.624  0.00  0.00    +0.077 A 
ATOM      5  C   UNL     1       0.740   4.881  36.278  0.00  0.00    +0.048 A 
ATOM      6  C   UNL     1       0.993   3.666  35.603  0.00  0.00    +0.116 A 
ATOM      7  N   UNL     1      -0.046   2.813  35.300  0.00  0.00    -0.223 NA
ATOM      8  C   UNL     1      -1.347   3.122  35.649  0.00  0.00    +0.220 A 
ATOM      9  N   UNL     1      -2.409   2.283  35.348  0.00  0.00    -0.283 N 
ATOM     36  H   UNL     1      -3.353   2.543  35.630  0.00  0.00    +0.155 HD
ATOM     37  N   UNL     1      -1.615   4.276  36.296  0.00  0.00    -0.214 NA
BRANCH   4   3
ATOM      1  C   UNL     1      -0.658   8.318  38.948  0.00  0.00    +0.020 A 
ATOM      2  C   UNL     1      -0.197   7.118  38.287  0.00  0.00    +0.013 A 
ATOM      3  C   UNL     1      -1.050   6.417  37.336  0.00  0.00    +0.019 A 
ATOM     38  C   UNL     1      -2.374   6.960  37.073  0.00  0.00    +0.120 A 
ATOM     39  N   UNL     1      -2.791   8.116  37.725  0.00  0.00    -0.263 NA
ATOM     40  C   UNL     1      -1.980   8.799  38.643  0.00  0.00    +0.111 A 
ENDBRANCH   4   3
ENDBRANCH  10   9
BRANCH  12  13
ATOM     13  N   UNL     1      -2.150  -2.686  35.399  0.00  0.00    -0.281 N 
ATOM     14  C   UNL     1      -1.124  -3.392  36.007  0.00  0.00    +0.248 C 
ATOM     30  O   UNL     1       0.063  -3.138  35.874  0.00  0.00    -0.270 OA
ATOM     31  H   UNL     1      -3.073  -3.117  35.434  0.00  0.00    +0.155 HD
BRANCH  14  15
ATOM     15  C   UNL     1      -1.468  -4.558  36.876  0.00  0.00    +0.037 A 
ATOM     16  C   UNL     1      -0.881  -4.711  38.210  0.00  0.00    +0.013 A 
ATOM     17  C   UNL     1      -1.216  -5.854  39.021  0.00  0.00    +0.005 A 
ATOM     18  C   UNL     1      -2.145  -6.854  38.501  0.00  0.00    -0.033 A 
ATOM     28  C   UNL     1      -2.716  -6.676  37.176  0.00  0.00    +0.005 A 
ATOM     29  C   UNL     1      -2.390  -5.557  36.378  0.00  0.00    +0.013 A 
BRANCH  18  19
ATOM     19  C   UNL     1      -2.543  -8.116  39.288  0.00  0.00    +0.119 C 
BRANCH  19  20
ATOM     20  N   UNL     1      -1.800  -9.375  38.983  0.00  0.00    -0.302 NA
ATOM     21  C   UNL     1      -2.536 -10.242  37.958  0.00  0.00    +0.066 C 
ATOM     22  C   UNL     1      -1.734 -11.545  37.633  0.00  0.00    -0.064 C 
ATOM     23  N   UNL     1      -1.489 -12.325  38.926  0.00  0.00    +0.379 N 
ATOM     24  C   UNL     1      -0.786 -13.578  38.616  0.00  0.00    -0.096 C 
ATOM     25  H   UNL     1      -2.483 -12.591  39.353  0.00  0.00    -0.082 HD
ATOM     26  C   UNL     1      -0.760 -11.469  39.952  0.00  0.00    -0.064 C 
ATOM     27  C   UNL     1      -1.551 -10.164  40.245  0.00  0.00    +0.066 C 
ENDBRANCH  19  20
ENDBRANCH  18  19
ENDBRANCH  14  15
ENDBRANCH  12  13
TORSDOF 6
ENDMDL
MODEL 4
REMARK VINA RESULT:      -7.9     23.683     27.972
REMARK  Name = C:\Users\Docking\Desktop\test protocol\1iep_ligandH.pdb
REMARK  8 active torsions:
REMARK  status: ('A' for Active; 'I' for Inactive)
REMARK    1  A    between atoms: _5  and  _11
REMARK    2  A    between atoms: _19  and  _21
REMARK    3  A    between atoms: _22  and  _66
REMARK    4  A    between atoms: _27  and  _30
REMARK    5  A    between atoms: _32  and  _33
REMARK    6  A    between atoms: _38  and  _43
REMARK    7  A    between atoms: _43  and  _46
REMARK    8  A    between atoms: _53  and  _55
REMARK                            x       y       z     vdW  Elec       q    Type
REMARK                         _______ _______ _______ _____ _____    ______ ____
ROOT
ATOM     10  C   UNL     1      -0.814   4.910  63.985  0.00  0.00    +0.038 A 
ATOM     11  C   UNL     1      -1.667   4.202  63.100  0.00  0.00    +0.047 A 
ATOM     12  C   UNL     1      -2.635   3.238  63.598  0.00  0.00    +0.035 A 
ATOM     32  C   UNL     1      -2.711   3.022  65.005  0.00  0.00    +0.024 A 
ATOM     33  C   UNL     1      -1.851   3.732  65.919  0.00  0.00    +0.007 A 
ATOM     34  C   UNL     1      -0.892   4.682  65.433  0.00  0.00    -0.029 A 
ATOM     35  C   UNL     1       0.009   5.410  66.458  0.00  0.00    +0.045 C 
ENDROOT
BRANCH  10   9
ATOM      4  C   UNL     1       3.579   6.115  62.474  0.00  0.00    +0.077 A 
ATOM      5  C   UNL     1       4.110   4.822  62.800  0.00  0.00    +0.048 A 
ATOM      6  C   UNL     1       3.221   3.878  63.360  0.00  0.00    +0.116 A 
ATOM      7  N   UNL     1       1.901   4.212  63.575  0.00  0.00    -0.223 NA
ATOM      8  C   UNL     1       1.422   5.469  63.252  0.00  0.00    +0.220 A 
ATOM      9  N   UNL     1       0.097   5.824  63.452  0.00  0.00    -0.283 N 
ATOM     36  H   UNL     1      -0.215   6.763  63.207  0.00  0.00    +0.155 HD
ATOM     37  N   UNL     1       2.252   6.388  62.716  0.00  0.00    -0.214 NA
BRANCH   4   3
ATOM      1  C   UNL     1       4.670   9.235  60.383  0.00  0.00    +0.020 A 
ATOM      2  C   UNL     1       3.842   8.188  60.935  0.00  0.00    +0.013 A 
ATOM      3  C   UNL     1       4.393   7.218  61.873  0.00  0.00    +0.019 A 
ATOM     38  C   UNL     1       5.798   7.336  62.234  0.00  0.00    +0.120 A 
ATOM     39  N   UNL     1       6.572   8.354  61.685  0.00  0.00    -0.263 NA
ATOM     40  C   UNL     1       6.052   9.292  60.781  0.00  0.00    +0.111 A 
ENDBRANCH   4   3
ENDBRANCH  10   9
BRANCH  12  13
ATOM     13  N   UNL     1      -3.522   2.484  62.747  0.00  0.00    -0.281 N 
ATOM     14  C   UNL     1      -3.623   1.107  62.630  0.00  0.00    +0.248 C 
ATOM     30  O   UNL     1      -2.813   0.313  63.086  0.00  0.00    -0.270 OA
ATOM     31  H   UNL     1      -4.151   3.031  62.160  0.00  0.00    +0.155 HD
BRANCH  14  15
ATOM     15  C   UNL     1      -4.783   0.529  61.886  0.00  0.00    +0.037 A 
ATOM     16  C   UNL     1      -5.492  -0.653  62.384  0.00  0.00    +0.013 A 
ATOM     17  C   UNL     1      -6.598  -1.200  61.638  0.00  0.00    +0.005 A 
ATOM     18  C   UNL     1      -7.002  -0.565  60.387  0.00  0.00    -0.033 A 
ATOM     28  C   UNL     1      -6.285   0.610  59.919  0.00  0.00    +0.005 A 
ATOM     29  C   UNL     1      -5.200   1.149  60.647  0.00  0.00    +0.013 A 
BRANCH  18  19
ATOM     19  C   UNL     1      -8.157  -1.093  59.515  0.00  0.00    +0.119 C 
BRANCH  19  20
ATOM     20  N   UNL     1      -8.747  -2.413  59.889  0.00  0.00    -0.302 NA
ATOM     21  C   UNL     1      -9.003  -3.295  58.663  0.00  0.00    +0.066 C 
ATOM     22  C   UNL     1      -9.598  -4.681  59.074  0.00  0.00    -0.064 C 
ATOM     23  N   UNL     1     -10.890  -4.464  59.865  0.00  0.00    +0.379 N 
ATOM     24  C   UNL     1     -11.483  -5.766  60.202  0.00  0.00    -0.096 C 
ATOM     25  H   UNL     1     -11.607  -3.928  59.200  0.00  0.00    -0.082 HD
ATOM     26  C   UNL     1     -10.645  -3.586  61.083  0.00  0.00    -0.064 C 
ATOM     27  C   UNL     1     -10.025  -2.222  60.667  0.00  0.00    +0.066 C 
ENDBRANCH  19  20
ENDBRANCH  18  19
ENDBRANCH  14  15
ENDBRANCH  12  13
TORSDOF 6
ENDMDL
MODEL 5
REMARK VINA RESULT:      -7.7      2.273     12.666
REMARK  Name = C:\Users\Docking\Desktop\test protocol\1iep_ligandH.pdb
REMARK  8 active torsions:
REMARK  status: ('A' for Active; 'I' for Inactive)
REMARK    1  A    between atoms: _5  and  _11
REMARK    2  A    between atoms: _19  and  _21
REMARK    3  A    between atoms: _22  and  _66
REMARK    4  A    between atoms: _27  and  _30
REMARK    5  A    between atoms: _32  and  _33
REMARK    6  A    between atoms: _38  and  _43
REMARK    7  A    between atoms: _43  and  _46
REMARK    8  A    between atoms: _53  and  _55
REMARK                            x       y       z     vdW  Elec       q    Type
REMARK                         _______ _______ _______ _____ _____    ______ ____
ROOT
ATOM     10  C   UNL     1      -2.255   4.485  35.544  0.00  0.00    +0.038 A 
ATOM     11  C   UNL     1      -1.970   3.097  35.614  0.00  0.00    +0.047 A 
ATOM     12  C   UNL     1      -1.986   2.265  34.421  0.00  0.00    +0.035 A 
ATOM     32  C   UNL     1      -2.294   2.880  33.172  0.00  0.00    +0.024 A 
ATOM     33  C   UNL     1      -2.587   4.288  33.083  0.00  0.00    +0.007 A 
ATOM     34  C   UNL     1      -2.576   5.114  34.257  0.00  0.00    -0.029 A 
ATOM     35  C   UNL     1      -2.904   6.617  34.103  0.00  0.00    +0.045 C 
ENDROOT
BRANCH  10   9
ATOM      4  C   UNL     1      -0.018   7.335  38.691  0.00  0.00    +0.077 A 
ATOM      5  C   UNL     1       1.205   7.303  37.941  0.00  0.00    +0.048 A 
ATOM      6  C   UNL     1       1.218   6.535  36.755  0.00  0.00    +0.116 A 
ATOM      7  N   UNL     1       0.087   5.855  36.358  0.00  0.00    -0.223 NA
ATOM      8  C   UNL     1      -1.075   5.906  37.105  0.00  0.00    +0.220 A 
ATOM      9  N   UNL     1      -2.226   5.236  36.721  0.00  0.00    -0.283 N 
ATOM     36  H   UNL     1      -3.061   5.293  37.303  0.00  0.00    +0.155 HD
ATOM     37  N   UNL     1      -1.113   6.631  38.243  0.00  0.00    -0.214 NA
BRANCH   4   3
ATOM      1  C   UNL     1      -1.604   9.261  41.704  0.00  0.00    +0.020 A 
ATOM      2  C   UNL     1      -1.493   8.519  40.468  0.00  0.00    +0.013 A 
ATOM      3  C   UNL     1      -0.190   8.105  39.964  0.00  0.00    +0.019 A 
ATOM     38  C   UNL     1       0.990   8.458  40.739  0.00  0.00    +0.120 A 
ATOM     39  N   UNL     1       0.851   9.173  41.925  0.00  0.00    -0.263 NA
ATOM     40  C   UNL     1      -0.397   9.579  42.419  0.00  0.00    +0.111 A 
ENDBRANCH   4   3
ENDBRANCH  10   9
BRANCH  12  13
ATOM     13  N   UNL     1      -1.712   0.849  34.431  0.00  0.00    -0.281 N 
ATOM     14  C   UNL     1      -0.479   0.220  34.393  0.00  0.00    +0.248 C 
ATOM     30  O   UNL     1       0.575   0.779  34.127  0.00  0.00    -0.270 OA
ATOM     31  H   UNL     1      -2.527   0.237  34.472  0.00  0.00    +0.155 HD
BRANCH  14  15
ATOM     15  C   UNL     1      -0.407  -1.246  34.677  0.00  0.00    +0.037 A 
ATOM     16  C   UNL     1       0.546  -2.110  33.975  0.00  0.00    +0.013 A 
ATOM     17  C   UNL     1       0.583  -3.523  34.256  0.00  0.00    +0.005 A 
ATOM     18  C   UNL     1      -0.336  -4.081  35.245  0.00  0.00    -0.033 A 
ATOM     28  C   UNL     1      -1.267  -3.200  35.930  0.00  0.00    +0.005 A 
ATOM     29  C   UNL     1      -1.307  -1.815  35.657  0.00  0.00    +0.013 A 
BRANCH  18  19
ATOM     19  C   UNL     1      -0.381  -5.581  35.592  0.00  0.00    +0.119 C 
BRANCH  19  20
ATOM     20  N   UNL     1      -0.939  -5.958  36.926  0.00  0.00    -0.302 NA
ATOM     21  C   UNL     1       0.100  -6.660  37.805  0.00  0.00    +0.066 C 
ATOM     22  C   UNL     1      -0.494  -7.027  39.204  0.00  0.00    -0.064 C 
ATOM     23  N   UNL     1      -1.729  -7.909  39.016  0.00  0.00    +0.379 N 
ATOM     24  C   UNL     1      -2.255  -8.303  40.330  0.00  0.00    -0.096 C 
ATOM     25  H   UNL     1      -1.405  -8.836  38.489  0.00  0.00    -0.082 HD
ATOM     26  C   UNL     1      -2.766  -7.219  38.140  0.00  0.00    -0.064 C 
ATOM     27  C   UNL     1      -2.157  -6.833  36.763  0.00  0.00    +0.066 C 
ENDBRANCH  19  20
ENDBRANCH  18  19
ENDBRANCH  14  15
ENDBRANCH  12  13
TORSDOF 6
ENDMDL
