MODEL 1
REMARK VINA RESULT:      -8.5      0.000      0.000
REMARK  Name = C:\Users\Docking\Desktop\test protocol\1iep_ligandH.pdb
REMARK  8 active torsions:
REMARK  status: ('A' for Active; 'I' for Inactive)
REMARK    1  A    between atoms: _5  and  _11
REMARK    2  A    between atoms: _19  and  _21
REMARK    3  A    between atoms: _22  and  _66
REMARK    4  A    between atoms: _27  and  _30
REMARK    5  A    between atoms: _32  and  _33
REMARK    6  A    between atoms: _38  and  _43
REMARK    7  A    between atoms: _43  and  _46
REMARK    8  A    between atoms: _53  and  _55
REMARK                            x       y       z     vdW  Elec       q    Type
REMARK                         _______ _______ _______ _____ _____    ______ ____
ROOT
ATOM     10  C   UNL     1      16.522  33.892  15.352  0.00  0.00    +0.038 A 
ATOM     11  C   UNL     1      16.494  35.293  15.570  0.00  0.00    +0.047 A 
ATOM     12  C   UNL     1      15.972  35.852  16.807  0.00  0.00    +0.035 A 
ATOM     32  C   UNL     1      15.490  34.954  17.804  0.00  0.00    +0.024 A 
ATOM     33  C   UNL     1      15.511  33.527  17.599  0.00  0.00    +0.007 A 
ATOM     34  C   UNL     1      16.022  32.970  16.380  0.00  0.00    -0.029 A 
ATOM     35  C   UNL     1      16.014  31.433  16.212  0.00  0.00    +0.045 C 
ENDROOT
BRANCH  10   9
ATOM      4  C   UNL     1      15.968  32.029  10.964  0.00  0.00    +0.077 A 
ATOM      5  C   UNL     1      14.541  31.989  11.096  0.00  0.00    +0.048 A 
ATOM      6  C   UNL     1      13.989  32.450  12.313  0.00  0.00    +0.116 A 
ATOM      7  N   UNL     1      14.813  32.915  13.314  0.00  0.00    -0.223 NA
ATOM      8  C   UNL     1      16.186  32.939  13.155  0.00  0.00    +0.220 A 
ATOM      9  N   UNL     1      17.034  33.409  14.146  0.00  0.00    -0.283 N 
ATOM     36  H   UNL     1      18.042  33.403  13.992  0.00  0.00    +0.155 HD
ATOM     37  N   UNL     1      16.738  32.502  12.003  0.00  0.00    -0.214 NA
BRANCH   4   3
ATOM      1  C   UNL     1      17.765  29.806   8.293  0.00  0.00    +0.020 A 
ATOM      2  C   UNL     1      17.058  30.188   9.494  0.00  0.00    +0.013 A 
ATOM      3  C   UNL     1      16.701  31.580   9.737  0.00  0.00    +0.019 A 
ATOM     38  C   UNL     1      17.075  32.569   8.738  0.00  0.00    +0.120 A 
ATOM     39  N   UNL     1      17.757  32.172   7.592  0.00  0.00    -0.263 NA
ATOM     40  C   UNL     1      18.108  30.836   7.347  0.00  0.00    +0.111 A 
ENDBRANCH   4   3
ENDBRANCH  10   9
BRANCH  12  13
ATOM     13  N   UNL     1      15.910  37.267  17.080  0.00  0.00    -0.281 N 
ATOM     14  C   UNL     1      16.885  38.067  17.653  0.00  0.00    +0.248 C 
ATOM     30  O   UNL     1      17.884  37.643  18.216  0.00  0.00    -0.270 OA
ATOM     31  H   UNL     1      15.042  37.735  16.820  0.00  0.00    +0.155 HD
BRANCH  14  15
ATOM     15  C   UNL     1      16.720  39.552  17.606  0.00  0.00    +0.037 A 
ATOM     16  C   UNL     1      16.804  40.286  16.342  0.00  0.00    +0.013 A 
ATOM     17  C   UNL     1      16.658  41.720  16.327  0.00  0.00    +0.005 A 
ATOM     18  C   UNL     1      16.425  42.429  17.583  0.00  0.00    -0.033 A 
ATOM     28  C   UNL     1      16.341  41.675  18.823  0.00  0.00    +0.005 A 
ATOM     29  C   UNL     1      16.485  40.269  18.841  0.00  0.00    +0.013 A 
BRANCH  18  19
ATOM     19  C   UNL     1      16.278  43.960  17.664  0.00  0.00    +0.119 C 
BRANCH  19  20
ATOM     20  N   UNL     1      15.081  44.568  17.011  0.00  0.00    -0.302 NA
ATOM     21  C   UNL     1      13.810  43.753  17.269  0.00  0.00    +0.066 C 
ATOM     22  C   UNL     1      12.563  44.416  16.597  0.00  0.00    -0.064 C 
ATOM     23  N   UNL     1      12.816  44.565  15.096  0.00  0.00    +0.379 N 
ATOM     24  C   UNL     1      11.623  45.134  14.452  0.00  0.00    -0.096 C 
ATOM     25  H   UNL     1      12.972  43.544  14.676  0.00  0.00    -0.082 HD
ATOM     26  C   UNL     1      14.079  45.371  14.830  0.00  0.00    -0.064 C 
ATOM     27  C   UNL     1      15.307  44.721  15.527  0.00  0.00    +0.066 C 
ENDBRANCH  19  20
ENDBRANCH  18  19
ENDBRANCH  14  15
ENDBRANCH  12  13
TORSDOF 6
ENDMDL
MODEL 2
REMARK VINA RESULT:      -8.0      3.139      5.850
REMARK  Name = C:\Users\Docking\Desktop\test protocol\1iep_ligandH.pdb
REMARK  8 active torsions:
REMARK  status: ('A' for Active; 'I' for Inactive)
REMARK    1  A    between atoms: _5  and  _11
REMARK    2  A    between atoms: _19  and  _21
REMARK    3  A    between atoms: _22  and  _66
REMARK    4  A    between atoms: _27  and  _30
REMARK    5  A    between atoms: _32  and  _33
REMARK    6  A    between atoms: _38  and  _43
REMARK    7  A    between atoms: _43  and  _46
REMARK    8  A    between atoms: _53  and  _55
REMARK                            x       y       z     vdW  Elec       q    Type
REMARK                         _______ _______ _______ _____ _____    ______ ____
ROOT
ATOM     10  C   UNL     1      15.738  31.364  10.795  0.00  0.00    +0.038 A 
ATOM     11  C   UNL     1      15.508  32.378  11.761  0.00  0.00    +0.047 A 
ATOM     12  C   UNL     1      16.260  32.415  13.006  0.00  0.00    +0.035 A 
ATOM     32  C   UNL     1      17.239  31.404  13.234  0.00  0.00    +0.024 A 
ATOM     33  C   UNL     1      17.484  30.366  12.264  0.00  0.00    +0.007 A 
ATOM     34  C   UNL     1      16.745  30.323  11.035  0.00  0.00    -0.029 A 
ATOM     35  C   UNL     1      17.045  29.183  10.034  0.00  0.00    +0.045 C 
ENDROOT
BRANCH  10   9
ATOM      4  C   UNL     1      15.115  32.553   6.187  0.00  0.00    +0.077 A 
ATOM      5  C   UNL     1      16.380  33.229   6.129  0.00  0.00    +0.048 A 
ATOM      6  C   UNL     1      17.156  33.254   7.309  0.00  0.00    +0.116 A 
ATOM      7  N   UNL     1      16.694  32.645   8.455  0.00  0.00    -0.223 NA
ATOM      8  C   UNL     1      15.469  32.003   8.477  0.00  0.00    +0.220 A 
ATOM      9  N   UNL     1      14.988  31.377   9.617  0.00  0.00    -0.283 N 
ATOM     36  H   UNL     1      14.076  30.921   9.595  0.00  0.00    +0.155 HD
ATOM     37  N   UNL     1      14.708  31.966   7.364  0.00  0.00    -0.214 NA
BRANCH   4   3
ATOM      1  C   UNL     1      13.008  31.120   3.219  0.00  0.00    +0.020 A 
ATOM      2  C   UNL     1      13.919  31.177   4.339  0.00  0.00    +0.013 A 
ATOM      3  C   UNL     1      14.182  32.438   5.022  0.00  0.00    +0.019 A 
ATOM     38  C   UNL     1      13.502  33.631   4.542  0.00  0.00    +0.120 A 
ATOM     39  N   UNL     1      12.632  33.546   3.460  0.00  0.00    -0.263 NA
ATOM     40  C   UNL     1      12.372  32.339   2.795  0.00  0.00    +0.111 A 
ENDBRANCH   4   3
ENDBRANCH  10   9
BRANCH  12  13
ATOM     13  N   UNL     1      16.065  33.414  14.026  0.00  0.00    -0.281 N 
ATOM     14  C   UNL     1      15.751  33.218  15.361  0.00  0.00    +0.248 C 
ATOM     30  O   UNL     1      15.379  32.155  15.835  0.00  0.00    -0.270 OA
ATOM     31  H   UNL     1      16.171  34.384  13.729  0.00  0.00    +0.155 HD
BRANCH  14  15
ATOM     15  C   UNL     1      15.852  34.374  16.304  0.00  0.00    +0.037 A 
ATOM     16  C   UNL     1      15.441  34.250  17.705  0.00  0.00    +0.013 A 
ATOM     17  C   UNL     1      15.533  35.386  18.588  0.00  0.00    +0.005 A 
ATOM     18  C   UNL     1      16.040  36.655  18.073  0.00  0.00    -0.033 A 
ATOM     28  C   UNL     1      16.446  36.748  16.681  0.00  0.00    +0.005 A 
ATOM     29  C   UNL     1      16.357  35.638  15.811  0.00  0.00    +0.013 A 
BRANCH  18  19
ATOM     19  C   UNL     1      16.153  37.924  18.939  0.00  0.00    +0.119 C 
BRANCH  19  20
ATOM     20  N   UNL     1      16.648  39.165  18.272  0.00  0.00    -0.302 NA
ATOM     21  C   UNL     1      17.633  39.937  19.154  0.00  0.00    +0.066 C 
ATOM     22  C   UNL     1      18.158  41.221  18.432  0.00  0.00    -0.064 C 
ATOM     23  N   UNL     1      16.972  42.105  18.042  0.00  0.00    +0.379 N 
ATOM     24  C   UNL     1      17.466  43.339  17.415  0.00  0.00    -0.096 C 
ATOM     25  H   UNL     1      16.441  42.390  18.980  0.00  0.00    -0.082 HD
ATOM     26  C   UNL     1      15.986  41.343  17.167  0.00  0.00    -0.064 C 
ATOM     27  C   UNL     1      15.493  40.054  17.882  0.00  0.00    +0.066 C 
ENDBRANCH  19  20
ENDBRANCH  18  19
ENDBRANCH  14  15
ENDBRANCH  12  13
TORSDOF 6
ENDMDL
MODEL 3
REMARK VINA RESULT:      -8.0      1.642      2.080
REMARK  Name = C:\Users\Docking\Desktop\test protocol\1iep_ligandH.pdb
REMARK  8 active torsions:
REMARK  status: ('A' for Active; 'I' for Inactive)
REMARK    1  A    between atoms: _5  and  _11
REMARK    2  A    between atoms: _19  and  _21
REMARK    3  A    between atoms: _22  and  _66
REMARK    4  A    between atoms: _27  and  _30
REMARK    5  A    between atoms: _32  and  _33
REMARK    6  A    between atoms: _38  and  _43
REMARK    7  A    between atoms: _43  and  _46
REMARK    8  A    between atoms: _53  and  _55
REMARK                            x       y       z     vdW  Elec       q    Type
REMARK                         _______ _______ _______ _____ _____    ______ ____
ROOT
ATOM     10  C   UNL     1      16.077  34.014  15.381  0.00  0.00    +0.038 A 
ATOM     11  C   UNL     1      16.312  35.403  15.540  0.00  0.00    +0.047 A 
ATOM     12  C   UNL     1      16.095  36.062  16.819  0.00  0.00    +0.035 A 
ATOM     32  C   UNL     1      15.641  35.273  17.917  0.00  0.00    +0.024 A 
ATOM     33  C   UNL     1      15.396  33.860  17.772  0.00  0.00    +0.007 A 
ATOM     34  C   UNL     1      15.606  33.205  16.512  0.00  0.00    -0.029 A 
ATOM     35  C   UNL     1      15.321  31.689  16.414  0.00  0.00    +0.045 C 
ENDROOT
BRANCH  10   9
ATOM      4  C   UNL     1      18.811  31.587  12.271  0.00  0.00    +0.077 A 
ATOM      5  C   UNL     1      19.894  31.490  13.207  0.00  0.00    +0.048 A 
ATOM      6  C   UNL     1      19.710  32.085  14.476  0.00  0.00    +0.116 A 
ATOM      7  N   UNL     1      18.527  32.725  14.775  0.00  0.00    -0.223 NA
ATOM      8  C   UNL     1      17.503  32.801  13.849  0.00  0.00    +0.220 A 
ATOM      9  N   UNL     1      16.302  33.433  14.131  0.00  0.00    -0.283 N 
ATOM     36  H   UNL     1      15.574  33.475  13.418  0.00  0.00    +0.155 HD
ATOM     37  N   UNL     1      17.655  32.243  12.630  0.00  0.00    -0.214 NA
BRANCH   4   3
ATOM      1  C   UNL     1      20.063  29.955   8.944  0.00  0.00    +0.020 A 
ATOM      2  C   UNL     1      20.077  30.506  10.279  0.00  0.00    +0.013 A 
ATOM      3  C   UNL     1      18.853  31.006  10.892  0.00  0.00    +0.019 A 
ATOM     38  C   UNL     1      17.621  30.933  10.120  0.00  0.00    +0.120 A 
ATOM     39  N   UNL     1      17.638  30.398   8.836  0.00  0.00    -0.263 NA
ATOM     40  C   UNL     1      18.810  29.915   8.236  0.00  0.00    +0.111 A 
ENDBRANCH   4   3
ENDBRANCH  10   9
BRANCH  12  13
ATOM     13  N   UNL     1      16.309  37.471  17.039  0.00  0.00    -0.281 N 
ATOM     14  C   UNL     1      17.515  38.152  17.084  0.00  0.00    +0.248 C 
ATOM     30  O   UNL     1      18.610  37.615  17.155  0.00  0.00    -0.270 OA
ATOM     31  H   UNL     1      15.471  38.034  17.177  0.00  0.00    +0.155 HD
BRANCH  14  15
ATOM     15  C   UNL     1      17.501  39.646  17.061  0.00  0.00    +0.037 A 
ATOM     16  C   UNL     1      18.527  40.405  16.342  0.00  0.00    +0.013 A 
ATOM     17  C   UNL     1      18.500  41.846  16.350  0.00  0.00    +0.005 A 
ATOM     18  C   UNL     1      17.440  42.538  17.080  0.00  0.00    -0.033 A 
ATOM     28  C   UNL     1      16.432  41.761  17.780  0.00  0.00    +0.005 A 
ATOM     29  C   UNL     1      16.456  40.348  17.775  0.00  0.00    +0.013 A 
BRANCH  18  19
ATOM     19  C   UNL     1      17.345  44.073  17.160  0.00  0.00    +0.119 C 
BRANCH  19  20
ATOM     20  N   UNL     1      16.208  44.727  16.446  0.00  0.00    -0.302 NA
ATOM     21  C   UNL     1      14.902  44.637  17.242  0.00  0.00    +0.066 C 
ATOM     22  C   UNL     1      13.728  45.345  16.491  0.00  0.00    -0.064 C 
ATOM     23  N   UNL     1      13.562  44.719  15.105  0.00  0.00    +0.379 N 
ATOM     24  C   UNL     1      12.421  45.342  14.418  0.00  0.00    -0.096 C 
ATOM     25  H   UNL     1      13.322  43.639  15.248  0.00  0.00    -0.082 HD
ATOM     26  C   UNL     1      14.856  44.801  14.308  0.00  0.00    -0.064 C 
ATOM     27  C   UNL     1      16.023  44.121  15.077  0.00  0.00    +0.066 C 
ENDBRANCH  19  20
ENDBRANCH  18  19
ENDBRANCH  14  15
ENDBRANCH  12  13
TORSDOF 6
ENDMDL
MODEL 4
REMARK VINA RESULT:      -8.0      6.087     13.876
REMARK  Name = C:\Users\Docking\Desktop\test protocol\1iep_ligandH.pdb
REMARK  8 active torsions:
REMARK  status: ('A' for Active; 'I' for Inactive)
REMARK    1  A    between atoms: _5  and  _11
REMARK    2  A    between atoms: _19  and  _21
REMARK    3  A    between atoms: _22  and  _66
REMARK    4  A    between atoms: _27  and  _30
REMARK    5  A    between atoms: _32  and  _33
REMARK    6  A    between atoms: _38  and  _43
REMARK    7  A    between atoms: _43  and  _46
REMARK    8  A    between atoms: _53  and  _55
REMARK                            x       y       z     vdW  Elec       q    Type
REMARK                         _______ _______ _______ _____ _____    ______ ____
ROOT
ATOM     10  C   UNL     1      16.910  32.882  13.255  0.00  0.00    +0.038 A 
ATOM     11  C   UNL     1      17.644  31.775  13.751  0.00  0.00    +0.047 A 
ATOM     12  C   UNL     1      17.603  30.484  13.081  0.00  0.00    +0.035 A 
ATOM     32  C   UNL     1      16.806  30.358  11.906  0.00  0.00    +0.024 A 
ATOM     33  C   UNL     1      16.053  31.473  11.389  0.00  0.00    +0.007 A 
ATOM     34  C   UNL     1      16.087  32.748  12.047  0.00  0.00    -0.029 A 
ATOM     35  C   UNL     1      15.254  33.907  11.451  0.00  0.00    +0.045 C 
ENDROOT
BRANCH  10   9
ATOM      4  C   UNL     1      16.023  35.655  17.071  0.00  0.00    +0.077 A 
ATOM      5  C   UNL     1      15.327  34.601  17.750  0.00  0.00    +0.048 A 
ATOM      6  C   UNL     1      15.214  33.362  17.080  0.00  0.00    +0.116 A 
ATOM      7  N   UNL     1      15.759  33.201  15.825  0.00  0.00    -0.223 NA
ATOM      8  C   UNL     1      16.422  34.240  15.197  0.00  0.00    +0.220 A 
ATOM      9  N   UNL     1      16.985  34.098  13.938  0.00  0.00    -0.283 N 
ATOM     36  H   UNL     1      17.460  34.891  13.506  0.00  0.00    +0.155 HD
ATOM     37  N   UNL     1      16.543  35.433  15.816  0.00  0.00    -0.214 NA
BRANCH   4   3
ATOM      1  C   UNL     1      16.112  38.690  19.538  0.00  0.00    +0.020 A 
ATOM      2  C   UNL     1      15.893  37.356  19.028  0.00  0.00    +0.013 A 
ATOM      3  C   UNL     1      16.229  37.021  17.650  0.00  0.00    +0.019 A 
ATOM     38  C   UNL     1      16.791  38.066  16.808  0.00  0.00    +0.120 A 
ATOM     39  N   UNL     1      16.989  39.342  17.326  0.00  0.00    -0.263 NA
ATOM     40  C   UNL     1      16.667  39.677  18.650  0.00  0.00    +0.111 A 
ENDBRANCH   4   3
ENDBRANCH  10   9
BRANCH  12  13
ATOM     13  N   UNL     1      18.321  29.322  13.543  0.00  0.00    -0.281 N 
ATOM     14  C   UNL     1      19.566  29.275  14.148  0.00  0.00    +0.248 C 
ATOM     30  O   UNL     1      20.349  30.212  14.191  0.00  0.00    -0.270 OA
ATOM     31  H   UNL     1      17.854  28.425  13.407  0.00  0.00    +0.155 HD
BRANCH  14  15
ATOM     15  C   UNL     1      20.011  27.998  14.784  0.00  0.00    +0.037 A 
ATOM     16  C   UNL     1      20.920  27.998  15.934  0.00  0.00    +0.013 A 
ATOM     17  C   UNL     1      21.348  26.752  16.518  0.00  0.00    +0.005 A 
ATOM     18  C   UNL     1      20.865  25.494  15.954  0.00  0.00    -0.033 A 
ATOM     28  C   UNL     1      19.960  25.522  14.817  0.00  0.00    +0.005 A 
ATOM     29  C   UNL     1      19.539  26.742  14.241  0.00  0.00    +0.013 A 
BRANCH  18  19
ATOM     19  C   UNL     1      21.285  24.116  16.501  0.00  0.00    +0.119 C 
BRANCH  19  20
ATOM     20  N   UNL     1      21.510  24.004  17.973  0.00  0.00    -0.302 NA
ATOM     21  C   UNL     1      22.269  22.726  18.342  0.00  0.00    +0.066 C 
ATOM     22  C   UNL     1      22.515  22.636  19.884  0.00  0.00    -0.064 C 
ATOM     23  N   UNL     1      21.173  22.701  20.616  0.00  0.00    +0.379 N 
ATOM     24  C   UNL     1      21.397  22.558  22.062  0.00  0.00    -0.096 C 
ATOM     25  H   UNL     1      20.563  21.831  20.281  0.00  0.00    -0.082 HD
ATOM     26  C   UNL     1      20.411  23.968  20.252  0.00  0.00    -0.064 C 
ATOM     27  C   UNL     1      20.198  24.062  18.716  0.00  0.00    +0.066 C 
ENDBRANCH  19  20
ENDBRANCH  18  19
ENDBRANCH  14  15
ENDBRANCH  12  13
TORSDOF 6
ENDMDL
MODEL 5
REMARK VINA RESULT:      -7.9      5.395      7.810
REMARK  Name = C:\Users\Docking\Desktop\test protocol\1iep_ligandH.pdb
REMARK  8 active torsions:
REMARK  status: ('A' for Active; 'I' for Inactive)
REMARK    1  A    between atoms: _5  and  _11
REMARK    2  A    between atoms: _19  and  _21
REMARK    3  A    between atoms: _22  and  _66
REMARK    4  A    between atoms: _27  and  _30
REMARK    5  A    between atoms: _32  and  _33
REMARK    6  A    between atoms: _38  and  _43
REMARK    7  A    between atoms: _43  and  _46
REMARK    8  A    between atoms: _53  and  _55
REMARK                            x       y       z     vdW  Elec       q    Type
REMARK                         _______ _______ _______ _____ _____    ______ ____
ROOT
ATOM     10  C   UNL     1      18.288  29.093  13.697  0.00  0.00    +0.038 A 
ATOM     11  C   UNL     1      17.884  30.211  14.470  0.00  0.00    +0.047 A 
ATOM     12  C   UNL     1      17.647  31.507  13.854  0.00  0.00    +0.035 A 
ATOM     32  C   UNL     1      17.830  31.628  12.446  0.00  0.00    +0.024 A 
ATOM     33  C   UNL     1      18.242  30.503  11.644  0.00  0.00    +0.007 A 
ATOM     34  C   UNL     1      18.478  29.222  12.247  0.00  0.00    -0.029 A 
ATOM     35  C   UNL     1      18.925  28.052  11.340  0.00  0.00    +0.045 C 
ENDROOT
BRANCH  10   9
ATOM      4  C   UNL     1      21.102  25.946  15.981  0.00  0.00    +0.077 A 
ATOM      5  C   UNL     1      22.252  26.795  15.858  0.00  0.00    +0.048 A 
ATOM      6  C   UNL     1      22.078  28.030  15.193  0.00  0.00    +0.116 A 
ATOM      7  N   UNL     1      20.842  28.380  14.694  0.00  0.00    -0.223 NA
ATOM      8  C   UNL     1      19.754  27.537  14.828  0.00  0.00    +0.220 A 
ATOM      9  N   UNL     1      18.501  27.872  14.340  0.00  0.00    -0.283 N 
ATOM     36  H   UNL     1      17.725  27.219  14.453  0.00  0.00    +0.155 HD
ATOM     37  N   UNL     1      19.894  26.351  15.457  0.00  0.00    -0.214 NA
BRANCH   4   3
ATOM      1  C   UNL     1      20.007  22.693  17.858  0.00  0.00    +0.020 A 
ATOM      2  C   UNL     1      19.931  23.984  17.213  0.00  0.00    +0.013 A 
ATOM      3  C   UNL     1      21.124  24.612  16.659  0.00  0.00    +0.019 A 
ATOM     38  C   UNL     1      22.389  23.901  16.775  0.00  0.00    +0.120 A 
ATOM     39  N   UNL     1      22.432  22.660  17.403  0.00  0.00    -0.263 NA
ATOM     40  C   UNL     1      21.291  22.047  17.941  0.00  0.00    +0.111 A 
ENDBRANCH   4   3
ENDBRANCH  10   9
BRANCH  12  13
ATOM     13  N   UNL     1      17.243  32.679  14.590  0.00  0.00    -0.281 N 
ATOM     14  C   UNL     1      16.356  32.755  15.651  0.00  0.00    +0.248 C 
ATOM     30  O   UNL     1      15.608  31.851  15.993  0.00  0.00    -0.270 OA
ATOM     31  H   UNL     1      17.662  33.560  14.292  0.00  0.00    +0.155 HD
BRANCH  14  15
ATOM     15  C   UNL     1      16.278  34.023  16.438  0.00  0.00    +0.037 A 
ATOM     16  C   UNL     1      14.994  34.547  16.910  0.00  0.00    +0.013 A 
ATOM     17  C   UNL     1      14.945  35.781  17.652  0.00  0.00    +0.005 A 
ATOM     18  C   UNL     1      16.186  36.501  17.928  0.00  0.00    -0.033 A 
ATOM     28  C   UNL     1      17.447  35.956  17.452  0.00  0.00    +0.005 A 
ATOM     29  C   UNL     1      17.499  34.747  16.724  0.00  0.00    +0.013 A 
BRANCH  18  19
ATOM     19  C   UNL     1      16.226  37.836  18.694  0.00  0.00    +0.119 C 
BRANCH  19  20
ATOM     20  N   UNL     1      15.904  39.076  17.926  0.00  0.00    -0.302 NA
ATOM     21  C   UNL     1      17.117  39.605  17.156  0.00  0.00    +0.066 C 
ATOM     22  C   UNL     1      16.757  40.889  16.340  0.00  0.00    -0.064 C 
ATOM     23  N   UNL     1      16.210  41.957  17.289  0.00  0.00    +0.379 N 
ATOM     24  C   UNL     1      15.924  43.185  16.533  0.00  0.00    -0.096 C 
ATOM     25  H   UNL     1      17.009  42.193  18.029  0.00  0.00    -0.082 HD
ATOM     26  C   UNL     1      15.005  41.437  18.060  0.00  0.00    -0.064 C 
ATOM     27  C   UNL     1      15.366  40.145  18.844  0.00  0.00    +0.066 C 
ENDBRANCH  19  20
ENDBRANCH  18  19
ENDBRANCH  14  15
ENDBRANCH  12  13
TORSDOF 6
ENDMDL
