MODEL 1
REMARK VINA RESULT:      -8.6      0.000      0.000
REMARK  Name = C:\Users\Docking\Desktop\test protocol\1iep_ligandH.pdb
REMARK  8 active torsions:
REMARK  status: ('A' for Active; 'I' for Inactive)
REMARK    1  A    between atoms: _5  and  _11
REMARK    2  A    between atoms: _19  and  _21
REMARK    3  A    between atoms: _22  and  _66
REMARK    4  A    between atoms: _27  and  _30
REMARK    5  A    between atoms: _32  and  _33
REMARK    6  A    between atoms: _38  and  _43
REMARK    7  A    between atoms: _43  and  _46
REMARK    8  A    between atoms: _53  and  _55
REMARK                            x       y       z     vdW  Elec       q    Type
REMARK                         _______ _______ _______ _____ _____    ______ ____
ROOT
ATOM     10  C   UNL     1      19.845  30.062  22.137  0.00  0.00    +0.038 A 
ATOM     11  C   UNL     1      20.380  30.215  20.833  0.00  0.00    +0.047 A 
ATOM     12  C   UNL     1      19.771  31.121  19.871  0.00  0.00    +0.035 A 
ATOM     32  C   UNL     1      18.619  31.858  20.273  0.00  0.00    +0.024 A 
ATOM     33  C   UNL     1      18.061  31.713  21.594  0.00  0.00    +0.007 A 
ATOM     34  C   UNL     1      18.656  30.819  22.546  0.00  0.00    -0.029 A 
ATOM     35  C   UNL     1      18.011  30.700  23.947  0.00  0.00    +0.045 C 
ENDROOT
BRANCH  10   9
ATOM      4  C   UNL     1      19.994  25.955  24.617  0.00  0.00    +0.077 A 
ATOM      5  C   UNL     1      18.706  25.548  24.134  0.00  0.00    +0.048 A 
ATOM      6  C   UNL     1      18.035  26.427  23.254  0.00  0.00    +0.116 A 
ATOM      7  N   UNL     1      18.618  27.622  22.892  0.00  0.00    -0.223 NA
ATOM      8  C   UNL     1      19.861  27.985  23.377  0.00  0.00    +0.220 A 
ATOM      9  N   UNL     1      20.469  29.178  23.020  0.00  0.00    -0.283 N 
ATOM     36  H   UNL     1      21.384  29.413  23.405  0.00  0.00    +0.155 HD
ATOM     37  N   UNL     1      20.521  27.164  24.220  0.00  0.00    -0.214 NA
BRANCH   4   3
ATOM      1  C   UNL     1      21.113  23.603  27.535  0.00  0.00    +0.020 A 
ATOM      2  C   UNL     1      20.264  24.381  26.663  0.00  0.00    +0.013 A 
ATOM      3  C   UNL     1      20.828  25.133  25.550  0.00  0.00    +0.019 A 
ATOM     38  C   UNL     1      22.267  25.076  25.343  0.00  0.00    +0.120 A 
ATOM     39  N   UNL     1      23.061  24.319  26.200  0.00  0.00    -0.263 NA
ATOM     40  C   UNL     1      22.529  23.592  27.275  0.00  0.00    +0.111 A 
ENDBRANCH   4   3
ENDBRANCH  10   9
BRANCH  12  13
ATOM     13  N   UNL     1      20.265  31.312  18.530  0.00  0.00    -0.281 N 
ATOM     14  C   UNL     1      20.824  32.456  17.983  0.00  0.00    +0.248 C 
ATOM     30  O   UNL     1      20.788  33.560  18.505  0.00  0.00    -0.270 OA
ATOM     31  H   UNL     1      20.195  30.507  17.908  0.00  0.00    +0.155 HD
BRANCH  14  15
ATOM     15  C   UNL     1      21.510  32.362  16.658  0.00  0.00    +0.037 A 
ATOM     16  C   UNL     1      21.002  31.485  15.600  0.00  0.00    +0.013 A 
ATOM     17  C   UNL     1      21.692  31.400  14.338  0.00  0.00    +0.005 A 
ATOM     18  C   UNL     1      22.898  32.197  14.126  0.00  0.00    -0.033 A 
ATOM     28  C   UNL     1      23.376  33.064  15.190  0.00  0.00    +0.005 A 
ATOM     29  C   UNL     1      22.703  33.148  16.430  0.00  0.00    +0.013 A 
BRANCH  18  19
ATOM     19  C   UNL     1      23.710  32.154  12.818  0.00  0.00    +0.119 C 
BRANCH  19  20
ATOM     20  N   UNL     1      23.002  32.538  11.560  0.00  0.00    -0.302 NA
ATOM     21  C   UNL     1      23.968  32.696  10.383  0.00  0.00    +0.066 C 
ATOM     22  C   UNL     1      23.208  33.076   9.070  0.00  0.00    -0.064 C 
ATOM     23  N   UNL     1      22.415  34.364   9.297  0.00  0.00    +0.379 N 
ATOM     24  C   UNL     1      21.746  34.755   8.048  0.00  0.00    -0.096 C 
ATOM     25  H   UNL     1      23.143  35.167   9.557  0.00  0.00    -0.082 HD
ATOM     26  C   UNL     1      21.454  34.216  10.468  0.00  0.00    -0.064 C 
ATOM     27  C   UNL     1      22.216  33.810  11.761  0.00  0.00    +0.066 C 
ENDBRANCH  19  20
ENDBRANCH  18  19
ENDBRANCH  14  15
ENDBRANCH  12  13
TORSDOF 6
ENDMDL
MODEL 2
REMARK VINA RESULT:      -8.4      2.160      2.736
REMARK  Name = C:\Users\Docking\Desktop\test protocol\1iep_ligandH.pdb
REMARK  8 active torsions:
REMARK  status: ('A' for Active; 'I' for Inactive)
REMARK    1  A    between atoms: _5  and  _11
REMARK    2  A    between atoms: _19  and  _21
REMARK    3  A    between atoms: _22  and  _66
REMARK    4  A    between atoms: _27  and  _30
REMARK    5  A    between atoms: _32  and  _33
REMARK    6  A    between atoms: _38  and  _43
REMARK    7  A    between atoms: _43  and  _46
REMARK    8  A    between atoms: _53  and  _55
REMARK                            x       y       z     vdW  Elec       q    Type
REMARK                         _______ _______ _______ _____ _____    ______ ____
ROOT
ATOM     10  C   UNL     1      19.864  30.078  22.420  0.00  0.00    +0.038 A 
ATOM     11  C   UNL     1      20.197  30.072  21.041  0.00  0.00    +0.047 A 
ATOM     12  C   UNL     1      19.574  31.002  20.113  0.00  0.00    +0.035 A 
ATOM     32  C   UNL     1      18.616  31.927  20.623  0.00  0.00    +0.024 A 
ATOM     33  C   UNL     1      18.265  31.945  22.021  0.00  0.00    +0.007 A 
ATOM     34  C   UNL     1      18.875  31.029  22.942  0.00  0.00    -0.029 A 
ATOM     35  C   UNL     1      18.455  31.090  24.429  0.00  0.00    +0.045 C 
ENDROOT
BRANCH  10   9
ATOM      4  C   UNL     1      19.999  25.909  24.796  0.00  0.00    +0.077 A 
ATOM      5  C   UNL     1      18.694  25.535  24.333  0.00  0.00    +0.048 A 
ATOM      6  C   UNL     1      18.019  26.446  23.490  0.00  0.00    +0.116 A 
ATOM      7  N   UNL     1      18.614  27.640  23.143  0.00  0.00    -0.223 NA
ATOM      8  C   UNL     1      19.873  27.971  23.609  0.00  0.00    +0.220 A 
ATOM      9  N   UNL     1      20.493  29.163  23.267  0.00  0.00    -0.283 N 
ATOM     36  H   UNL     1      21.420  29.373  23.637  0.00  0.00    +0.155 HD
ATOM     37  N   UNL     1      20.538  27.119  24.416  0.00  0.00    -0.214 NA
BRANCH   4   3
ATOM      1  C   UNL     1      21.133  23.395  27.569  0.00  0.00    +0.020 A 
ATOM      2  C   UNL     1      20.277  24.204  26.734  0.00  0.00    +0.013 A 
ATOM      3  C   UNL     1      20.840  25.052  25.690  0.00  0.00    +0.019 A 
ATOM     38  C   UNL     1      22.285  25.056  25.516  0.00  0.00    +0.120 A 
ATOM     39  N   UNL     1      23.084  24.267  26.336  0.00  0.00    -0.263 NA
ATOM     40  C   UNL     1      22.554  23.449  27.345  0.00  0.00    +0.111 A 
ENDBRANCH   4   3
ENDBRANCH  10   9
BRANCH  12  13
ATOM     13  N   UNL     1      19.866  31.038  18.701  0.00  0.00    -0.281 N 
ATOM     14  C   UNL     1      20.586  31.994  18.005  0.00  0.00    +0.248 C 
ATOM     30  O   UNL     1      20.910  33.082  18.458  0.00  0.00    -0.270 OA
ATOM     31  H   UNL     1      19.497  30.264  18.149  0.00  0.00    +0.155 HD
BRANCH  14  15
ATOM     15  C   UNL     1      20.995  31.706  16.596  0.00  0.00    +0.037 A 
ATOM     16  C   UNL     1      20.206  30.813  15.743  0.00  0.00    +0.013 A 
ATOM     17  C   UNL     1      20.631  30.539  14.394  0.00  0.00    +0.005 A 
ATOM     18  C   UNL     1      21.853  31.161  13.888  0.00  0.00    -0.033 A 
ATOM     28  C   UNL     1      22.613  32.047  14.753  0.00  0.00    +0.005 A 
ATOM     29  C   UNL     1      22.200  32.317  16.077  0.00  0.00    +0.013 A 
BRANCH  18  19
ATOM     19  C   UNL     1      22.393  30.909  12.468  0.00  0.00    +0.119 C 
BRANCH  19  20
ATOM     20  N   UNL     1      22.728  29.500  12.104  0.00  0.00    -0.302 NA
ATOM     21  C   UNL     1      23.842  29.426  11.056  0.00  0.00    +0.066 C 
ATOM     22  C   UNL     1      24.196  27.945  10.704  0.00  0.00    -0.064 C 
ATOM     23  N   UNL     1      22.939  27.227  10.209  0.00  0.00    +0.379 N 
ATOM     24  C   UNL     1      23.279  25.851   9.822  0.00  0.00    -0.096 C 
ATOM     25  H   UNL     1      22.585  27.758   9.294  0.00  0.00    -0.082 HD
ATOM     26  C   UNL     1      21.824  27.298  11.243  0.00  0.00    -0.064 C 
ATOM     27  C   UNL     1      21.502  28.774  11.608  0.00  0.00    +0.066 C 
ENDBRANCH  19  20
ENDBRANCH  18  19
ENDBRANCH  14  15
ENDBRANCH  12  13
TORSDOF 6
ENDMDL
MODEL 3
REMARK VINA RESULT:      -8.2      1.628      2.212
REMARK  Name = C:\Users\Docking\Desktop\test protocol\1iep_ligandH.pdb
REMARK  8 active torsions:
REMARK  status: ('A' for Active; 'I' for Inactive)
REMARK    1  A    between atoms: _5  and  _11
REMARK    2  A    between atoms: _19  and  _21
REMARK    3  A    between atoms: _22  and  _66
REMARK    4  A    between atoms: _27  and  _30
REMARK    5  A    between atoms: _32  and  _33
REMARK    6  A    between atoms: _38  and  _43
REMARK    7  A    between atoms: _43  and  _46
REMARK    8  A    between atoms: _53  and  _55
REMARK                            x       y       z     vdW  Elec       q    Type
REMARK                         _______ _______ _______ _____ _____    ______ ____
ROOT
ATOM     10  C   UNL     1      19.902  29.811  22.478  0.00  0.00    +0.038 A 
ATOM     11  C   UNL     1      20.215  29.725  21.097  0.00  0.00    +0.047 A 
ATOM     12  C   UNL     1      19.614  30.632  20.131  0.00  0.00    +0.035 A 
ATOM     32  C   UNL     1      18.702  31.618  20.607  0.00  0.00    +0.024 A 
ATOM     33  C   UNL     1      18.372  31.719  22.007  0.00  0.00    +0.007 A 
ATOM     34  C   UNL     1      18.959  30.825  22.964  0.00  0.00    -0.029 A 
ATOM     35  C   UNL     1      18.564  30.976  24.451  0.00  0.00    +0.045 C 
ENDROOT
BRANCH  10   9
ATOM      4  C   UNL     1      19.978  25.688  24.933  0.00  0.00    +0.077 A 
ATOM      5  C   UNL     1      18.690  25.299  24.435  0.00  0.00    +0.048 A 
ATOM      6  C   UNL     1      18.038  26.192  23.555  0.00  0.00    +0.116 A 
ATOM      7  N   UNL     1      18.639  27.382  23.205  0.00  0.00    -0.223 NA
ATOM      8  C   UNL     1      19.881  27.727  23.705  0.00  0.00    +0.220 A 
ATOM      9  N   UNL     1      20.508  28.915  23.361  0.00  0.00    -0.283 N 
ATOM     36  H   UNL     1      21.421  29.136  23.757  0.00  0.00    +0.155 HD
ATOM     37  N   UNL     1      20.524  26.892  24.548  0.00  0.00    -0.214 NA
BRANCH   4   3
ATOM      1  C   UNL     1      21.064  23.414  27.925  0.00  0.00    +0.020 A 
ATOM      2  C   UNL     1      20.233  24.213  27.054  0.00  0.00    +0.013 A 
ATOM      3  C   UNL     1      20.793  24.850  25.869  0.00  0.00    +0.019 A 
ATOM     38  C   UNL     1      22.208  24.656  25.590  0.00  0.00    +0.120 A 
ATOM     39  N   UNL     1      22.984  23.883  26.448  0.00  0.00    -0.263 NA
ATOM     40  C   UNL     1      22.456  23.266  27.592  0.00  0.00    +0.111 A 
ENDBRANCH   4   3
ENDBRANCH  10   9
BRANCH  12  13
ATOM     13  N   UNL     1      19.887  30.587  18.716  0.00  0.00    -0.281 N 
ATOM     14  C   UNL     1      19.004  30.307  17.687  0.00  0.00    +0.248 C 
ATOM     30  O   UNL     1      17.885  29.841  17.844  0.00  0.00    -0.270 OA
ATOM     31  H   UNL     1      20.849  30.785  18.440  0.00  0.00    +0.155 HD
BRANCH  14  15
ATOM     15  C   UNL     1      19.429  30.569  16.278  0.00  0.00    +0.037 A 
ATOM     16  C   UNL     1      18.755  29.924  15.148  0.00  0.00    +0.013 A 
ATOM     17  C   UNL     1      19.197  30.181  13.800  0.00  0.00    +0.005 A 
ATOM     18  C   UNL     1      20.319  31.090  13.575  0.00  0.00    -0.033 A 
ATOM     28  C   UNL     1      20.966  31.720  14.714  0.00  0.00    +0.005 A 
ATOM     29  C   UNL     1      20.536  31.469  16.037  0.00  0.00    +0.013 A 
BRANCH  18  19
ATOM     19  C   UNL     1      20.870  31.406  12.173  0.00  0.00    +0.119 C 
BRANCH  19  20
ATOM     20  N   UNL     1      22.319  31.753  12.070  0.00  0.00    -0.302 NA
ATOM     21  C   UNL     1      22.573  32.861  11.044  0.00  0.00    +0.066 C 
ATOM     22  C   UNL     1      24.091  33.228  10.966  0.00  0.00    -0.064 C 
ATOM     23  N   UNL     1      24.898  31.975  10.621  0.00  0.00    +0.379 N 
ATOM     24  C   UNL     1      26.319  32.328  10.490  0.00  0.00    -0.096 C 
ATOM     25  H   UNL     1      24.547  31.610   9.628  0.00  0.00    -0.082 HD
ATOM     26  C   UNL     1      24.649  30.867  11.635  0.00  0.00    -0.064 C 
ATOM     27  C   UNL     1      23.135  30.531  11.726  0.00  0.00    +0.066 C 
ENDBRANCH  19  20
ENDBRANCH  18  19
ENDBRANCH  14  15
ENDBRANCH  12  13
TORSDOF 6
ENDMDL
MODEL 4
REMARK VINA RESULT:      -8.0      1.919     12.997
REMARK  Name = C:\Users\Docking\Desktop\test protocol\1iep_ligandH.pdb
REMARK  8 active torsions:
REMARK  status: ('A' for Active; 'I' for Inactive)
REMARK    1  A    between atoms: _5  and  _11
REMARK    2  A    between atoms: _19  and  _21
REMARK    3  A    between atoms: _22  and  _66
REMARK    4  A    between atoms: _27  and  _30
REMARK    5  A    between atoms: _32  and  _33
REMARK    6  A    between atoms: _38  and  _43
REMARK    7  A    between atoms: _43  and  _46
REMARK    8  A    between atoms: _53  and  _55
REMARK                            x       y       z     vdW  Elec       q    Type
REMARK                         _______ _______ _______ _____ _____    ______ ____
ROOT
ATOM     10  C   UNL     1      20.433  32.853  17.378  0.00  0.00    +0.038 A 
ATOM     11  C   UNL     1      20.648  31.795  18.297  0.00  0.00    +0.047 A 
ATOM     12  C   UNL     1      19.694  31.516  19.359  0.00  0.00    +0.035 A 
ATOM     32  C   UNL     1      18.530  32.332  19.454  0.00  0.00    +0.024 A 
ATOM     33  C   UNL     1      18.296  33.413  18.528  0.00  0.00    +0.007 A 
ATOM     34  C   UNL     1      19.235  33.694  17.480  0.00  0.00    -0.029 A 
ATOM     35  C   UNL     1      18.936  34.869  16.520  0.00  0.00    +0.045 C 
ENDROOT
BRANCH  10   9
ATOM      4  C   UNL     1      22.534  31.734  13.209  0.00  0.00    +0.077 A 
ATOM      5  C   UNL     1      21.687  30.591  13.022  0.00  0.00    +0.048 A 
ATOM      6  C   UNL     1      20.728  30.322  14.024  0.00  0.00    +0.116 A 
ATOM      7  N   UNL     1      20.633  31.141  15.128  0.00  0.00    -0.223 NA
ATOM      8  C   UNL     1      21.466  32.234  15.279  0.00  0.00    +0.220 A 
ATOM      9  N   UNL     1      21.382  33.077  16.377  0.00  0.00    -0.283 N 
ATOM     36  H   UNL     1      22.020  33.868  16.456  0.00  0.00    +0.155 HD
ATOM     37  N   UNL     1      22.390  32.512  14.336  0.00  0.00    -0.214 NA
BRANCH   4   3
ATOM      1  C   UNL     1      25.858  31.902  11.155  0.00  0.00    +0.020 A 
ATOM      2  C   UNL     1      24.869  31.459  12.111  0.00  0.00    +0.013 A 
ATOM      3  C   UNL     1      23.592  32.151  12.236  0.00  0.00    +0.019 A 
ATOM     38  C   UNL     1      23.345  33.295  11.372  0.00  0.00    +0.120 A 
ATOM     39  N   UNL     1      24.316  33.699  10.462  0.00  0.00    -0.263 NA
ATOM     40  C   UNL     1      25.549  33.043  10.333  0.00  0.00    +0.111 A 
ENDBRANCH   4   3
ENDBRANCH  10   9
BRANCH  12  13
ATOM     13  N   UNL     1      19.863  30.460  20.327  0.00  0.00    -0.281 N 
ATOM     14  C   UNL     1      19.851  30.562  21.709  0.00  0.00    +0.248 C 
ATOM     30  O   UNL     1      19.905  31.616  22.325  0.00  0.00    -0.270 OA
ATOM     31  H   UNL     1      20.010  29.525  19.948  0.00  0.00    +0.155 HD
BRANCH  14  15
ATOM     15  C   UNL     1      19.782  29.311  22.524  0.00  0.00    +0.037 A 
ATOM     16  C   UNL     1      19.223  29.316  23.878  0.00  0.00    +0.013 A 
ATOM     17  C   UNL     1      19.184  28.099  24.649  0.00  0.00    +0.005 A 
ATOM     18  C   UNL     1      19.706  26.865  24.067  0.00  0.00    -0.033 A 
ATOM     28  C   UNL     1      20.250  26.887  22.719  0.00  0.00    +0.005 A 
ATOM     29  C   UNL     1      20.291  28.078  21.961  0.00  0.00    +0.013 A 
BRANCH  18  19
ATOM     19  C   UNL     1      19.724  25.524  24.825  0.00  0.00    +0.119 C 
BRANCH  19  20
ATOM     20  N   UNL     1      20.787  25.338  25.858  0.00  0.00    -0.302 NA
ATOM     21  C   UNL     1      22.084  24.792  25.256  0.00  0.00    +0.066 C 
ATOM     22  C   UNL     1      23.192  24.624  26.347  0.00  0.00    -0.064 C 
ATOM     23  N   UNL     1      22.678  23.701  27.453  0.00  0.00    +0.379 N 
ATOM     24  C   UNL     1      23.737  23.495  28.451  0.00  0.00    -0.096 C 
ATOM     25  H   UNL     1      22.451  22.712  26.990  0.00  0.00    -0.082 HD
ATOM     26  C   UNL     1      21.386  24.235  28.056  0.00  0.00    -0.064 C 
ATOM     27  C   UNL     1      20.302  24.426  26.958  0.00  0.00    +0.066 C 
ENDBRANCH  19  20
ENDBRANCH  18  19
ENDBRANCH  14  15
ENDBRANCH  12  13
TORSDOF 6
ENDMDL
MODEL 5
REMARK VINA RESULT:      -7.9      4.093     12.495
REMARK  Name = C:\Users\Docking\Desktop\test protocol\1iep_ligandH.pdb
REMARK  8 active torsions:
REMARK  status: ('A' for Active; 'I' for Inactive)
REMARK    1  A    between atoms: _5  and  _11
REMARK    2  A    between atoms: _19  and  _21
REMARK    3  A    between atoms: _22  and  _66
REMARK    4  A    between atoms: _27  and  _30
REMARK    5  A    between atoms: _32  and  _33
REMARK    6  A    between atoms: _38  and  _43
REMARK    7  A    between atoms: _43  and  _46
REMARK    8  A    between atoms: _53  and  _55
REMARK                            x       y       z     vdW  Elec       q    Type
REMARK                         _______ _______ _______ _____ _____    ______ ____
ROOT
ATOM     10  C   UNL     1      22.636  30.908  12.685  0.00  0.00    +0.038 A 
ATOM     11  C   UNL     1      22.091  30.890  13.995  0.00  0.00    +0.047 A 
ATOM     12  C   UNL     1      22.489  31.874  14.989  0.00  0.00    +0.035 A 
ATOM     32  C   UNL     1      23.442  32.865  14.614  0.00  0.00    +0.024 A 
ATOM     33  C   UNL     1      24.007  32.898  13.288  0.00  0.00    +0.007 A 
ATOM     34  C   UNL     1      23.620  31.928  12.304  0.00  0.00    -0.029 A 
ATOM     35  C   UNL     1      24.262  32.007  10.899  0.00  0.00    +0.045 C 
ENDROOT
BRANCH  10   9
ATOM      4  C   UNL     1      23.134  26.673  10.482  0.00  0.00    +0.077 A 
ATOM      5  C   UNL     1      24.344  26.378  11.195  0.00  0.00    +0.048 A 
ATOM      6  C   UNL     1      24.808  27.346  12.114  0.00  0.00    +0.116 A 
ATOM      7  N   UNL     1      24.106  28.517  12.299  0.00  0.00    -0.223 NA
ATOM      8  C   UNL     1      22.944  28.771  11.594  0.00  0.00    +0.220 A 
ATOM      9  N   UNL     1      22.218  29.939  11.770  0.00  0.00    -0.283 N 
ATOM     36  H   UNL     1      21.369  30.092  11.226  0.00  0.00    +0.155 HD
ATOM     37  N   UNL     1      22.481  27.864  10.710  0.00  0.00    -0.214 NA
BRANCH   4   3
ATOM      1  C   UNL     1      22.619  24.276   7.435  0.00  0.00    +0.020 A 
ATOM      2  C   UNL     1      23.264  25.163   8.375  0.00  0.00    +0.013 A 
ATOM      3  C   UNL     1      22.516  25.749   9.480  0.00  0.00    +0.019 A 
ATOM     38  C   UNL     1      21.105  25.414   9.607  0.00  0.00    +0.120 A 
ATOM     39  N   UNL     1      20.510  24.558   8.685  0.00  0.00    -0.263 NA
ATOM     40  C   UNL     1      21.220  23.989   7.617  0.00  0.00    +0.111 A 
ENDBRANCH   4   3
ENDBRANCH  10   9
BRANCH  12  13
ATOM     13  N   UNL     1      21.976  31.900  16.336  0.00  0.00    -0.281 N 
ATOM     14  C   UNL     1      21.060  32.785  16.882  0.00  0.00    +0.248 C 
ATOM     30  O   UNL     1      20.702  33.825  16.349  0.00  0.00    -0.270 OA
ATOM     31  H   UNL     1      22.331  31.179  16.964  0.00  0.00    +0.155 HD
BRANCH  14  15
ATOM     15  C   UNL     1      20.467  32.477  18.219  0.00  0.00    +0.037 A 
ATOM     16  C   UNL     1      20.164  33.542  19.179  0.00  0.00    +0.013 A 
ATOM     17  C   UNL     1      19.609  33.216  20.469  0.00  0.00    +0.005 A 
ATOM     18  C   UNL     1      19.351  31.818  20.805  0.00  0.00    -0.033 A 
ATOM     28  C   UNL     1      19.656  30.782  19.832  0.00  0.00    +0.005 A 
ATOM     29  C   UNL     1      20.202  31.098  18.567  0.00  0.00    +0.013 A 
BRANCH  18  19
ATOM     19  C   UNL     1      18.780  31.376  22.165  0.00  0.00    +0.119 C 
BRANCH  19  20
ATOM     20  N   UNL     1      18.688  29.909  22.425  0.00  0.00    -0.302 NA
ATOM     21  C   UNL     1      17.362  29.524  23.087  0.00  0.00    +0.066 C 
ATOM     22  C   UNL     1      17.273  27.982  23.330  0.00  0.00    -0.064 C 
ATOM     23  N   UNL     1      18.457  27.536  24.190  0.00  0.00    +0.379 N 
ATOM     24  C   UNL     1      18.345  26.096  24.469  0.00  0.00    -0.096 C 
ATOM     25  H   UNL     1      18.391  28.075  25.163  0.00  0.00    -0.082 HD
ATOM     26  C   UNL     1      19.779  27.916  23.540  0.00  0.00    -0.064 C 
ATOM     27  C   UNL     1      19.845  29.446  23.275  0.00  0.00    +0.066 C 
ENDBRANCH  19  20
ENDBRANCH  18  19
ENDBRANCH  14  15
ENDBRANCH  12  13
TORSDOF 6
ENDMDL
