MODEL 1
REMARK VINA RESULT:      -8.5      0.000      0.000
REMARK  Name = C:\Users\Docking\Desktop\test protocol\1iep_ligandH.pdb
REMARK  8 active torsions:
REMARK  status: ('A' for Active; 'I' for Inactive)
REMARK    1  A    between atoms: _5  and  _11
REMARK    2  A    between atoms: _19  and  _21
REMARK    3  A    between atoms: _22  and  _66
REMARK    4  A    between atoms: _27  and  _30
REMARK    5  A    between atoms: _32  and  _33
REMARK    6  A    between atoms: _38  and  _43
REMARK    7  A    between atoms: _43  and  _46
REMARK    8  A    between atoms: _53  and  _55
REMARK                            x       y       z     vdW  Elec       q    Type
REMARK                         _______ _______ _______ _____ _____    ______ ____
ROOT
ATOM     10  C   UNL     1      21.017  32.190  15.843  0.00  0.00    +0.038 A 
ATOM     11  C   UNL     1      21.808  32.991  16.706  0.00  0.00    +0.047 A 
ATOM     12  C   UNL     1      21.284  34.218  17.284  0.00  0.00    +0.035 A 
ATOM     32  C   UNL     1      19.948  34.599  16.964  0.00  0.00    +0.024 A 
ATOM     33  C   UNL     1      19.130  33.798  16.088  0.00  0.00    +0.007 A 
ATOM     34  C   UNL     1      19.643  32.587  15.513  0.00  0.00    -0.029 A 
ATOM     35  C   UNL     1      18.723  31.770  14.575  0.00  0.00    +0.045 C 
ENDROOT
BRANCH  10   9
ATOM      4  C   UNL     1      23.533  29.828  12.507  0.00  0.00    +0.077 A 
ATOM      5  C   UNL     1      23.739  31.019  11.735  0.00  0.00    +0.048 A 
ATOM      6  C   UNL     1      23.175  32.217  12.227  0.00  0.00    +0.116 A 
ATOM      7  N   UNL     1      22.460  32.213  13.405  0.00  0.00    -0.223 NA
ATOM      8  C   UNL     1      22.279  31.047  14.125  0.00  0.00    +0.220 A 
ATOM      9  N   UNL     1      21.570  31.021  15.316  0.00  0.00    -0.283 N 
ATOM     36  H   UNL     1      21.452  30.138  15.814  0.00  0.00    +0.155 HD
ATOM     37  N   UNL     1      22.806  29.889  13.675  0.00  0.00    -0.214 NA
BRANCH   4   3
ATOM      1  C   UNL     1      25.943  26.931  11.459  0.00  0.00    +0.020 A 
ATOM      2  C   UNL     1      25.477  28.248  11.828  0.00  0.00    +0.013 A 
ATOM      3  C   UNL     1      24.069  28.485  12.120  0.00  0.00    +0.019 A 
ATOM     38  C   UNL     1      23.152  27.359  12.030  0.00  0.00    +0.120 A 
ATOM     39  N   UNL     1      23.629  26.102  11.671  0.00  0.00    -0.263 NA
ATOM     40  C   UNL     1      24.982  25.863  11.386  0.00  0.00    +0.111 A 
ENDBRANCH   4   3
ENDBRANCH  10   9
BRANCH  12  13
ATOM     13  N   UNL     1      22.043  35.076  18.160  0.00  0.00    -0.281 N 
ATOM     14  C   UNL     1      21.969  35.164  19.540  0.00  0.00    +0.248 C 
ATOM     30  O   UNL     1      21.081  34.666  20.218  0.00  0.00    -0.270 OA
ATOM     31  H   UNL     1      22.717  35.694  17.707  0.00  0.00    +0.155 HD
BRANCH  14  15
ATOM     15  C   UNL     1      23.025  35.926  20.273  0.00  0.00    +0.037 A 
ATOM     16  C   UNL     1      23.874  35.276  21.275  0.00  0.00    +0.013 A 
ATOM     17  C   UNL     1      24.874  36.038  21.980  0.00  0.00    +0.005 A 
ATOM     18  C   UNL     1      25.031  37.460  21.684  0.00  0.00    -0.033 A 
ATOM     28  C   UNL     1      24.179  38.078  20.681  0.00  0.00    +0.005 A 
ATOM     29  C   UNL     1      23.197  37.334  19.989  0.00  0.00    +0.013 A 
BRANCH  18  19
ATOM     19  C   UNL     1      26.058  38.355  22.402  0.00  0.00    +0.119 C 
BRANCH  19  20
ATOM     20  N   UNL     1      27.503  38.086  22.138  0.00  0.00    -0.302 NA
ATOM     21  C   UNL     1      28.356  38.237  23.401  0.00  0.00    +0.066 C 
ATOM     22  C   UNL     1      29.861  37.930  23.111  0.00  0.00    -0.064 C 
ATOM     23  N   UNL     1      30.364  38.858  22.004  0.00  0.00    +0.379 N 
ATOM     24  C   UNL     1      31.794  38.612  21.770  0.00  0.00    -0.096 C 
ATOM     25  H   UNL     1      30.256  39.907  22.367  0.00  0.00    -0.082 HD
ATOM     26  C   UNL     1      29.520  38.717  20.745  0.00  0.00    -0.064 C 
ATOM     27  C   UNL     1      28.022  38.995  21.051  0.00  0.00    +0.066 C 
ENDBRANCH  19  20
ENDBRANCH  18  19
ENDBRANCH  14  15
ENDBRANCH  12  13
TORSDOF 6
ENDMDL
MODEL 2
REMARK VINA RESULT:      -8.2      6.948     11.598
REMARK  Name = C:\Users\Docking\Desktop\test protocol\1iep_ligandH.pdb
REMARK  8 active torsions:
REMARK  status: ('A' for Active; 'I' for Inactive)
REMARK    1  A    between atoms: _5  and  _11
REMARK    2  A    between atoms: _19  and  _21
REMARK    3  A    between atoms: _22  and  _66
REMARK    4  A    between atoms: _27  and  _30
REMARK    5  A    between atoms: _32  and  _33
REMARK    6  A    between atoms: _38  and  _43
REMARK    7  A    between atoms: _43  and  _46
REMARK    8  A    between atoms: _53  and  _55
REMARK                            x       y       z     vdW  Elec       q    Type
REMARK                         _______ _______ _______ _____ _____    ______ ____
ROOT
ATOM     10  C   UNL     1      20.162  30.194  22.115  0.00  0.00    +0.038 A 
ATOM     11  C   UNL     1      20.462  30.176  20.729  0.00  0.00    +0.047 A 
ATOM     12  C   UNL     1      19.816  31.098  19.807  0.00  0.00    +0.035 A 
ATOM     32  C   UNL     1      18.872  32.028  20.333  0.00  0.00    +0.024 A 
ATOM     33  C   UNL     1      18.554  32.059  21.739  0.00  0.00    +0.007 A 
ATOM     34  C   UNL     1      19.186  31.150  22.652  0.00  0.00    -0.029 A 
ATOM     35  C   UNL     1      18.803  31.224  24.148  0.00  0.00    +0.045 C 
ENDROOT
BRANCH  10   9
ATOM      4  C   UNL     1      20.345  26.057  24.541  0.00  0.00    +0.077 A 
ATOM      5  C   UNL     1      19.024  25.685  24.123  0.00  0.00    +0.048 A 
ATOM      6  C   UNL     1      18.328  26.589  23.290  0.00  0.00    +0.116 A 
ATOM      7  N   UNL     1      18.920  27.774  22.909  0.00  0.00    -0.223 NA
ATOM      8  C   UNL     1      20.194  28.103  23.331  0.00  0.00    +0.220 A 
ATOM      9  N   UNL     1      20.811  29.286  22.954  0.00  0.00    -0.283 N 
ATOM     36  H   UNL     1      21.750  29.496  23.293  0.00  0.00    +0.155 HD
ATOM     37  N   UNL     1      20.879  27.257  24.129  0.00  0.00    -0.214 NA
BRANCH   4   3
ATOM      1  C   UNL     1      23.419  24.172  26.058  0.00  0.00    +0.020 A 
ATOM      2  C   UNL     1      22.631  25.004  25.178  0.00  0.00    +0.013 A 
ATOM      3  C   UNL     1      21.207  25.205  25.420  0.00  0.00    +0.019 A 
ATOM     38  C   UNL     1      20.608  24.546  26.571  0.00  0.00    +0.120 A 
ATOM     39  N   UNL     1      21.392  23.750  27.400  0.00  0.00    -0.263 NA
ATOM     40  C   UNL     1      22.762  23.547  27.176  0.00  0.00    +0.111 A 
ENDBRANCH   4   3
ENDBRANCH  10   9
BRANCH  12  13
ATOM     13  N   UNL     1      20.074  31.121  18.389  0.00  0.00    -0.281 N 
ATOM     14  C   UNL     1      20.783  32.068  17.668  0.00  0.00    +0.248 C 
ATOM     30  O   UNL     1      21.123  33.158  18.105  0.00  0.00    -0.270 OA
ATOM     31  H   UNL     1      19.688  30.346  17.851  0.00  0.00    +0.155 HD
BRANCH  14  15
ATOM     15  C   UNL     1      21.155  31.768  16.252  0.00  0.00    +0.037 A 
ATOM     16  C   UNL     1      20.590  30.615  15.546  0.00  0.00    +0.013 A 
ATOM     17  C   UNL     1      20.979  30.338  14.186  0.00  0.00    +0.005 A 
ATOM     18  C   UNL     1      21.938  31.217  13.522  0.00  0.00    -0.033 A 
ATOM     28  C   UNL     1      22.480  32.356  14.244  0.00  0.00    +0.005 A 
ATOM     29  C   UNL     1      22.102  32.630  15.578  0.00  0.00    +0.013 A 
BRANCH  18  19
ATOM     19  C   UNL     1      22.427  30.985  12.080  0.00  0.00    +0.119 C 
BRANCH  19  20
ATOM     20  N   UNL     1      22.970  29.633  11.751  0.00  0.00    -0.302 NA
ATOM     21  C   UNL     1      23.980  29.150  12.796  0.00  0.00    +0.066 C 
ATOM     22  C   UNL     1      24.521  27.725  12.448  0.00  0.00    -0.064 C 
ATOM     23  N   UNL     1      25.153  27.749  11.055  0.00  0.00    +0.379 N 
ATOM     24  C   UNL     1      25.715  26.425  10.749  0.00  0.00    -0.096 C 
ATOM     25  H   UNL     1      25.997  28.477  11.079  0.00  0.00    -0.082 HD
ATOM     26  C   UNL     1      24.157  28.231  10.010  0.00  0.00    -0.064 C 
ATOM     27  C   UNL     1      23.603  29.635  10.381  0.00  0.00    +0.066 C 
ENDBRANCH  19  20
ENDBRANCH  18  19
ENDBRANCH  14  15
ENDBRANCH  12  13
TORSDOF 6
ENDMDL
MODEL 3
REMARK VINA RESULT:      -8.1      6.929     11.519
REMARK  Name = C:\Users\Docking\Desktop\test protocol\1iep_ligandH.pdb
REMARK  8 active torsions:
REMARK  status: ('A' for Active; 'I' for Inactive)
REMARK    1  A    between atoms: _5  and  _11
REMARK    2  A    between atoms: _19  and  _21
REMARK    3  A    between atoms: _22  and  _66
REMARK    4  A    between atoms: _27  and  _30
REMARK    5  A    between atoms: _32  and  _33
REMARK    6  A    between atoms: _38  and  _43
REMARK    7  A    between atoms: _43  and  _46
REMARK    8  A    between atoms: _53  and  _55
REMARK                            x       y       z     vdW  Elec       q    Type
REMARK                         _______ _______ _______ _____ _____    ______ ____
ROOT
ATOM     10  C   UNL     1      20.352  30.349  21.846  0.00  0.00    +0.038 A 
ATOM     11  C   UNL     1      20.681  30.357  20.466  0.00  0.00    +0.047 A 
ATOM     12  C   UNL     1      20.091  31.329  19.558  0.00  0.00    +0.035 A 
ATOM     32  C   UNL     1      19.172  32.279  20.089  0.00  0.00    +0.024 A 
ATOM     33  C   UNL     1      18.826  32.284  21.489  0.00  0.00    +0.007 A 
ATOM     34  C   UNL     1      19.402  31.327  22.389  0.00  0.00    -0.029 A 
ATOM     35  C   UNL     1      18.989  31.375  23.879  0.00  0.00    +0.045 C 
ENDROOT
BRANCH  10   9
ATOM      4  C   UNL     1      20.241  26.250  24.341  0.00  0.00    +0.077 A 
ATOM      5  C   UNL     1      18.872  26.005  23.990  0.00  0.00    +0.048 A 
ATOM      6  C   UNL     1      18.230  26.961  23.171  0.00  0.00    +0.116 A 
ATOM      7  N   UNL     1      18.917  28.076  22.741  0.00  0.00    -0.223 NA
ATOM      8  C   UNL     1      20.236  28.283  23.100  0.00  0.00    +0.220 A 
ATOM      9  N   UNL     1      20.948  29.394  22.672  0.00  0.00    -0.283 N 
ATOM     36  H   UNL     1      21.917  29.514  22.965  0.00  0.00    +0.155 HD
ATOM     37  N   UNL     1      20.871  27.386  23.882  0.00  0.00    -0.214 NA
BRANCH   4   3
ATOM      1  C   UNL     1      21.348  23.779  27.164  0.00  0.00    +0.020 A 
ATOM      2  C   UNL     1      20.518  24.658  26.372  0.00  0.00    +0.013 A 
ATOM      3  C   UNL     1      21.056  25.331  25.197  0.00  0.00    +0.019 A 
ATOM     38  C   UNL     1      22.448  25.091  24.847  0.00  0.00    +0.120 A 
ATOM     39  N   UNL     1      23.223  24.241  25.629  0.00  0.00    -0.263 NA
ATOM     40  C   UNL     1      22.717  23.589  26.763  0.00  0.00    +0.111 A 
ENDBRANCH   4   3
ENDBRANCH  10   9
BRANCH  12  13
ATOM     13  N   UNL     1      20.381  31.381  18.146  0.00  0.00    -0.281 N 
ATOM     14  C   UNL     1      21.127  32.328  17.464  0.00  0.00    +0.248 C 
ATOM     30  O   UNL     1      21.482  33.398  17.936  0.00  0.00    -0.270 OA
ATOM     31  H   UNL     1      19.989  30.627  17.581  0.00  0.00    +0.155 HD
BRANCH  14  15
ATOM     15  C   UNL     1      21.523  32.053  16.050  0.00  0.00    +0.037 A 
ATOM     16  C   UNL     1      22.358  32.994  15.298  0.00  0.00    +0.013 A 
ATOM     17  C   UNL     1      22.712  32.713  13.929  0.00  0.00    +0.005 A 
ATOM     18  C   UNL     1      22.231  31.484  13.303  0.00  0.00    -0.033 A 
ATOM     28  C   UNL     1      21.409  30.565  14.074  0.00  0.00    +0.005 A 
ATOM     29  C   UNL     1      21.060  30.838  15.415  0.00  0.00    +0.013 A 
BRANCH  18  19
ATOM     19  C   UNL     1      22.542  31.113  11.841  0.00  0.00    +0.119 C 
BRANCH  19  20
ATOM     20  N   UNL     1      22.606  32.229  10.851  0.00  0.00    -0.302 NA
ATOM     21  C   UNL     1      21.228  32.840  10.585  0.00  0.00    +0.066 C 
ATOM     22  C   UNL     1      21.316  34.021   9.564  0.00  0.00    -0.064 C 
ATOM     23  N   UNL     1      21.948  33.522   8.264  0.00  0.00    +0.379 N 
ATOM     24  C   UNL     1      21.980  34.615   7.282  0.00  0.00    -0.096 C 
ATOM     25  H   UNL     1      21.291  32.719   7.855  0.00  0.00    -0.082 HD
ATOM     26  C   UNL     1      23.318  32.910   8.520  0.00  0.00    -0.064 C 
ATOM     27  C   UNL     1      23.223  31.757   9.558  0.00  0.00    +0.066 C 
ENDBRANCH  19  20
ENDBRANCH  18  19
ENDBRANCH  14  15
ENDBRANCH  12  13
TORSDOF 6
ENDMDL
MODEL 4
REMARK VINA RESULT:      -8.1      5.772      8.065
REMARK  Name = C:\Users\Docking\Desktop\test protocol\1iep_ligandH.pdb
REMARK  8 active torsions:
REMARK  status: ('A' for Active; 'I' for Inactive)
REMARK    1  A    between atoms: _5  and  _11
REMARK    2  A    between atoms: _19  and  _21
REMARK    3  A    between atoms: _22  and  _66
REMARK    4  A    between atoms: _27  and  _30
REMARK    5  A    between atoms: _32  and  _33
REMARK    6  A    between atoms: _38  and  _43
REMARK    7  A    between atoms: _43  and  _46
REMARK    8  A    between atoms: _53  and  _55
REMARK                            x       y       z     vdW  Elec       q    Type
REMARK                         _______ _______ _______ _____ _____    ______ ____
ROOT
ATOM     10  C   UNL     1      22.155  31.145  13.653  0.00  0.00    +0.038 A 
ATOM     11  C   UNL     1      21.829  30.892  15.010  0.00  0.00    +0.047 A 
ATOM     12  C   UNL     1      21.948  31.933  16.019  0.00  0.00    +0.035 A 
ATOM     32  C   UNL     1      22.401  33.221  15.611  0.00  0.00    +0.024 A 
ATOM     33  C   UNL     1      22.738  33.495  14.236  0.00  0.00    +0.007 A 
ATOM     34  C   UNL     1      22.625  32.472  13.236  0.00  0.00    -0.029 A 
ATOM     35  C   UNL     1      23.006  32.821  11.779  0.00  0.00    +0.045 C 
ENDROOT
BRANCH  10   9
ATOM      4  C   UNL     1      23.831  27.276  11.359  0.00  0.00    +0.077 A 
ATOM      5  C   UNL     1      25.088  27.340  12.047  0.00  0.00    +0.048 A 
ATOM      6  C   UNL     1      25.266  28.388  12.978  0.00  0.00    +0.116 A 
ATOM      7  N   UNL     1      24.255  29.298  13.197  0.00  0.00    -0.223 NA
ATOM      8  C   UNL     1      23.055  29.209  12.515  0.00  0.00    +0.220 A 
ATOM      9  N   UNL     1      22.022  30.109  12.726  0.00  0.00    -0.283 N 
ATOM     36  H   UNL     1      21.155  30.014  12.198  0.00  0.00    +0.155 HD
ATOM     37  N   UNL     1      22.861  28.218  11.620  0.00  0.00    -0.214 NA
BRANCH   4   3
ATOM      1  C   UNL     1      24.013  24.825   8.317  0.00  0.00    +0.020 A 
ATOM      2  C   UNL     1      24.390  25.846   9.266  0.00  0.00    +0.013 A 
ATOM      3  C   UNL     1      23.490  26.225  10.349  0.00  0.00    +0.019 A 
ATOM     38  C   UNL     1      22.207  25.546  10.443  0.00  0.00    +0.120 A 
ATOM     39  N   UNL     1      21.871  24.567   9.513  0.00  0.00    -0.263 NA
ATOM     40  C   UNL     1      22.727  24.195   8.467  0.00  0.00    +0.111 A 
ENDBRANCH   4   3
ENDBRANCH  10   9
BRANCH  12  13
ATOM     13  N   UNL     1      21.639  31.732  17.413  0.00  0.00    -0.281 N 
ATOM     14  C   UNL     1      20.490  32.103  18.092  0.00  0.00    +0.248 C 
ATOM     30  O   UNL     1      19.637  32.857  17.648  0.00  0.00    -0.270 OA
ATOM     31  H   UNL     1      22.354  31.260  17.966  0.00  0.00    +0.155 HD
BRANCH  14  15
ATOM     15  C   UNL     1      20.261  31.569  19.470  0.00  0.00    +0.037 A 
ATOM     16  C   UNL     1      20.190  30.128  19.724  0.00  0.00    +0.013 A 
ATOM     17  C   UNL     1      19.951  29.640  21.059  0.00  0.00    +0.005 A 
ATOM     18  C   UNL     1      19.784  30.596  22.152  0.00  0.00    -0.033 A 
ATOM     28  C   UNL     1      19.865  32.020  21.872  0.00  0.00    +0.005 A 
ATOM     29  C   UNL     1      20.098  32.502  20.564  0.00  0.00    +0.013 A 
BRANCH  18  19
ATOM     19  C   UNL     1      19.506  30.165  23.604  0.00  0.00    +0.119 C 
BRANCH  19  20
ATOM     20  N   UNL     1      18.107  30.316  24.105  0.00  0.00    -0.302 NA
ATOM     21  C   UNL     1      17.953  31.533  25.021  0.00  0.00    +0.066 C 
ATOM     22  C   UNL     1      16.479  31.688  25.519  0.00  0.00    -0.064 C 
ATOM     23  N   UNL     1      16.049  30.409  26.240  0.00  0.00    +0.379 N 
ATOM     24  C   UNL     1      14.684  30.573  26.759  0.00  0.00    -0.096 C 
ATOM     25  H   UNL     1      16.729  30.269  27.113  0.00  0.00    -0.082 HD
ATOM     26  C   UNL     1      16.202  29.193  25.337  0.00  0.00    -0.064 C 
ATOM     27  C   UNL     1      17.664  29.065  24.825  0.00  0.00    +0.066 C 
ENDBRANCH  19  20
ENDBRANCH  18  19
ENDBRANCH  14  15
ENDBRANCH  12  13
TORSDOF 6
ENDMDL
MODEL 5
REMARK VINA RESULT:      -8.0      7.084      8.454
REMARK  Name = C:\Users\Docking\Desktop\test protocol\1iep_ligandH.pdb
REMARK  8 active torsions:
REMARK  status: ('A' for Active; 'I' for Inactive)
REMARK    1  A    between atoms: _5  and  _11
REMARK    2  A    between atoms: _19  and  _21
REMARK    3  A    between atoms: _22  and  _66
REMARK    4  A    between atoms: _27  and  _30
REMARK    5  A    between atoms: _32  and  _33
REMARK    6  A    between atoms: _38  and  _43
REMARK    7  A    between atoms: _43  and  _46
REMARK    8  A    between atoms: _53  and  _55
REMARK                            x       y       z     vdW  Elec       q    Type
REMARK                         _______ _______ _______ _____ _____    ______ ____
ROOT
ATOM     10  C   UNL     1      23.713  34.484   8.847  0.00  0.00    +0.038 A 
ATOM     11  C   UNL     1      24.652  35.506   9.136  0.00  0.00    +0.047 A 
ATOM     12  C   UNL     1      24.293  36.911   9.027  0.00  0.00    +0.035 A 
ATOM     32  C   UNL     1      22.966  37.240   8.624  0.00  0.00    +0.024 A 
ATOM     33  C   UNL     1      21.998  36.214   8.325  0.00  0.00    +0.007 A 
ATOM     34  C   UNL     1      22.348  34.826   8.428  0.00  0.00    -0.029 A 
ATOM     35  C   UNL     1      21.272  33.768   8.089  0.00  0.00    +0.045 C 
ENDROOT
BRANCH  10   9
ATOM      4  C   UNL     1      24.053  30.373  11.302  0.00  0.00    +0.077 A 
ATOM      5  C   UNL     1      23.405  30.937  12.451  0.00  0.00    +0.048 A 
ATOM      6  C   UNL     1      23.006  32.291  12.372  0.00  0.00    +0.116 A 
ATOM      7  N   UNL     1      23.242  33.016  11.224  0.00  0.00    -0.223 NA
ATOM      8  C   UNL     1      23.871  32.442  10.135  0.00  0.00    +0.220 A 
ATOM      9  N   UNL     1      24.111  33.151   8.968  0.00  0.00    -0.283 N 
ATOM     36  H   UNL     1      24.585  32.693   8.189  0.00  0.00    +0.155 HD
ATOM     37  N   UNL     1      24.263  31.152  10.186  0.00  0.00    -0.214 NA
BRANCH   4   3
ATOM      1  C   UNL     1      25.683  26.934  12.201  0.00  0.00    +0.020 A 
ATOM      2  C   UNL     1      25.245  28.305  12.321  0.00  0.00    +0.013 A 
ATOM      3  C   UNL     1      24.529  28.956  11.231  0.00  0.00    +0.019 A 
ATOM     38  C   UNL     1      24.271  28.185  10.024  0.00  0.00    +0.120 A 
ATOM     39  N   UNL     1      24.706  26.866   9.937  0.00  0.00    -0.263 NA
ATOM     40  C   UNL     1      25.397  26.230  10.979  0.00  0.00    +0.111 A 
ENDBRANCH   4   3
ENDBRANCH  10   9
BRANCH  12  13
ATOM     13  N   UNL     1      25.207  37.992   9.300  0.00  0.00    -0.281 N 
ATOM     14  C   UNL     1      25.163  38.902  10.344  0.00  0.00    +0.248 C 
ATOM     30  O   UNL     1      24.205  39.056  11.086  0.00  0.00    -0.270 OA
ATOM     31  H   UNL     1      25.981  38.100   8.644  0.00  0.00    +0.155 HD
BRANCH  14  15
ATOM     15  C   UNL     1      26.350  39.776  10.590  0.00  0.00    +0.037 A 
ATOM     16  C   UNL     1      27.364  39.990   9.555  0.00  0.00    +0.013 A 
ATOM     17  C   UNL     1      28.508  40.825   9.825  0.00  0.00    +0.005 A 
ATOM     18  C   UNL     1      28.643  41.453  11.137  0.00  0.00    -0.033 A 
ATOM     28  C   UNL     1      27.619  41.228  12.144  0.00  0.00    +0.005 A 
ATOM     29  C   UNL     1      26.497  40.410  11.883  0.00  0.00    +0.013 A 
BRANCH  18  19
ATOM     19  C   UNL     1      29.841  42.342  11.519  0.00  0.00    +0.119 C 
BRANCH  19  20
ATOM     20  N   UNL     1      31.180  41.685  11.605  0.00  0.00    -0.302 NA
ATOM     21  C   UNL     1      31.125  40.368  12.383  0.00  0.00    +0.066 C 
ATOM     22  C   UNL     1      32.529  39.683  12.444  0.00  0.00    -0.064 C 
ATOM     23  N   UNL     1      33.535  40.645  13.078  0.00  0.00    +0.379 N 
ATOM     24  C   UNL     1      34.843  39.983  13.190  0.00  0.00    -0.096 C 
ATOM     25  H   UNL     1      33.181  40.872  14.111  0.00  0.00    -0.082 HD
ATOM     26  C   UNL     1      33.594  41.959  12.312  0.00  0.00    -0.064 C 
ATOM     27  C   UNL     1      32.188  42.616  12.233  0.00  0.00    +0.066 C 
ENDBRANCH  19  20
ENDBRANCH  18  19
ENDBRANCH  14  15
ENDBRANCH  12  13
TORSDOF 6
ENDMDL
