MODEL 1
REMARK VINA RESULT:      -8.2      0.000      0.000
REMARK  Name = C:\Users\Docking\Desktop\test protocol\1iep_ligandH.pdb
REMARK  8 active torsions:
REMARK  status: ('A' for Active; 'I' for Inactive)
REMARK    1  A    between atoms: _5  and  _11
REMARK    2  A    between atoms: _19  and  _21
REMARK    3  A    between atoms: _22  and  _66
REMARK    4  A    between atoms: _27  and  _30
REMARK    5  A    between atoms: _32  and  _33
REMARK    6  A    between atoms: _38  and  _43
REMARK    7  A    between atoms: _43  and  _46
REMARK    8  A    between atoms: _53  and  _55
REMARK                            x       y       z     vdW  Elec       q    Type
REMARK                         _______ _______ _______ _____ _____    ______ ____
ROOT
ATOM     10  C   UNL     1      20.013  29.939  22.166  0.00  0.00    +0.038 A 
ATOM     11  C   UNL     1      20.226  29.870  20.765  0.00  0.00    +0.047 A 
ATOM     12  C   UNL     1      19.516  30.752  19.852  0.00  0.00    +0.035 A 
ATOM     32  C   UNL     1      18.597  31.694  20.400  0.00  0.00    +0.024 A 
ATOM     33  C   UNL     1      18.367  31.777  21.821  0.00  0.00    +0.007 A 
ATOM     34  C   UNL     1      19.064  30.908  22.726  0.00  0.00    -0.029 A 
ATOM     35  C   UNL     1      18.773  31.037  24.240  0.00  0.00    +0.045 C 
ENDROOT
BRANCH  10   9
ATOM      4  C   UNL     1      20.397  25.887  24.709  0.00  0.00    +0.077 A 
ATOM      5  C   UNL     1      19.061  25.481  24.376  0.00  0.00    +0.048 A 
ATOM      6  C   UNL     1      18.306  26.348  23.553  0.00  0.00    +0.116 A 
ATOM      7  N   UNL     1      18.856  27.528  23.103  0.00  0.00    -0.223 NA
ATOM      8  C   UNL     1      20.147  27.890  23.445  0.00  0.00    +0.220 A 
ATOM      9  N   UNL     1      20.722  29.069  22.997  0.00  0.00    -0.283 N 
ATOM     36  H   UNL     1      21.674  29.303  23.277  0.00  0.00    +0.155 HD
ATOM     37  N   UNL     1      20.887  27.081  24.230  0.00  0.00    -0.214 NA
BRANCH   4   3
ATOM      1  C   UNL     1      23.589  24.134  26.137  0.00  0.00    +0.020 A 
ATOM      2  C   UNL     1      22.740  24.927  25.277  0.00  0.00    +0.013 A 
ATOM      3  C   UNL     1      21.320  25.077  25.566  0.00  0.00    +0.019 A 
ATOM     38  C   UNL     1      20.785  24.408  26.742  0.00  0.00    +0.120 A 
ATOM     39  N   UNL     1      21.626  23.650  27.551  0.00  0.00    -0.263 NA
ATOM     40  C   UNL     1      22.994  23.497  27.282  0.00  0.00    +0.111 A 
ENDBRANCH   4   3
ENDBRANCH  10   9
BRANCH  12  13
ATOM     13  N   UNL     1      19.685  30.722  18.420  0.00  0.00    -0.281 N 
ATOM     14  C   UNL     1      20.493  31.534  17.641  0.00  0.00    +0.248 C 
ATOM     30  O   UNL     1      21.035  32.555  18.038  0.00  0.00    -0.270 OA
ATOM     31  H   UNL     1      19.143  30.017  17.920  0.00  0.00    +0.155 HD
BRANCH  14  15
ATOM     15  C   UNL     1      20.721  31.166  16.211  0.00  0.00    +0.037 A 
ATOM     16  C   UNL     1      19.963  30.086  15.574  0.00  0.00    +0.013 A 
ATOM     17  C   UNL     1      20.215  29.740  14.197  0.00  0.00    +0.005 A 
ATOM     18  C   UNL     1      21.230  30.477  13.448  0.00  0.00    -0.033 A 
ATOM     28  C   UNL     1      21.963  31.547  14.103  0.00  0.00    +0.005 A 
ATOM     29  C   UNL     1      21.720  31.888  15.452  0.00  0.00    +0.013 A 
BRANCH  18  19
ATOM     19  C   UNL     1      21.579  30.162  11.981  0.00  0.00    +0.119 C 
BRANCH  19  20
ATOM     20  N   UNL     1      22.568  29.071  11.733  0.00  0.00    -0.302 NA
ATOM     21  C   UNL     1      23.443  29.355  10.509  0.00  0.00    +0.066 C 
ATOM     22  C   UNL     1      24.487  28.214  10.278  0.00  0.00    -0.064 C 
ATOM     23  N   UNL     1      23.754  26.881  10.121  0.00  0.00    +0.379 N 
ATOM     24  C   UNL     1      24.729  25.815   9.846  0.00  0.00    -0.096 C 
ATOM     25  H   UNL     1      23.085  26.965   9.234  0.00  0.00    -0.082 HD
ATOM     26  C   UNL     1      22.880  26.591  11.333  0.00  0.00    -0.064 C 
ATOM     27  C   UNL     1      21.866  27.745  11.571  0.00  0.00    +0.066 C 
ENDBRANCH  19  20
ENDBRANCH  18  19
ENDBRANCH  14  15
ENDBRANCH  12  13
TORSDOF 6
ENDMDL
MODEL 2
REMARK VINA RESULT:      -8.1      1.921      2.782
REMARK  Name = C:\Users\Docking\Desktop\test protocol\1iep_ligandH.pdb
REMARK  8 active torsions:
REMARK  status: ('A' for Active; 'I' for Inactive)
REMARK    1  A    between atoms: _5  and  _11
REMARK    2  A    between atoms: _19  and  _21
REMARK    3  A    between atoms: _22  and  _66
REMARK    4  A    between atoms: _27  and  _30
REMARK    5  A    between atoms: _32  and  _33
REMARK    6  A    between atoms: _38  and  _43
REMARK    7  A    between atoms: _43  and  _46
REMARK    8  A    between atoms: _53  and  _55
REMARK                            x       y       z     vdW  Elec       q    Type
REMARK                         _______ _______ _______ _____ _____    ______ ____
ROOT
ATOM     10  C   UNL     1      20.271  30.121  21.899  0.00  0.00    +0.038 A 
ATOM     11  C   UNL     1      20.576  30.093  20.514  0.00  0.00    +0.047 A 
ATOM     12  C   UNL     1      19.938  31.012  19.584  0.00  0.00    +0.035 A 
ATOM     32  C   UNL     1      18.996  31.948  20.100  0.00  0.00    +0.024 A 
ATOM     33  C   UNL     1      18.673  31.990  21.505  0.00  0.00    +0.007 A 
ATOM     34  C   UNL     1      19.298  31.084  22.426  0.00  0.00    -0.029 A 
ATOM     35  C   UNL     1      18.909  31.169  23.921  0.00  0.00    +0.045 C 
ENDROOT
BRANCH  10   9
ATOM      4  C   UNL     1      20.365  26.079  24.486  0.00  0.00    +0.077 A 
ATOM      5  C   UNL     1      19.010  25.757  24.142  0.00  0.00    +0.048 A 
ATOM      6  C   UNL     1      18.321  26.662  23.302  0.00  0.00    +0.116 A 
ATOM      7  N   UNL     1      18.951  27.799  22.847  0.00  0.00    -0.223 NA
ATOM      8  C   UNL     1      20.258  28.081  23.199  0.00  0.00    +0.220 A 
ATOM      9  N   UNL     1      20.914  29.215  22.746  0.00  0.00    -0.283 N 
ATOM     36  H   UNL     1      21.876  29.391  23.035  0.00  0.00    +0.155 HD
ATOM     37  N   UNL     1      20.937  27.234  24.001  0.00  0.00    -0.214 NA
BRANCH   4   3
ATOM      1  C   UNL     1      23.426  24.156  25.979  0.00  0.00    +0.020 A 
ATOM      2  C   UNL     1      22.641  24.993  25.103  0.00  0.00    +0.013 A 
ATOM      3  C   UNL     1      21.224  25.221  25.361  0.00  0.00    +0.019 A 
ATOM     38  C   UNL     1      20.629  24.582  26.525  0.00  0.00    +0.120 A 
ATOM     39  N   UNL     1      21.410  23.779  27.351  0.00  0.00    -0.263 NA
ATOM     40  C   UNL     1      22.774  23.552  27.111  0.00  0.00    +0.111 A 
ENDBRANCH   4   3
ENDBRANCH  10   9
BRANCH  12  13
ATOM     13  N   UNL     1      20.201  31.025  18.167  0.00  0.00    -0.281 N 
ATOM     14  C   UNL     1      20.878  31.987  17.435  0.00  0.00    +0.248 C 
ATOM     30  O   UNL     1      21.175  33.094  17.858  0.00  0.00    -0.270 OA
ATOM     31  H   UNL     1      19.846  30.228  17.639  0.00  0.00    +0.155 HD
BRANCH  14  15
ATOM     15  C   UNL     1      21.267  31.681  16.025  0.00  0.00    +0.037 A 
ATOM     16  C   UNL     1      20.770  30.484  15.342  0.00  0.00    +0.013 A 
ATOM     17  C   UNL     1      21.175  30.203  13.988  0.00  0.00    +0.005 A 
ATOM     18  C   UNL     1      22.082  31.123  13.306  0.00  0.00    -0.033 A 
ATOM     28  C   UNL     1      22.556  32.306  14.005  0.00  0.00    +0.005 A 
ATOM     29  C   UNL     1      22.162  32.584  15.333  0.00  0.00    +0.013 A 
BRANCH  18  19
ATOM     19  C   UNL     1      22.583  30.892  11.868  0.00  0.00    +0.119 C 
BRANCH  19  20
ATOM     20  N   UNL     1      22.504  32.045  10.923  0.00  0.00    -0.302 NA
ATOM     21  C   UNL     1      21.057  32.463  10.646  0.00  0.00    +0.066 C 
ATOM     22  C   UNL     1      20.994  33.685   9.673  0.00  0.00    -0.064 C 
ATOM     23  N   UNL     1      21.715  33.334   8.370  0.00  0.00    +0.379 N 
ATOM     24  C   UNL     1      21.608  34.460   7.431  0.00  0.00    -0.096 C 
ATOM     25  H   UNL     1      21.188  32.463   7.916  0.00  0.00    -0.082 HD
ATOM     26  C   UNL     1      23.154  32.914   8.636  0.00  0.00    -0.064 C 
ATOM     27  C   UNL     1      23.206  31.718   9.628  0.00  0.00    +0.066 C 
ENDBRANCH  19  20
ENDBRANCH  18  19
ENDBRANCH  14  15
ENDBRANCH  12  13
TORSDOF 6
ENDMDL
MODEL 3
REMARK VINA RESULT:      -8.0      3.657      7.504
REMARK  Name = C:\Users\Docking\Desktop\test protocol\1iep_ligandH.pdb
REMARK  8 active torsions:
REMARK  status: ('A' for Active; 'I' for Inactive)
REMARK    1  A    between atoms: _5  and  _11
REMARK    2  A    between atoms: _19  and  _21
REMARK    3  A    between atoms: _22  and  _66
REMARK    4  A    between atoms: _27  and  _30
REMARK    5  A    between atoms: _32  and  _33
REMARK    6  A    between atoms: _38  and  _43
REMARK    7  A    between atoms: _43  and  _46
REMARK    8  A    between atoms: _53  and  _55
REMARK                            x       y       z     vdW  Elec       q    Type
REMARK                         _______ _______ _______ _____ _____    ______ ____
ROOT
ATOM     10  C   UNL     1      21.876  31.726  15.168  0.00  0.00    +0.038 A 
ATOM     11  C   UNL     1      22.197  30.608  14.356  0.00  0.00    +0.047 A 
ATOM     12  C   UNL     1      22.317  30.735  12.912  0.00  0.00    +0.035 A 
ATOM     32  C   UNL     1      22.106  32.018  12.328  0.00  0.00    +0.024 A 
ATOM     33  C   UNL     1      21.778  33.165  13.137  0.00  0.00    +0.007 A 
ATOM     34  C   UNL     1      21.656  33.045  14.562  0.00  0.00    -0.029 A 
ATOM     35  C   UNL     1      21.296  34.307  15.379  0.00  0.00    +0.045 C 
ENDROOT
BRANCH  10   9
ATOM      4  C   UNL     1      19.422  30.499  19.106  0.00  0.00    +0.077 A 
ATOM      5  C   UNL     1      18.236  30.216  18.350  0.00  0.00    +0.048 A 
ATOM      6  C   UNL     1      18.296  30.407  16.951  0.00  0.00    +0.116 A 
ATOM      7  N   UNL     1      19.462  30.846  16.363  0.00  0.00    -0.223 NA
ATOM      8  C   UNL     1      20.588  31.111  17.121  0.00  0.00    +0.220 A 
ATOM      9  N   UNL     1      21.773  31.547  16.549  0.00  0.00    -0.283 N 
ATOM     36  H   UNL     1      22.580  31.738  17.143  0.00  0.00    +0.155 HD
ATOM     37  N   UNL     1      20.555  30.939  18.458  0.00  0.00    -0.214 NA
BRANCH   4   3
ATOM      1  C   UNL     1      20.705  29.609  22.692  0.00  0.00    +0.020 A 
ATOM      2  C   UNL     1      20.663  29.735  21.254  0.00  0.00    +0.013 A 
ATOM      3  C   UNL     1      19.516  30.343  20.592  0.00  0.00    +0.019 A 
ATOM     38  C   UNL     1      18.419  30.818  21.421  0.00  0.00    +0.120 A 
ATOM     39  N   UNL     1      18.486  30.682  22.804  0.00  0.00    -0.263 NA
ATOM     40  C   UNL     1      19.584  30.097  23.452  0.00  0.00    +0.111 A 
ENDBRANCH   4   3
ENDBRANCH  10   9
BRANCH  12  13
ATOM     13  N   UNL     1      22.633  29.634  12.037  0.00  0.00    -0.281 N 
ATOM     14  C   UNL     1      23.634  28.688  12.186  0.00  0.00    +0.248 C 
ATOM     30  O   UNL     1      24.550  28.772  12.990  0.00  0.00    -0.270 OA
ATOM     31  H   UNL     1      22.048  29.540  11.207  0.00  0.00    +0.155 HD
BRANCH  14  15
ATOM     15  C   UNL     1      23.623  27.480  11.305  0.00  0.00    +0.037 A 
ATOM     16  C   UNL     1      22.576  26.462  11.424  0.00  0.00    +0.013 A 
ATOM     17  C   UNL     1      22.599  25.299  10.573  0.00  0.00    +0.005 A 
ATOM     18  C   UNL     1      23.672  25.149   9.594  0.00  0.00    -0.033 A 
ATOM     28  C   UNL     1      24.695  26.176   9.493  0.00  0.00    +0.005 A 
ATOM     29  C   UNL     1      24.677  27.318  10.326  0.00  0.00    +0.013 A 
BRANCH  18  19
ATOM     19  C   UNL     1      23.787  23.930   8.659  0.00  0.00    +0.119 C 
BRANCH  19  20
ATOM     20  N   UNL     1      24.006  24.200   7.207  0.00  0.00    -0.302 NA
ATOM     21  C   UNL     1      22.697  24.167   6.413  0.00  0.00    +0.066 C 
ATOM     22  C   UNL     1      22.942  24.474   4.900  0.00  0.00    -0.064 C 
ATOM     23  N   UNL     1      23.943  23.466   4.333  0.00  0.00    +0.379 N 
ATOM     24  C   UNL     1      24.131  23.716   2.897  0.00  0.00    -0.096 C 
ATOM     25  H   UNL     1      23.500  22.450   4.445  0.00  0.00    -0.082 HD
ATOM     26  C   UNL     1      25.247  23.490   5.119  0.00  0.00    -0.064 C 
ATOM     27  C   UNL     1      24.989  23.213   6.626  0.00  0.00    +0.066 C 
ENDBRANCH  19  20
ENDBRANCH  18  19
ENDBRANCH  14  15
ENDBRANCH  12  13
TORSDOF 6
ENDMDL
MODEL 4
REMARK VINA RESULT:      -7.8     12.501     17.013
REMARK  Name = C:\Users\Docking\Desktop\test protocol\1iep_ligandH.pdb
REMARK  8 active torsions:
REMARK  status: ('A' for Active; 'I' for Inactive)
REMARK    1  A    between atoms: _5  and  _11
REMARK    2  A    between atoms: _19  and  _21
REMARK    3  A    between atoms: _22  and  _66
REMARK    4  A    between atoms: _27  and  _30
REMARK    5  A    between atoms: _32  and  _33
REMARK    6  A    between atoms: _38  and  _43
REMARK    7  A    between atoms: _43  and  _46
REMARK    8  A    between atoms: _53  and  _55
REMARK                            x       y       z     vdW  Elec       q    Type
REMARK                         _______ _______ _______ _____ _____    ______ ____
ROOT
ATOM     10  C   UNL     1      27.876  19.995  29.195  0.00  0.00    +0.038 A 
ATOM     11  C   UNL     1      26.492  20.259  29.358  0.00  0.00    +0.047 A 
ATOM     12  C   UNL     1      25.992  21.622  29.449  0.00  0.00    +0.035 A 
ATOM     32  C   UNL     1      26.930  22.693  29.366  0.00  0.00    +0.024 A 
ATOM     33  C   UNL     1      28.340  22.442  29.201  0.00  0.00    +0.007 A 
ATOM     34  C   UNL     1      28.839  21.100  29.113  0.00  0.00    -0.029 A 
ATOM     35  C   UNL     1      30.362  20.890  28.943  0.00  0.00    +0.045 C 
ENDROOT
BRANCH  10   9
ATOM      4  C   UNL     1      29.406  15.911  31.199  0.00  0.00    +0.077 A 
ATOM      5  C   UNL     1      29.382  16.479  32.516  0.00  0.00    +0.048 A 
ATOM      6  C   UNL     1      28.977  17.828  32.634  0.00  0.00    +0.116 A 
ATOM      7  N   UNL     1      28.624  18.545  31.511  0.00  0.00    -0.223 NA
ATOM      8  C   UNL     1      28.660  17.967  30.255  0.00  0.00    +0.220 A 
ATOM      9  N   UNL     1      28.301  18.667  29.114  0.00  0.00    -0.283 N 
ATOM     36  H   UNL     1      28.348  18.207  28.205  0.00  0.00    +0.155 HD
ATOM     37  N   UNL     1      29.045  16.681  30.116  0.00  0.00    -0.214 NA
BRANCH   4   3
ATOM      1  C   UNL     1      30.761  12.263  31.591  0.00  0.00    +0.020 A 
ATOM      2  C   UNL     1      30.391  13.620  31.919  0.00  0.00    +0.013 A 
ATOM      3  C   UNL     1      29.809  14.498  30.912  0.00  0.00    +0.019 A 
ATOM     38  C   UNL     1      29.613  13.967  29.571  0.00  0.00    +0.120 A 
ATOM     39  N   UNL     1      29.981  12.657  29.284  0.00  0.00    -0.263 NA
ATOM     40  C   UNL     1      30.543  11.803  30.244  0.00  0.00    +0.111 A 
ENDBRANCH   4   3
ENDBRANCH  10   9
BRANCH  12  13
ATOM     13  N   UNL     1      24.599  21.952  29.623  0.00  0.00    -0.281 N 
ATOM     14  C   UNL     1      23.871  22.939  28.980  0.00  0.00    +0.248 C 
ATOM     30  O   UNL     1      24.362  23.834  28.308  0.00  0.00    -0.270 OA
ATOM     31  H   UNL     1      24.088  21.389  30.304  0.00  0.00    +0.155 HD
BRANCH  14  15
ATOM     15  C   UNL     1      22.382  22.941  29.115  0.00  0.00    +0.037 A 
ATOM     16  C   UNL     1      21.707  22.091  30.098  0.00  0.00    +0.013 A 
ATOM     17  C   UNL     1      20.268  22.100  30.196  0.00  0.00    +0.005 A 
ATOM     18  C   UNL     1      19.496  22.964  29.306  0.00  0.00    -0.033 A 
ATOM     28  C   UNL     1      20.192  23.801  28.343  0.00  0.00    +0.005 A 
ATOM     29  C   UNL     1      21.601  23.794  28.244  0.00  0.00    +0.013 A 
BRANCH  18  19
ATOM     19  C   UNL     1      17.957  23.021  29.326  0.00  0.00    +0.119 C 
BRANCH  19  20
ATOM     20  N   UNL     1      17.302  23.373  30.621  0.00  0.00    -0.302 NA
ATOM     21  C   UNL     1      15.775  23.402  30.504  0.00  0.00    +0.066 C 
ATOM     22  C   UNL     1      15.106  23.750  31.873  0.00  0.00    -0.064 C 
ATOM     23  N   UNL     1      15.636  25.096  32.370  0.00  0.00    +0.379 N 
ATOM     24  C   UNL     1      14.966  25.454  33.628  0.00  0.00    -0.096 C 
ATOM     25  H   UNL     1      15.365  25.867  31.611  0.00  0.00    -0.082 HD
ATOM     26  C   UNL     1      17.154  25.077  32.486  0.00  0.00    -0.064 C 
ATOM     27  C   UNL     1      17.808  24.701  31.128  0.00  0.00    +0.066 C 
ENDBRANCH  19  20
ENDBRANCH  18  19
ENDBRANCH  14  15
ENDBRANCH  12  13
TORSDOF 6
ENDMDL
MODEL 5
REMARK VINA RESULT:      -7.8      3.638     12.868
REMARK  Name = C:\Users\Docking\Desktop\test protocol\1iep_ligandH.pdb
REMARK  8 active torsions:
REMARK  status: ('A' for Active; 'I' for Inactive)
REMARK    1  A    between atoms: _5  and  _11
REMARK    2  A    between atoms: _19  and  _21
REMARK    3  A    between atoms: _22  and  _66
REMARK    4  A    between atoms: _27  and  _30
REMARK    5  A    between atoms: _32  and  _33
REMARK    6  A    between atoms: _38  and  _43
REMARK    7  A    between atoms: _43  and  _46
REMARK    8  A    between atoms: _53  and  _55
REMARK                            x       y       z     vdW  Elec       q    Type
REMARK                         _______ _______ _______ _____ _____    ______ ____
ROOT
ATOM     10  C   UNL     1      17.985  27.128  21.944  0.00  0.00    +0.038 A 
ATOM     11  C   UNL     1      18.955  26.508  22.773  0.00  0.00    +0.047 A 
ATOM     12  C   UNL     1      18.586  25.913  24.048  0.00  0.00    +0.035 A 
ATOM     32  C   UNL     1      17.219  25.965  24.447  0.00  0.00    +0.024 A 
ATOM     33  C   UNL     1      16.220  26.592  23.618  0.00  0.00    +0.007 A 
ATOM     34  C   UNL     1      16.578  27.182  22.360  0.00  0.00    -0.029 A 
ATOM     35  C   UNL     1      15.466  27.847  21.515  0.00  0.00    +0.045 C 
ENDROOT
BRANCH  10   9
ATOM      4  C   UNL     1      19.910  30.676  19.348  0.00  0.00    +0.077 A 
ATOM      5  C   UNL     1      20.090  31.505  20.505  0.00  0.00    +0.048 A 
ATOM      6  C   UNL     1      19.668  30.983  21.749  0.00  0.00    +0.116 A 
ATOM      7  N   UNL     1      19.108  29.726  21.818  0.00  0.00    -0.223 NA
ATOM      8  C   UNL     1      18.947  28.954  20.682  0.00  0.00    +0.220 A 
ATOM      9  N   UNL     1      18.395  27.683  20.730  0.00  0.00    -0.283 N 
ATOM     36  H   UNL     1      18.286  27.148  19.869  0.00  0.00    +0.155 HD
ATOM     37  N   UNL     1      19.341  29.429  19.483  0.00  0.00    -0.214 NA
BRANCH   4   3
ATOM      1  C   UNL     1      21.514  32.591  16.338  0.00  0.00    +0.020 A 
ATOM      2  C   UNL     1      21.158  32.239  17.693  0.00  0.00    +0.013 A 
ATOM      3  C   UNL     1      20.309  31.086  17.964  0.00  0.00    +0.019 A 
ATOM     38  C   UNL     1      19.835  30.303  16.833  0.00  0.00    +0.120 A 
ATOM     39  N   UNL     1      20.193  30.666  15.539  0.00  0.00    -0.263 NA
ATOM     40  C   UNL     1      21.008  31.775  15.266  0.00  0.00    +0.111 A 
ENDBRANCH   4   3
ENDBRANCH  10   9
BRANCH  12  13
ATOM     13  N   UNL     1      19.529  25.277  24.935  0.00  0.00    -0.281 N 
ATOM     14  C   UNL     1      20.873  25.568  25.099  0.00  0.00    +0.248 C 
ATOM     30  O   UNL     1      21.522  26.282  24.349  0.00  0.00    -0.270 OA
ATOM     31  H   UNL     1      19.160  24.521  25.511  0.00  0.00    +0.155 HD
BRANCH  14  15
ATOM     15  C   UNL     1      21.605  24.968  26.255  0.00  0.00    +0.037 A 
ATOM     16  C   UNL     1      23.014  25.281  26.508  0.00  0.00    +0.013 A 
ATOM     17  C   UNL     1      23.702  24.675  27.620  0.00  0.00    +0.005 A 
ATOM     18  C   UNL     1      22.980  23.751  28.491  0.00  0.00    -0.033 A 
ATOM     28  C   UNL     1      21.581  23.462  28.221  0.00  0.00    +0.005 A 
ATOM     29  C   UNL     1      20.904  24.053  27.131  0.00  0.00    +0.013 A 
BRANCH  18  19
ATOM     19  C   UNL     1      23.639  23.042  29.688  0.00  0.00    +0.119 C 
BRANCH  19  20
ATOM     20  N   UNL     1      24.613  21.951  29.386  0.00  0.00    -0.302 NA
ATOM     21  C   UNL     1      24.273  20.655  30.128  0.00  0.00    +0.066 C 
ATOM     22  C   UNL     1      25.289  19.518  29.783  0.00  0.00    -0.064 C 
ATOM     23  N   UNL     1      26.706  19.982  30.124  0.00  0.00    +0.379 N 
ATOM     24  C   UNL     1      27.657  18.894  29.854  0.00  0.00    -0.096 C 
ATOM     25  H   UNL     1      26.737  20.196  31.218  0.00  0.00    -0.082 HD
ATOM     26  C   UNL     1      27.051  21.271  29.392  0.00  0.00    -0.064 C 
ATOM     27  C   UNL     1      26.019  22.386  29.719  0.00  0.00    +0.066 C 
ENDBRANCH  19  20
ENDBRANCH  18  19
ENDBRANCH  14  15
ENDBRANCH  12  13
TORSDOF 6
ENDMDL
