MODEL 1
REMARK VINA RESULT:      -7.9      0.000      0.000
REMARK  Name = C:\Users\Docking\Desktop\test protocol\1iep_ligandH.pdb
REMARK  8 active torsions:
REMARK  status: ('A' for Active; 'I' for Inactive)
REMARK    1  A    between atoms: _5  and  _11
REMARK    2  A    between atoms: _19  and  _21
REMARK    3  A    between atoms: _22  and  _66
REMARK    4  A    between atoms: _27  and  _30
REMARK    5  A    between atoms: _32  and  _33
REMARK    6  A    between atoms: _38  and  _43
REMARK    7  A    between atoms: _43  and  _46
REMARK    8  A    between atoms: _53  and  _55
REMARK                            x       y       z     vdW  Elec       q    Type
REMARK                         _______ _______ _______ _____ _____    ______ ____
ROOT
ATOM     10  C   UNL     1      15.983 -11.932  -4.389  0.00  0.00    +0.038 A 
ATOM     11  C   UNL     1      16.110 -10.918  -5.372  0.00  0.00    +0.047 A 
ATOM     12  C   UNL     1      15.739  -9.541  -5.086  0.00  0.00    +0.035 A 
ATOM     32  C   UNL     1      15.243  -9.231  -3.785  0.00  0.00    +0.024 A 
ATOM     33  C   UNL     1      15.106 -10.250  -2.774  0.00  0.00    +0.007 A 
ATOM     34  C   UNL     1      15.469 -11.610  -3.052  0.00  0.00    -0.029 A 
ATOM     35  C   UNL     1      15.295 -12.662  -1.931  0.00  0.00    +0.045 C 
ENDROOT
BRANCH  10   9
ATOM      4  C   UNL     1      14.952 -16.384  -5.855  0.00  0.00    +0.077 A 
ATOM      5  C   UNL     1      13.550 -16.093  -5.947  0.00  0.00    +0.048 A 
ATOM      6  C   UNL     1      13.135 -14.787  -5.601  0.00  0.00    +0.116 A 
ATOM      7  N   UNL     1      14.061 -13.851  -5.195  0.00  0.00    -0.223 NA
ATOM      8  C   UNL     1      15.405 -14.165  -5.116  0.00  0.00    +0.220 A 
ATOM      9  N   UNL     1      16.355 -13.237  -4.718  0.00  0.00    -0.283 N 
ATOM     36  H   UNL     1      17.336 -13.510  -4.665  0.00  0.00    +0.155 HD
ATOM     37  N   UNL     1      15.827 -15.405  -5.439  0.00  0.00    -0.214 NA
BRANCH   4   3
ATOM      1  C   UNL     1      15.748 -19.776  -7.633  0.00  0.00    +0.020 A 
ATOM      2  C   UNL     1      15.143 -18.494  -7.354  0.00  0.00    +0.013 A 
ATOM      3  C   UNL     1      15.546 -17.717  -6.189  0.00  0.00    +0.019 A 
ATOM     38  C   UNL     1      16.573 -18.269  -5.319  0.00  0.00    +0.120 A 
ATOM     39  N   UNL     1      17.137 -19.507  -5.611  0.00  0.00    -0.263 NA
ATOM     40  C   UNL     1      16.756 -20.265  -6.729  0.00  0.00    +0.111 A 
ENDBRANCH   4   3
ENDBRANCH  10   9
BRANCH  12  13
ATOM     13  N   UNL     1      15.838  -8.470  -6.046  0.00  0.00    -0.281 N 
ATOM     14  C   UNL     1      16.908  -8.163  -6.871  0.00  0.00    +0.248 C 
ATOM     30  O   UNL     1      18.029  -8.636  -6.755  0.00  0.00    -0.270 OA
ATOM     31  H   UNL     1      15.021  -7.866  -6.129  0.00  0.00    +0.155 HD
BRANCH  14  15
ATOM     15  C   UNL     1      16.708  -7.177  -7.977  0.00  0.00    +0.037 A 
ATOM     16  C   UNL     1      15.494  -7.192  -8.798  0.00  0.00    +0.013 A 
ATOM     17  C   UNL     1      15.334  -6.241  -9.869  0.00  0.00    +0.005 A 
ATOM     18  C   UNL     1      16.390  -5.265 -10.123  0.00  0.00    -0.033 A 
ATOM     28  C   UNL     1      17.581  -5.269  -9.290  0.00  0.00    +0.005 A 
ATOM     29  C   UNL     1      17.743  -6.200  -8.240  0.00  0.00    +0.013 A 
BRANCH  18  19
ATOM     19  C   UNL     1      16.313  -4.226 -11.258  0.00  0.00    +0.119 C 
BRANCH  19  20
ATOM     20  N   UNL     1      16.206  -2.789 -10.864  0.00  0.00    -0.302 NA
ATOM     21  C   UNL     1      14.786  -2.247 -11.051  0.00  0.00    +0.066 C 
ATOM     22  C   UNL     1      14.687  -0.750 -10.613  0.00  0.00    -0.064 C 
ATOM     23  N   UNL     1      15.693   0.080 -11.412  0.00  0.00    +0.379 N 
ATOM     24  C   UNL     1      15.561   1.498 -11.044  0.00  0.00    -0.096 C 
ATOM     25  H   UNL     1      15.428  -0.015 -12.491  0.00  0.00    -0.082 HD
ATOM     26  C   UNL     1      17.107  -0.454 -11.234  0.00  0.00    -0.064 C 
ATOM     27  C   UNL     1      17.188  -1.951 -11.645  0.00  0.00    +0.066 C 
ENDBRANCH  19  20
ENDBRANCH  18  19
ENDBRANCH  14  15
ENDBRANCH  12  13
TORSDOF 6
ENDMDL
MODEL 2
REMARK VINA RESULT:      -7.7      4.864      7.847
REMARK  Name = C:\Users\Docking\Desktop\test protocol\1iep_ligandH.pdb
REMARK  8 active torsions:
REMARK  status: ('A' for Active; 'I' for Inactive)
REMARK    1  A    between atoms: _5  and  _11
REMARK    2  A    between atoms: _19  and  _21
REMARK    3  A    between atoms: _22  and  _66
REMARK    4  A    between atoms: _27  and  _30
REMARK    5  A    between atoms: _32  and  _33
REMARK    6  A    between atoms: _38  and  _43
REMARK    7  A    between atoms: _43  and  _46
REMARK    8  A    between atoms: _53  and  _55
REMARK                            x       y       z     vdW  Elec       q    Type
REMARK                         _______ _______ _______ _____ _____    ______ ____
ROOT
ATOM     10  C   UNL     1      15.447  -8.737  -8.541  0.00  0.00    +0.038 A 
ATOM     11  C   UNL     1      15.804  -7.576  -9.273  0.00  0.00    +0.047 A 
ATOM     12  C   UNL     1      16.987  -7.554 -10.119  0.00  0.00    +0.035 A 
ATOM     32  C   UNL     1      17.782  -8.734 -10.199  0.00  0.00    +0.024 A 
ATOM     33  C   UNL     1      17.435  -9.923  -9.460  0.00  0.00    +0.007 A 
ATOM     34  C   UNL     1      16.270  -9.949  -8.622  0.00  0.00    -0.029 A 
ATOM     35  C   UNL     1      15.950 -11.249  -7.847  0.00  0.00    +0.045 C 
ENDROOT
BRANCH  10   9
ATOM      4  C   UNL     1      13.244  -8.146  -4.317  0.00  0.00    +0.077 A 
ATOM      5  C   UNL     1      14.485  -7.913  -3.636  0.00  0.00    +0.048 A 
ATOM      6  C   UNL     1      15.668  -7.961  -4.407  0.00  0.00    +0.116 A 
ATOM      7  N   UNL     1      15.603  -8.223  -5.758  0.00  0.00    -0.223 NA
ATOM      8  C   UNL     1      14.390  -8.445  -6.384  0.00  0.00    +0.220 A 
ATOM      9  N   UNL     1      14.300  -8.702  -7.744  0.00  0.00    -0.283 N 
ATOM     36  H   UNL     1      13.387  -8.867  -8.166  0.00  0.00    +0.155 HD
ATOM     37  N   UNL     1      13.246  -8.406  -5.669  0.00  0.00    -0.214 NA
BRANCH   4   3
ATOM      1  C   UNL     1      10.436  -8.263  -1.597  0.00  0.00    +0.020 A 
ATOM      2  C   UNL     1      11.748  -8.292  -2.201  0.00  0.00    +0.013 A 
ATOM      3  C   UNL     1      11.909  -8.125  -3.640  0.00  0.00    +0.019 A 
ATOM     38  C   UNL     1      10.713  -7.928  -4.445  0.00  0.00    +0.120 A 
ATOM     39  N   UNL     1       9.463  -7.906  -3.836  0.00  0.00    -0.263 NA
ATOM     40  C   UNL     1       9.295  -8.068  -2.452  0.00  0.00    +0.111 A 
ENDBRANCH   4   3
ENDBRANCH  10   9
BRANCH  12  13
ATOM     13  N   UNL     1      17.403  -6.402 -10.880  0.00  0.00    -0.281 N 
ATOM     14  C   UNL     1      17.703  -5.134 -10.410  0.00  0.00    +0.248 C 
ATOM     30  O   UNL     1      17.451  -4.738  -9.281  0.00  0.00    -0.270 OA
ATOM     31  H   UNL     1      17.487  -6.538 -11.887  0.00  0.00    +0.155 HD
BRANCH  14  15
ATOM     15  C   UNL     1      18.366  -4.161 -11.330  0.00  0.00    +0.037 A 
ATOM     16  C   UNL     1      19.318  -4.607 -12.351  0.00  0.00    +0.013 A 
ATOM     17  C   UNL     1      19.956  -3.645 -13.214  0.00  0.00    +0.005 A 
ATOM     18  C   UNL     1      19.642  -2.226 -13.061  0.00  0.00    -0.033 A 
ATOM     28  C   UNL     1      18.690  -1.812 -12.044  0.00  0.00    +0.005 A 
ATOM     29  C   UNL     1      18.064  -2.752 -11.195  0.00  0.00    +0.013 A 
BRANCH  18  19
ATOM     19  C   UNL     1      20.291  -1.129 -13.925  0.00  0.00    +0.119 C 
BRANCH  19  20
ATOM     20  N   UNL     1      19.870  -1.045 -15.355  0.00  0.00    -0.302 NA
ATOM     21  C   UNL     1      20.973  -0.469 -16.246  0.00  0.00    +0.066 C 
ATOM     22  C   UNL     1      20.523  -0.409 -17.743  0.00  0.00    -0.064 C 
ATOM     23  N   UNL     1      19.246   0.425 -17.855  0.00  0.00    +0.379 N 
ATOM     24  C   UNL     1      18.853   0.531 -19.268  0.00  0.00    -0.096 C 
ATOM     25  H   UNL     1      19.480   1.452 -17.491  0.00  0.00    -0.082 HD
ATOM     26  C   UNL     1      18.144  -0.140 -16.970  0.00  0.00    -0.064 C 
ATOM     27  C   UNL     1      18.612  -0.222 -15.490  0.00  0.00    +0.066 C 
ENDBRANCH  19  20
ENDBRANCH  18  19
ENDBRANCH  14  15
ENDBRANCH  12  13
TORSDOF 6
ENDMDL
MODEL 3
REMARK VINA RESULT:      -7.6      3.836     15.224
REMARK  Name = C:\Users\Docking\Desktop\test protocol\1iep_ligandH.pdb
REMARK  8 active torsions:
REMARK  status: ('A' for Active; 'I' for Inactive)
REMARK    1  A    between atoms: _5  and  _11
REMARK    2  A    between atoms: _19  and  _21
REMARK    3  A    between atoms: _22  and  _66
REMARK    4  A    between atoms: _27  and  _30
REMARK    5  A    between atoms: _32  and  _33
REMARK    6  A    between atoms: _38  and  _43
REMARK    7  A    between atoms: _43  and  _46
REMARK    8  A    between atoms: _53  and  _55
REMARK                            x       y       z     vdW  Elec       q    Type
REMARK                         _______ _______ _______ _____ _____    ______ ____
ROOT
ATOM     10  C   UNL     1      16.713  -0.981 -11.074  0.00  0.00    +0.038 A 
ATOM     11  C   UNL     1      16.159  -2.012 -10.274  0.00  0.00    +0.047 A 
ATOM     12  C   UNL     1      15.944  -3.347 -10.809  0.00  0.00    +0.035 A 
ATOM     32  C   UNL     1      16.309  -3.599 -12.164  0.00  0.00    +0.024 A 
ATOM     33  C   UNL     1      16.874  -2.562 -12.992  0.00  0.00    +0.007 A 
ATOM     34  C   UNL     1      17.085  -1.242 -12.470  0.00  0.00    -0.029 A 
ATOM     35  C   UNL     1      17.687  -0.168 -13.405  0.00  0.00    +0.045 C 
ENDROOT
BRANCH  10   9
ATOM      4  C   UNL     1      15.397   3.585 -10.395  0.00  0.00    +0.077 A 
ATOM      5  C   UNL     1      14.262   3.448 -11.261  0.00  0.00    +0.048 A 
ATOM      6  C   UNL     1      14.056   2.188 -11.868  0.00  0.00    +0.116 A 
ATOM      7  N   UNL     1      14.927   1.150 -11.619  0.00  0.00    -0.223 NA
ATOM      8  C   UNL     1      16.013   1.316 -10.779  0.00  0.00    +0.220 A 
ATOM      9  N   UNL     1      16.897   0.283 -10.509  0.00  0.00    -0.283 N 
ATOM     36  H   UNL     1      17.691   0.448  -9.890  0.00  0.00    +0.155 HD
ATOM     37  N   UNL     1      16.232   2.509 -10.189  0.00  0.00    -0.214 NA
BRANCH   4   3
ATOM      1  C   UNL     1      16.695   6.123  -7.717  0.00  0.00    +0.020 A 
ATOM      2  C   UNL     1      16.378   4.871  -8.365  0.00  0.00    +0.013 A 
ATOM      3  C   UNL     1      15.746   4.852  -9.678  0.00  0.00    +0.019 A 
ATOM     38  C   UNL     1      15.446   6.126 -10.313  0.00  0.00    +0.120 A 
ATOM     39  N   UNL     1      15.761   7.316  -9.664  0.00  0.00    -0.263 NA
ATOM     40  C   UNL     1      16.368   7.347  -8.399  0.00  0.00    +0.111 A 
ENDBRANCH   4   3
ENDBRANCH  10   9
BRANCH  12  13
ATOM     13  N   UNL     1      15.377  -4.432 -10.047  0.00  0.00    -0.281 N 
ATOM     14  C   UNL     1      14.103  -4.966 -10.144  0.00  0.00    +0.248 C 
ATOM     30  O   UNL     1      13.182  -4.449 -10.758  0.00  0.00    -0.270 OA
ATOM     31  H   UNL     1      15.990  -4.857  -9.351  0.00  0.00    +0.155 HD
BRANCH  14  15
ATOM     15  C   UNL     1      13.805  -6.254  -9.447  0.00  0.00    +0.037 A 
ATOM     16  C   UNL     1      12.441  -6.599  -9.038  0.00  0.00    +0.013 A 
ATOM     17  C   UNL     1      12.184  -7.840  -8.352  0.00  0.00    +0.005 A 
ATOM     18  C   UNL     1      13.294  -8.747  -8.071  0.00  0.00    -0.033 A 
ATOM     28  C   UNL     1      14.637  -8.383  -8.492  0.00  0.00    +0.005 A 
ATOM     29  C   UNL     1      14.893  -7.166  -9.165  0.00  0.00    +0.013 A 
BRANCH  18  19
ATOM     19  C   UNL     1      13.115 -10.083  -7.325  0.00  0.00    +0.119 C 
BRANCH  19  20
ATOM     20  N   UNL     1      14.074 -10.382  -6.220  0.00  0.00    -0.302 NA
ATOM     21  C   UNL     1      14.193 -11.886  -5.955  0.00  0.00    +0.066 C 
ATOM     22  C   UNL     1      15.217 -12.183  -4.811  0.00  0.00    -0.064 C 
ATOM     23  N   UNL     1      14.791 -11.441  -3.543  0.00  0.00    +0.379 N 
ATOM     24  C   UNL     1      15.720 -11.764  -2.450  0.00  0.00    -0.096 C 
ATOM     25  H   UNL     1      13.783 -11.818  -3.254  0.00  0.00    -0.082 HD
ATOM     26  C   UNL     1      14.668  -9.945  -3.799  0.00  0.00    -0.064 C 
ATOM     27  C   UNL     1      13.670  -9.663  -4.957  0.00  0.00    +0.066 C 
ENDBRANCH  19  20
ENDBRANCH  18  19
ENDBRANCH  14  15
ENDBRANCH  12  13
TORSDOF 6
ENDMDL
MODEL 4
REMARK VINA RESULT:      -7.6      7.536     12.029
REMARK  Name = C:\Users\Docking\Desktop\test protocol\1iep_ligandH.pdb
REMARK  8 active torsions:
REMARK  status: ('A' for Active; 'I' for Inactive)
REMARK    1  A    between atoms: _5  and  _11
REMARK    2  A    between atoms: _19  and  _21
REMARK    3  A    between atoms: _22  and  _66
REMARK    4  A    between atoms: _27  and  _30
REMARK    5  A    between atoms: _32  and  _33
REMARK    6  A    between atoms: _38  and  _43
REMARK    7  A    between atoms: _43  and  _46
REMARK    8  A    between atoms: _53  and  _55
REMARK                            x       y       z     vdW  Elec       q    Type
REMARK                         _______ _______ _______ _____ _____    ______ ____
ROOT
ATOM     10  C   UNL     1      12.744  -9.262  -3.825  0.00  0.00    +0.038 A 
ATOM     11  C   UNL     1      11.404  -9.452  -3.402  0.00  0.00    +0.047 A 
ATOM     12  C   UNL     1      10.853  -8.698  -2.286  0.00  0.00    +0.035 A 
ATOM     32  C   UNL     1      11.695  -7.757  -1.625  0.00  0.00    +0.024 A 
ATOM     33  C   UNL     1      13.061  -7.552  -2.041  0.00  0.00    +0.007 A 
ATOM     34  C   UNL     1      13.610  -8.295  -3.140  0.00  0.00    -0.029 A 
ATOM     35  C   UNL     1      15.082  -8.039  -3.538  0.00  0.00    +0.045 C 
ENDROOT
BRANCH  10   9
ATOM      4  C   UNL     1      14.788 -13.194  -5.669  0.00  0.00    +0.077 A 
ATOM      5  C   UNL     1      14.942 -13.793  -4.374  0.00  0.00    +0.048 A 
ATOM      6  C   UNL     1      14.490 -13.053  -3.259  0.00  0.00    +0.116 A 
ATOM      7  N   UNL     1      13.926 -11.808  -3.437  0.00  0.00    -0.223 NA
ATOM      8  C   UNL     1      13.793 -11.259  -4.699  0.00  0.00    +0.220 A 
ATOM      9  N   UNL     1      13.221 -10.012  -4.902  0.00  0.00    -0.283 N 
ATOM     36  H   UNL     1      13.148  -9.639  -5.848  0.00  0.00    +0.155 HD
ATOM     37  N   UNL     1      14.219 -11.945  -5.780  0.00  0.00    -0.214 NA
BRANCH   4   3
ATOM      1  C   UNL     1      16.581 -13.950  -9.062  0.00  0.00    +0.020 A 
ATOM      2  C   UNL     1      16.204 -13.273  -7.843  0.00  0.00    +0.013 A 
ATOM      3  C   UNL     1      15.214 -13.853  -6.944  0.00  0.00    +0.019 A 
ATOM     38  C   UNL     1      14.621 -15.130  -7.310  0.00  0.00    +0.120 A 
ATOM     39  N   UNL     1      15.003 -15.759  -8.491  0.00  0.00    -0.263 NA
ATOM     40  C   UNL     1      15.953 -15.209  -9.365  0.00  0.00    +0.111 A 
ENDBRANCH   4   3
ENDBRANCH  10   9
BRANCH  12  13
ATOM     13  N   UNL     1       9.502  -8.854  -1.807  0.00  0.00    -0.281 N 
ATOM     14  C   UNL     1       8.327  -8.477  -2.436  0.00  0.00    +0.248 C 
ATOM     30  O   UNL     1       8.270  -7.751  -3.418  0.00  0.00    -0.270 OA
ATOM     31  H   UNL     1       9.400  -9.295  -0.893  0.00  0.00    +0.155 HD
BRANCH  14  15
ATOM     15  C   UNL     1       7.025  -8.965  -1.887  0.00  0.00    +0.037 A 
ATOM     16  C   UNL     1       6.664  -8.749  -0.483  0.00  0.00    +0.013 A 
ATOM     17  C   UNL     1       5.410  -9.245   0.025  0.00  0.00    +0.005 A 
ATOM     18  C   UNL     1       4.506  -9.961  -0.872  0.00  0.00    -0.033 A 
ATOM     28  C   UNL     1       4.887 -10.157  -2.261  0.00  0.00    +0.005 A 
ATOM     29  C   UNL     1       6.116  -9.673  -2.763  0.00  0.00    +0.013 A 
BRANCH  18  19
ATOM     19  C   UNL     1       3.157 -10.544  -0.410  0.00  0.00    +0.119 C 
BRANCH  19  20
ATOM     20  N   UNL     1       3.199 -11.710   0.521  0.00  0.00    -0.302 NA
ATOM     21  C   UNL     1       3.219 -11.273   1.989  0.00  0.00    +0.066 C 
ATOM     22  C   UNL     1       3.240 -12.506   2.950  0.00  0.00    -0.064 C 
ATOM     23  N   UNL     1       4.454 -13.379   2.628  0.00  0.00    +0.379 N 
ATOM     24  C   UNL     1       4.509 -14.509   3.568  0.00  0.00    -0.096 C 
ATOM     25  H   UNL     1       5.368 -12.761   2.789  0.00  0.00    -0.082 HD
ATOM     26  C   UNL     1       4.443 -13.816   1.170  0.00  0.00    -0.064 C 
ATOM     27  C   UNL     1       4.393 -12.584   0.224  0.00  0.00    +0.066 C 
ENDBRANCH  19  20
ENDBRANCH  18  19
ENDBRANCH  14  15
ENDBRANCH  12  13
TORSDOF 6
ENDMDL
MODEL 5
REMARK VINA RESULT:      -7.5      5.707     14.978
REMARK  Name = C:\Users\Docking\Desktop\test protocol\1iep_ligandH.pdb
REMARK  8 active torsions:
REMARK  status: ('A' for Active; 'I' for Inactive)
REMARK    1  A    between atoms: _5  and  _11
REMARK    2  A    between atoms: _19  and  _21
REMARK    3  A    between atoms: _22  and  _66
REMARK    4  A    between atoms: _27  and  _30
REMARK    5  A    between atoms: _32  and  _33
REMARK    6  A    between atoms: _38  and  _43
REMARK    7  A    between atoms: _43  and  _46
REMARK    8  A    between atoms: _53  and  _55
REMARK                            x       y       z     vdW  Elec       q    Type
REMARK                         _______ _______ _______ _____ _____    ______ ____
ROOT
ATOM     10  C   UNL     1      16.760  -1.140 -11.118  0.00  0.00    +0.038 A 
ATOM     11  C   UNL     1      16.067  -2.190 -10.463  0.00  0.00    +0.047 A 
ATOM     12  C   UNL     1      15.929  -3.500 -11.080  0.00  0.00    +0.035 A 
ATOM     32  C   UNL     1      16.511  -3.707 -12.365  0.00  0.00    +0.024 A 
ATOM     33  C   UNL     1      17.218  -2.650 -13.045  0.00  0.00    +0.007 A 
ATOM     34  C   UNL     1      17.356  -1.355 -12.443  0.00  0.00    -0.029 A 
ATOM     35  C   UNL     1      18.118  -0.258 -13.221  0.00  0.00    +0.045 C 
ENDROOT
BRANCH  10   9
ATOM      4  C   UNL     1      15.314   3.377 -10.385  0.00  0.00    +0.077 A 
ATOM      5  C   UNL     1      14.284   3.271 -11.378  0.00  0.00    +0.048 A 
ATOM      6  C   UNL     1      14.164   2.039 -12.060  0.00  0.00    +0.116 A 
ATOM      7  N   UNL     1      15.016   0.998 -11.762  0.00  0.00    -0.223 NA
ATOM      8  C   UNL     1      16.000   1.134 -10.800  0.00  0.00    +0.220 A 
ATOM      9  N   UNL     1      16.863   0.097 -10.479  0.00  0.00    -0.283 N 
ATOM     36  H   UNL     1      17.580   0.240  -9.769  0.00  0.00    +0.155 HD
ATOM     37  N   UNL     1      16.136   2.301 -10.136  0.00  0.00    -0.214 NA
BRANCH   4   3
ATOM      1  C   UNL     1      15.932   7.098  -9.349  0.00  0.00    +0.020 A 
ATOM      2  C   UNL     1      15.691   5.937 -10.174  0.00  0.00    +0.013 A 
ATOM      3  C   UNL     1      15.564   4.613  -9.578  0.00  0.00    +0.019 A 
ATOM     38  C   UNL     1      15.686   4.498  -8.132  0.00  0.00    +0.120 A 
ATOM     39  N   UNL     1      15.919   5.634  -7.364  0.00  0.00    -0.263 NA
ATOM     40  C   UNL     1      16.045   6.913  -7.927  0.00  0.00    +0.111 A 
ENDBRANCH   4   3
ENDBRANCH  10   9
BRANCH  12  13
ATOM     13  N   UNL     1      15.230  -4.602 -10.467  0.00  0.00    -0.281 N 
ATOM     14  C   UNL     1      15.772  -5.736  -9.885  0.00  0.00    +0.248 C 
ATOM     30  O   UNL     1      16.940  -6.078  -9.994  0.00  0.00    -0.270 OA
ATOM     31  H   UNL     1      14.212  -4.538 -10.461  0.00  0.00    +0.155 HD
BRANCH  14  15
ATOM     15  C   UNL     1      14.884  -6.627  -9.076  0.00  0.00    +0.037 A 
ATOM     16  C   UNL     1      15.424  -7.779  -8.348  0.00  0.00    +0.013 A 
ATOM     17  C   UNL     1      14.543  -8.632  -7.590  0.00  0.00    +0.005 A 
ATOM     18  C   UNL     1      13.113  -8.335  -7.555  0.00  0.00    -0.033 A 
ATOM     28  C   UNL     1      12.606  -7.183  -8.282  0.00  0.00    +0.005 A 
ATOM     29  C   UNL     1      13.466  -6.345  -9.027  0.00  0.00    +0.013 A 
BRANCH  18  19
ATOM     19  C   UNL     1      12.097  -9.203  -6.789  0.00  0.00    +0.119 C 
BRANCH  19  20
ATOM     20  N   UNL     1      11.514  -8.630  -5.539  0.00  0.00    -0.302 NA
ATOM     21  C   UNL     1      11.841  -9.482  -4.309  0.00  0.00    +0.066 C 
ATOM     22  C   UNL     1      11.241  -8.856  -3.008  0.00  0.00    -0.064 C 
ATOM     23  N   UNL     1       9.729  -8.698  -3.171  0.00  0.00    +0.379 N 
ATOM     24  C   UNL     1       9.154  -8.164  -1.927  0.00  0.00    -0.096 C 
ATOM     25  H   UNL     1       9.299  -9.714  -3.333  0.00  0.00    -0.082 HD
ATOM     26  C   UNL     1       9.395  -7.855  -4.393  0.00  0.00    -0.064 C 
ATOM     27  C   UNL     1      10.020  -8.470  -5.677  0.00  0.00    +0.066 C 
ENDBRANCH  19  20
ENDBRANCH  18  19
ENDBRANCH  14  15
ENDBRANCH  12  13
TORSDOF 6
ENDMDL
