MODEL 1
REMARK VINA RESULT:      -8.8      0.000      0.000
REMARK  Name = C:\Users\Docking\Desktop\test protocol\1iep_ligandH.pdb
REMARK  8 active torsions:
REMARK  status: ('A' for Active; 'I' for Inactive)
REMARK    1  A    between atoms: _5  and  _11
REMARK    2  A    between atoms: _19  and  _21
REMARK    3  A    between atoms: _22  and  _66
REMARK    4  A    between atoms: _27  and  _30
REMARK    5  A    between atoms: _32  and  _33
REMARK    6  A    between atoms: _38  and  _43
REMARK    7  A    between atoms: _43  and  _46
REMARK    8  A    between atoms: _53  and  _55
REMARK                            x       y       z     vdW  Elec       q    Type
REMARK                         _______ _______ _______ _____ _____    ______ ____
ROOT
ATOM     10  C   UNL     1     -10.293  23.903  -2.557  0.00  0.00    +0.038 A 
ATOM     11  C   UNL     1      -9.869  22.807  -1.762  0.00  0.00    +0.047 A 
ATOM     12  C   UNL     1      -9.444  21.556  -2.370  0.00  0.00    +0.035 A 
ATOM     32  C   UNL     1      -9.460  21.457  -3.792  0.00  0.00    +0.024 A 
ATOM     33  C   UNL     1      -9.889  22.560  -4.615  0.00  0.00    +0.007 A 
ATOM     34  C   UNL     1     -10.312  23.796  -4.020  0.00  0.00    -0.029 A 
ATOM     35  C   UNL     1     -10.768  24.943  -4.951  0.00  0.00    +0.045 C 
ENDROOT
BRANCH  10   9
ATOM      4  C   UNL     1     -13.665  26.971  -1.054  0.00  0.00    +0.077 A 
ATOM      5  C   UNL     1     -14.721  26.174  -1.608  0.00  0.00    +0.048 A 
ATOM      6  C   UNL     1     -14.354  24.986  -2.279  0.00  0.00    +0.116 A 
ATOM      7  N   UNL     1     -13.026  24.630  -2.380  0.00  0.00    -0.223 NA
ATOM      8  C   UNL     1     -12.032  25.422  -1.836  0.00  0.00    +0.220 A 
ATOM      9  N   UNL     1     -10.691  25.080  -1.920  0.00  0.00    -0.283 N 
ATOM     36  H   UNL     1      -9.988  25.695  -1.511  0.00  0.00    +0.155 HD
ATOM     37  N   UNL     1     -12.357  26.563  -1.192  0.00  0.00    -0.214 NA
BRANCH   4   3
ATOM      1  C   UNL     1     -13.339  29.917   1.499  0.00  0.00    +0.020 A 
ATOM      2  C   UNL     1     -13.077  28.669   0.819  0.00  0.00    +0.013 A 
ATOM      3  C   UNL     1     -13.893  28.252  -0.314  0.00  0.00    +0.019 A 
ATOM     38  C   UNL     1     -14.974  29.129  -0.739  0.00  0.00    +0.120 A 
ATOM     39  N   UNL     1     -15.204  30.324  -0.064  0.00  0.00    -0.263 NA
ATOM     40  C   UNL     1     -14.426  30.734   1.029  0.00  0.00    +0.111 A 
ENDBRANCH   4   3
ENDBRANCH  10   9
BRANCH  12  13
ATOM     13  N   UNL     1      -9.011  20.407  -1.614  0.00  0.00    -0.281 N 
ATOM     14  C   UNL     1      -7.722  19.922  -1.466  0.00  0.00    +0.248 C 
ATOM     30  O   UNL     1      -6.767  20.281  -2.138  0.00  0.00    -0.270 OA
ATOM     31  H   UNL     1      -9.744  19.888  -1.130  0.00  0.00    +0.155 HD
BRANCH  14  15
ATOM     15  C   UNL     1      -7.459  18.877  -0.430  0.00  0.00    +0.037 A 
ATOM     16  C   UNL     1      -8.455  17.849  -0.118  0.00  0.00    +0.013 A 
ATOM     17  C   UNL     1      -8.182  16.862   0.897  0.00  0.00    +0.005 A 
ATOM     18  C   UNL     1      -6.906  16.900   1.608  0.00  0.00    -0.033 A 
ATOM     28  C   UNL     1      -5.935  17.928   1.275  0.00  0.00    +0.005 A 
ATOM     29  C   UNL     1      -6.198  18.897   0.281  0.00  0.00    +0.013 A 
BRANCH  18  19
ATOM     19  C   UNL     1      -6.539  15.901   2.721  0.00  0.00    +0.119 C 
BRANCH  19  20
ATOM     20  N   UNL     1      -7.172  16.104   4.058  0.00  0.00    -0.302 NA
ATOM     21  C   UNL     1      -8.277  15.080   4.333  0.00  0.00    +0.066 C 
ATOM     22  C   UNL     1      -8.913  15.293   5.745  0.00  0.00    -0.064 C 
ATOM     23  N   UNL     1      -9.458  16.718   5.846  0.00  0.00    +0.379 N 
ATOM     24  C   UNL     1     -10.108  16.903   7.151  0.00  0.00    -0.096 C 
ATOM     25  H   UNL     1     -10.239  16.837   5.059  0.00  0.00    -0.082 HD
ATOM     26  C   UNL     1      -8.367  17.743   5.572  0.00  0.00    -0.064 C 
ATOM     27  C   UNL     1      -7.722  17.504   4.178  0.00  0.00    +0.066 C 
ENDBRANCH  19  20
ENDBRANCH  18  19
ENDBRANCH  14  15
ENDBRANCH  12  13
TORSDOF 6
ENDMDL
MODEL 2
REMARK VINA RESULT:      -8.3     12.314     13.570
REMARK  Name = C:\Users\Docking\Desktop\test protocol\1iep_ligandH.pdb
REMARK  8 active torsions:
REMARK  status: ('A' for Active; 'I' for Inactive)
REMARK    1  A    between atoms: _5  and  _11
REMARK    2  A    between atoms: _19  and  _21
REMARK    3  A    between atoms: _22  and  _66
REMARK    4  A    between atoms: _27  and  _30
REMARK    5  A    between atoms: _32  and  _33
REMARK    6  A    between atoms: _38  and  _43
REMARK    7  A    between atoms: _43  and  _46
REMARK    8  A    between atoms: _53  and  _55
REMARK                            x       y       z     vdW  Elec       q    Type
REMARK                         _______ _______ _______ _____ _____    ______ ____
ROOT
ATOM     10  C   UNL     1      -0.718  32.295  -4.330  0.00  0.00    +0.038 A 
ATOM     11  C   UNL     1      -0.648  31.243  -3.381  0.00  0.00    +0.047 A 
ATOM     12  C   UNL     1       0.549  31.028  -2.583  0.00  0.00    +0.035 A 
ATOM     32  C   UNL     1       1.656  31.905  -2.774  0.00  0.00    +0.024 A 
ATOM     33  C   UNL     1       1.602  32.979  -3.735  0.00  0.00    +0.007 A 
ATOM     34  C   UNL     1       0.426  33.195  -4.527  0.00  0.00    -0.029 A 
ATOM     35  C   UNL     1       0.427  34.358  -5.547  0.00  0.00    +0.045 C 
ENDROOT
BRANCH  10   9
ATOM      4  C   UNL     1      -5.149  34.046  -4.909  0.00  0.00    +0.077 A 
ATOM      5  C   UNL     1      -5.135  34.670  -3.618  0.00  0.00    +0.048 A 
ATOM      6  C   UNL     1      -3.971  34.511  -2.833  0.00  0.00    +0.116 A 
ATOM      7  N   UNL     1      -2.907  33.780  -3.313  0.00  0.00    -0.223 NA
ATOM      8  C   UNL     1      -2.953  33.189  -4.563  0.00  0.00    +0.220 A 
ATOM      9  N   UNL     1      -1.891  32.456  -5.069  0.00  0.00    -0.283 N 
ATOM     36  H   UNL     1      -1.968  32.030  -5.993  0.00  0.00    +0.155 HD
ATOM     37  N   UNL     1      -4.054  33.325  -5.331  0.00  0.00    -0.214 NA
BRANCH   4   3
ATOM      1  C   UNL     1      -7.406  34.935  -7.978  0.00  0.00    +0.020 A 
ATOM      2  C   UNL     1      -6.262  34.891  -7.097  0.00  0.00    +0.013 A 
ATOM      3  C   UNL     1      -6.305  34.126  -5.857  0.00  0.00    +0.019 A 
ATOM     38  C   UNL     1      -7.531  33.410  -5.536  0.00  0.00    +0.120 A 
ATOM     39  N   UNL     1      -8.617  33.473  -6.403  0.00  0.00    -0.263 NA
ATOM     40  C   UNL     1      -8.588  34.207  -7.598  0.00  0.00    +0.111 A 
ENDBRANCH   4   3
ENDBRANCH  10   9
BRANCH  12  13
ATOM     13  N   UNL     1       0.680  29.972  -1.610  0.00  0.00    -0.281 N 
ATOM     14  C   UNL     1       0.978  28.638  -1.836  0.00  0.00    +0.248 C 
ATOM     30  O   UNL     1       0.966  28.104  -2.936  0.00  0.00    -0.270 OA
ATOM     31  H   UNL     1       0.536  30.240  -0.636  0.00  0.00    +0.155 HD
BRANCH  14  15
ATOM     15  C   UNL     1       1.325  27.768  -0.672  0.00  0.00    +0.037 A 
ATOM     16  C   UNL     1       0.284  27.119   0.129  0.00  0.00    +0.013 A 
ATOM     17  C   UNL     1       0.645  26.298   1.257  0.00  0.00    +0.005 A 
ATOM     18  C   UNL     1       2.056  26.121   1.591  0.00  0.00    -0.033 A 
ATOM     28  C   UNL     1       3.069  26.772   0.777  0.00  0.00    +0.005 A 
ATOM     29  C   UNL     1       2.718  27.578  -0.329  0.00  0.00    +0.013 A 
BRANCH  18  19
ATOM     19  C   UNL     1       2.533  25.280   2.790  0.00  0.00    +0.119 C 
BRANCH  19  20
ATOM     20  N   UNL     1       3.950  25.456   3.229  0.00  0.00    -0.302 NA
ATOM     21  C   UNL     1       4.604  24.125   3.607  0.00  0.00    +0.066 C 
ATOM     22  C   UNL     1       6.092  24.325   4.042  0.00  0.00    -0.064 C 
ATOM     23  N   UNL     1       6.151  25.308   5.212  0.00  0.00    +0.379 N 
ATOM     24  C   UNL     1       7.543  25.454   5.661  0.00  0.00    -0.096 C 
ATOM     25  H   UNL     1       5.568  24.867   6.054  0.00  0.00    -0.082 HD
ATOM     26  C   UNL     1       5.500  26.634   4.846  0.00  0.00    -0.064 C 
ATOM     27  C   UNL     1       4.031  26.421   4.387  0.00  0.00    +0.066 C 
ENDBRANCH  19  20
ENDBRANCH  18  19
ENDBRANCH  14  15
ENDBRANCH  12  13
TORSDOF 6
ENDMDL
MODEL 3
REMARK VINA RESULT:      -8.2     21.540     24.752
REMARK  Name = C:\Users\Docking\Desktop\test protocol\1iep_ligandH.pdb
REMARK  8 active torsions:
REMARK  status: ('A' for Active; 'I' for Inactive)
REMARK    1  A    between atoms: _5  and  _11
REMARK    2  A    between atoms: _19  and  _21
REMARK    3  A    between atoms: _22  and  _66
REMARK    4  A    between atoms: _27  and  _30
REMARK    5  A    between atoms: _32  and  _33
REMARK    6  A    between atoms: _38  and  _43
REMARK    7  A    between atoms: _43  and  _46
REMARK    8  A    between atoms: _53  and  _55
REMARK                            x       y       z     vdW  Elec       q    Type
REMARK                         _______ _______ _______ _____ _____    ______ ____
ROOT
ATOM     10  C   UNL     1      -7.493  34.631  20.993  0.00  0.00    +0.038 A 
ATOM     11  C   UNL     1      -6.716  33.580  21.543  0.00  0.00    +0.047 A 
ATOM     12  C   UNL     1      -5.530  33.857  22.338  0.00  0.00    +0.035 A 
ATOM     32  C   UNL     1      -5.166  35.218  22.556  0.00  0.00    +0.024 A 
ATOM     33  C   UNL     1      -5.944  36.299  22.004  0.00  0.00    +0.007 A 
ATOM     34  C   UNL     1      -7.113  36.032  21.216  0.00  0.00    -0.029 A 
ATOM     35  C   UNL     1      -7.905  37.230  20.643  0.00  0.00    +0.045 C 
ENDROOT
BRANCH  10   9
ATOM      4  C   UNL     1     -12.159  33.578  20.591  0.00  0.00    +0.077 A 
ATOM      5  C   UNL     1     -12.358  33.653  22.009  0.00  0.00    +0.048 A 
ATOM      6  C   UNL     1     -11.233  33.958  22.808  0.00  0.00    +0.116 A 
ATOM      7  N   UNL     1     -10.005  34.171  22.221  0.00  0.00    -0.223 NA
ATOM      8  C   UNL     1      -9.846  34.090  20.849  0.00  0.00    +0.220 A 
ATOM      9  N   UNL     1      -8.622  34.308  20.237  0.00  0.00    -0.283 N 
ATOM     36  H   UNL     1      -8.545  34.231  19.223  0.00  0.00    +0.155 HD
ATOM     37  N   UNL     1     -10.905  33.798  20.065  0.00  0.00    -0.214 NA
BRANCH   4   3
ATOM      1  C   UNL     1     -14.093  32.734  17.298  0.00  0.00    +0.020 A 
ATOM      2  C   UNL     1     -13.003  33.029  18.198  0.00  0.00    +0.013 A 
ATOM      3  C   UNL     1     -13.251  33.269  19.614  0.00  0.00    +0.019 A 
ATOM     38  C   UNL     1     -14.624  33.203  20.091  0.00  0.00    +0.120 A 
ATOM     39  N   UNL     1     -15.654  32.918  19.199  0.00  0.00    -0.263 NA
ATOM     40  C   UNL     1     -15.427  32.686  17.834  0.00  0.00    +0.111 A 
ENDBRANCH   4   3
ENDBRANCH  10   9
BRANCH  12  13
ATOM     13  N   UNL     1      -4.698  32.831  22.916  0.00  0.00    -0.281 N 
ATOM     14  C   UNL     1      -4.826  32.229  24.157  0.00  0.00    +0.248 C 
ATOM     30  O   UNL     1      -5.553  32.636  25.051  0.00  0.00    -0.270 OA
ATOM     31  H   UNL     1      -3.920  32.509  22.339  0.00  0.00    +0.155 HD
BRANCH  14  15
ATOM     15  C   UNL     1      -4.018  31.007  24.453  0.00  0.00    +0.037 A 
ATOM     16  C   UNL     1      -2.553  31.044  24.446  0.00  0.00    +0.013 A 
ATOM     17  C   UNL     1      -1.798  29.847  24.719  0.00  0.00    +0.005 A 
ATOM     18  C   UNL     1      -2.508  28.601  25.001  0.00  0.00    -0.033 A 
ATOM     28  C   UNL     1      -3.961  28.594  25.007  0.00  0.00    +0.005 A 
ATOM     29  C   UNL     1      -4.705  29.765  24.739  0.00  0.00    +0.013 A 
BRANCH  18  19
ATOM     19  C   UNL     1      -1.784  27.271  25.282  0.00  0.00    +0.119 C 
BRANCH  19  20
ATOM     20  N   UNL     1      -2.080  26.126  24.371  0.00  0.00    -0.302 NA
ATOM     21  C   UNL     1      -2.114  24.790  25.120  0.00  0.00    +0.066 C 
ATOM     22  C   UNL     1      -2.448  23.606  24.156  0.00  0.00    -0.064 C 
ATOM     23  N   UNL     1      -1.419  23.566  23.025  0.00  0.00    +0.379 N 
ATOM     24  C   UNL     1      -1.696  22.419  22.149  0.00  0.00    -0.096 C 
ATOM     25  H   UNL     1      -0.417  23.406  23.486  0.00  0.00    -0.082 HD
ATOM     26  C   UNL     1      -1.377  24.892  22.277  0.00  0.00    -0.064 C 
ATOM     27  C   UNL     1      -1.073  26.066  23.249  0.00  0.00    +0.066 C 
ENDBRANCH  19  20
ENDBRANCH  18  19
ENDBRANCH  14  15
ENDBRANCH  12  13
TORSDOF 6
ENDMDL
MODEL 4
REMARK VINA RESULT:      -8.2      9.546     14.418
REMARK  Name = C:\Users\Docking\Desktop\test protocol\1iep_ligandH.pdb
REMARK  8 active torsions:
REMARK  status: ('A' for Active; 'I' for Inactive)
REMARK    1  A    between atoms: _5  and  _11
REMARK    2  A    between atoms: _19  and  _21
REMARK    3  A    between atoms: _22  and  _66
REMARK    4  A    between atoms: _27  and  _30
REMARK    5  A    between atoms: _32  and  _33
REMARK    6  A    between atoms: _38  and  _43
REMARK    7  A    between atoms: _43  and  _46
REMARK    8  A    between atoms: _53  and  _55
REMARK                            x       y       z     vdW  Elec       q    Type
REMARK                         _______ _______ _______ _____ _____    ______ ____
ROOT
ATOM     10  C   UNL     1      -8.950  15.464   5.410  0.00  0.00    +0.038 A 
ATOM     11  C   UNL     1      -9.570  14.542   6.291  0.00  0.00    +0.047 A 
ATOM     12  C   UNL     1     -10.159  14.980   7.547  0.00  0.00    +0.035 A 
ATOM     32  C   UNL     1     -10.101  16.366   7.873  0.00  0.00    +0.024 A 
ATOM     33  C   UNL     1      -9.473  17.317   6.990  0.00  0.00    +0.007 A 
ATOM     34  C   UNL     1      -8.888  16.891   5.751  0.00  0.00    -0.029 A 
ATOM     35  C   UNL     1      -8.223  17.953   4.846  0.00  0.00    +0.045 C 
ENDROOT
BRANCH  10   9
ATOM      4  C   UNL     1      -5.229  14.026   2.741  0.00  0.00    +0.077 A 
ATOM      5  C   UNL     1      -4.297  14.268   3.804  0.00  0.00    +0.048 A 
ATOM      6  C   UNL     1      -4.814  14.770   5.020  0.00  0.00    +0.116 A 
ATOM      7  N   UNL     1      -6.165  15.007   5.151  0.00  0.00    -0.223 NA
ATOM      8  C   UNL     1      -7.037  14.764   4.105  0.00  0.00    +0.220 A 
ATOM      9  N   UNL     1      -8.400  14.989   4.217  0.00  0.00    -0.283 N 
ATOM     36  H   UNL     1      -9.009  14.804   3.420  0.00  0.00    +0.155 HD
ATOM     37  N   UNL     1      -6.567  14.287   2.934  0.00  0.00    -0.214 NA
BRANCH   4   3
ATOM      1  C   UNL     1      -5.240  13.117  -1.063  0.00  0.00    +0.020 A 
ATOM      2  C   UNL     1      -5.666  13.649   0.210  0.00  0.00    +0.013 A 
ATOM      3  C   UNL     1      -4.836  13.494   1.398  0.00  0.00    +0.019 A 
ATOM     38  C   UNL     1      -3.569  12.791   1.262  0.00  0.00    +0.120 A 
ATOM     39  N   UNL     1      -3.185  12.287   0.023  0.00  0.00    -0.263 NA
ATOM     40  C   UNL     1      -3.977  12.429  -1.127  0.00  0.00    +0.111 A 
ENDBRANCH   4   3
ENDBRANCH  10   9
BRANCH  12  13
ATOM     13  N   UNL     1     -10.795  14.088   8.484  0.00  0.00    -0.281 N 
ATOM     14  C   UNL     1     -11.922  13.307   8.287  0.00  0.00    +0.248 C 
ATOM     30  O   UNL     1     -12.684  13.420   7.338  0.00  0.00    -0.270 OA
ATOM     31  H   UNL     1     -10.362  14.024   9.406  0.00  0.00    +0.155 HD
BRANCH  14  15
ATOM     15  C   UNL     1     -12.261  12.260   9.298  0.00  0.00    +0.037 A 
ATOM     16  C   UNL     1     -12.016  12.474  10.726  0.00  0.00    +0.013 A 
ATOM     17  C   UNL     1     -12.336  11.440  11.678  0.00  0.00    +0.005 A 
ATOM     18  C   UNL     1     -12.907  10.182  11.204  0.00  0.00    -0.033 A 
ATOM     28  C   UNL     1     -13.145   9.998   9.782  0.00  0.00    +0.005 A 
ATOM     29  C   UNL     1     -12.831  11.008   8.846  0.00  0.00    +0.013 A 
BRANCH  18  19
ATOM     19  C   UNL     1     -13.260   9.016  12.146  0.00  0.00    +0.119 C 
BRANCH  19  20
ATOM     20  N   UNL     1     -12.130   8.181  12.654  0.00  0.00    -0.302 NA
ATOM     21  C   UNL     1     -11.731   7.088  11.659  0.00  0.00    +0.066 C 
ATOM     22  C   UNL     1     -10.533   6.239  12.196  0.00  0.00    -0.064 C 
ATOM     23  N   UNL     1     -10.909   5.630  13.548  0.00  0.00    +0.379 N 
ATOM     24  C   UNL     1      -9.807   4.784  14.028  0.00  0.00    -0.096 C 
ATOM     25  H   UNL     1     -11.795   4.972  13.387  0.00  0.00    -0.082 HD
ATOM     26  C   UNL     1     -11.311   6.709  14.543  0.00  0.00    -0.064 C 
ATOM     27  C   UNL     1     -12.482   7.566  13.986  0.00  0.00    +0.066 C 
ENDBRANCH  19  20
ENDBRANCH  18  19
ENDBRANCH  14  15
ENDBRANCH  12  13
TORSDOF 6
ENDMDL
MODEL 5
REMARK VINA RESULT:      -8.2     12.027     14.613
REMARK  Name = C:\Users\Docking\Desktop\test protocol\1iep_ligandH.pdb
REMARK  8 active torsions:
REMARK  status: ('A' for Active; 'I' for Inactive)
REMARK    1  A    between atoms: _5  and  _11
REMARK    2  A    between atoms: _19  and  _21
REMARK    3  A    between atoms: _22  and  _66
REMARK    4  A    between atoms: _27  and  _30
REMARK    5  A    between atoms: _32  and  _33
REMARK    6  A    between atoms: _38  and  _43
REMARK    7  A    between atoms: _43  and  _46
REMARK    8  A    between atoms: _53  and  _55
REMARK                            x       y       z     vdW  Elec       q    Type
REMARK                         _______ _______ _______ _____ _____    ______ ____
ROOT
ATOM     10  C   UNL     1      -8.024  34.570  -5.686  0.00  0.00    +0.038 A 
ATOM     11  C   UNL     1      -6.866  33.768  -5.522  0.00  0.00    +0.047 A 
ATOM     12  C   UNL     1      -6.116  33.775  -4.276  0.00  0.00    +0.035 A 
ATOM     32  C   UNL     1      -6.577  34.609  -3.215  0.00  0.00    +0.024 A 
ATOM     33  C   UNL     1      -7.752  35.431  -3.365  0.00  0.00    +0.007 A 
ATOM     34  C   UNL     1      -8.494  35.430  -4.593  0.00  0.00    -0.029 A 
ATOM     35  C   UNL     1      -9.742  36.336  -4.700  0.00  0.00    +0.045 C 
ENDROOT
BRANCH  10   9
ATOM      4  C   UNL     1      -8.577  35.856 -10.277  0.00  0.00    +0.077 A 
ATOM      5  C   UNL     1      -7.426  36.712 -10.238  0.00  0.00    +0.048 A 
ATOM      6  C   UNL     1      -6.724  36.799  -9.015  0.00  0.00    +0.116 A 
ATOM      7  N   UNL     1      -7.150  36.078  -7.920  0.00  0.00    -0.223 NA
ATOM      8  C   UNL     1      -8.264  35.263  -7.991  0.00  0.00    +0.220 A 
ATOM      9  N   UNL     1      -8.706  34.524  -6.905  0.00  0.00    -0.283 N 
ATOM     36  H   UNL     1      -9.537  33.940  -6.996  0.00  0.00    +0.155 HD
ATOM     37  N   UNL     1      -8.953  35.164  -9.147  0.00  0.00    -0.214 NA
BRANCH   4   3
ATOM      1  C   UNL     1      -9.869  34.646 -13.766  0.00  0.00    +0.020 A 
ATOM      2  C   UNL     1      -9.017  34.806 -12.610  0.00  0.00    +0.013 A 
ATOM      3  C   UNL     1      -9.421  35.656 -11.498  0.00  0.00    +0.019 A 
ATOM     38  C   UNL     1     -10.704  36.336 -11.586  0.00  0.00    +0.120 A 
ATOM     39  N   UNL     1     -11.504  36.165 -12.712  0.00  0.00    -0.263 NA
ATOM     40  C   UNL     1     -11.124  35.351 -13.790  0.00  0.00    +0.111 A 
ENDBRANCH   4   3
ENDBRANCH  10   9
BRANCH  12  13
ATOM     13  N   UNL     1      -4.928  32.989  -4.054  0.00  0.00    -0.281 N 
ATOM     14  C   UNL     1      -3.683  33.144  -4.640  0.00  0.00    +0.248 C 
ATOM     30  O   UNL     1      -3.458  33.854  -5.609  0.00  0.00    -0.270 OA
ATOM     31  H   UNL     1      -5.016  32.225  -3.383  0.00  0.00    +0.155 HD
BRANCH  14  15
ATOM     15  C   UNL     1      -2.521  32.390  -4.077  0.00  0.00    +0.037 A 
ATOM     16  C   UNL     1      -1.987  31.203  -4.750  0.00  0.00    +0.013 A 
ATOM     17  C   UNL     1      -0.877  30.484  -4.177  0.00  0.00    +0.005 A 
ATOM     18  C   UNL     1      -0.292  30.952  -2.923  0.00  0.00    -0.033 A 
ATOM     28  C   UNL     1      -0.838  32.135  -2.279  0.00  0.00    +0.005 A 
ATOM     29  C   UNL     1      -1.927  32.842  -2.837  0.00  0.00    +0.013 A 
BRANCH  18  19
ATOM     19  C   UNL     1       0.881  30.235  -2.228  0.00  0.00    +0.119 C 
BRANCH  19  20
ATOM     20  N   UNL     1       0.858  28.742  -2.215  0.00  0.00    -0.302 NA
ATOM     21  C   UNL     1       0.820  28.181  -0.790  0.00  0.00    +0.066 C 
ATOM     22  C   UNL     1       0.774  26.619  -0.795  0.00  0.00    -0.064 C 
ATOM     23  N   UNL     1       1.984  26.077  -1.558  0.00  0.00    +0.379 N 
ATOM     24  C   UNL     1       1.974  24.608  -1.515  0.00  0.00    -0.096 C 
ATOM     25  H   UNL     1       2.901  26.426  -1.028  0.00  0.00    -0.082 HD
ATOM     26  C   UNL     1       2.031  26.632  -2.975  0.00  0.00    -0.064 C 
ATOM     27  C   UNL     1       2.047  28.186  -2.959  0.00  0.00    +0.066 C 
ENDBRANCH  19  20
ENDBRANCH  18  19
ENDBRANCH  14  15
ENDBRANCH  12  13
TORSDOF 6
ENDMDL
