MODEL 1
REMARK VINA RESULT:      -7.7      0.000      0.000
REMARK  Name = C:\Users\Docking\Desktop\test protocol\1iep_ligandH.pdb
REMARK  8 active torsions:
REMARK  status: ('A' for Active; 'I' for Inactive)
REMARK    1  A    between atoms: _5  and  _11
REMARK    2  A    between atoms: _19  and  _21
REMARK    3  A    between atoms: _22  and  _66
REMARK    4  A    between atoms: _27  and  _30
REMARK    5  A    between atoms: _32  and  _33
REMARK    6  A    between atoms: _38  and  _43
REMARK    7  A    between atoms: _43  and  _46
REMARK    8  A    between atoms: _53  and  _55
REMARK                            x       y       z     vdW  Elec       q    Type
REMARK                         _______ _______ _______ _____ _____    ______ ____
ROOT
ATOM     10  C   UNL     1      -1.778   5.503  14.324  0.00  0.00    +0.038 A 
ATOM     11  C   UNL     1      -2.127   4.397  15.141  0.00  0.00    +0.047 A 
ATOM     12  C   UNL     1      -1.432   3.125  15.022  0.00  0.00    +0.035 A 
ATOM     32  C   UNL     1      -0.383   3.015  14.063  0.00  0.00    +0.024 A 
ATOM     33  C   UNL     1      -0.016   4.129  13.224  0.00  0.00    +0.007 A 
ATOM     34  C   UNL     1      -0.700   5.385  13.335  0.00  0.00    -0.029 A 
ATOM     35  C   UNL     1      -0.269   6.543  12.405  0.00  0.00    +0.045 C 
ENDROOT
BRANCH  10   9
ATOM      4  C   UNL     1      -5.412   8.451  13.255  0.00  0.00    +0.077 A 
ATOM      5  C   UNL     1      -5.944   7.539  12.284  0.00  0.00    +0.048 A 
ATOM      6  C   UNL     1      -5.249   6.325  12.084  0.00  0.00    +0.116 A 
ATOM      7  N   UNL     1      -4.108   6.054  12.808  0.00  0.00    -0.223 NA
ATOM      8  C   UNL     1      -3.621   6.956  13.736  0.00  0.00    +0.220 A 
ATOM      9  N   UNL     1      -2.479   6.701  14.480  0.00  0.00    -0.283 N 
ATOM     36  H   UNL     1      -2.148   7.396  15.149  0.00  0.00    +0.155 HD
ATOM     37  N   UNL     1      -4.266   8.123  13.944  0.00  0.00    -0.214 NA
BRANCH   4   3
ATOM      1  C   UNL     1      -7.700  11.623  13.166  0.00  0.00    +0.020 A 
ATOM      2  C   UNL     1      -7.133  10.343  12.809  0.00  0.00    +0.013 A 
ATOM      3  C   UNL     1      -6.036   9.773  13.581  0.00  0.00    +0.019 A 
ATOM     38  C   UNL     1      -5.532  10.529  14.718  0.00  0.00    +0.120 A 
ATOM     39  N   UNL     1      -6.096  11.760  15.037  0.00  0.00    -0.263 NA
ATOM     40  C   UNL     1      -7.151  12.319  14.301  0.00  0.00    +0.111 A 
ENDBRANCH   4   3
ENDBRANCH  10   9
BRANCH  12  13
ATOM     13  N   UNL     1      -1.747   1.965  15.819  0.00  0.00    -0.281 N 
ATOM     14  C   UNL     1      -1.586   1.800  17.185  0.00  0.00    +0.248 C 
ATOM     30  O   UNL     1      -0.942   2.554  17.900  0.00  0.00    -0.270 OA
ATOM     31  H   UNL     1      -2.138   1.169  15.314  0.00  0.00    +0.155 HD
BRANCH  14  15
ATOM     15  C   UNL     1      -2.218   0.621  17.849  0.00  0.00    +0.037 A 
ATOM     16  C   UNL     1      -3.157   0.788  18.962  0.00  0.00    +0.013 A 
ATOM     17  C   UNL     1      -3.739  -0.368  19.596  0.00  0.00    +0.005 A 
ATOM     18  C   UNL     1      -3.385  -1.702  19.118  0.00  0.00    -0.033 A 
ATOM     28  C   UNL     1      -2.456  -1.839  18.009  0.00  0.00    +0.005 A 
ATOM     29  C   UNL     1      -1.882  -0.709  17.385  0.00  0.00    +0.013 A 
BRANCH  18  19
ATOM     19  C   UNL     1      -3.942  -2.992  19.749  0.00  0.00    +0.119 C 
BRANCH  19  20
ATOM     20  N   UNL     1      -4.817  -3.849  18.894  0.00  0.00    -0.302 NA
ATOM     21  C   UNL     1      -6.213  -3.245  18.715  0.00  0.00    +0.066 C 
ATOM     22  C   UNL     1      -7.108  -4.143  17.799  0.00  0.00    -0.064 C 
ATOM     23  N   UNL     1      -7.198  -5.548  18.399  0.00  0.00    +0.379 N 
ATOM     24  C   UNL     1      -8.086  -6.378  17.572  0.00  0.00    -0.096 C 
ATOM     25  H   UNL     1      -7.664  -5.455  19.408  0.00  0.00    -0.082 HD
ATOM     26  C   UNL     1      -5.815  -6.154  18.584  0.00  0.00    -0.064 C 
ATOM     27  C   UNL     1      -4.924  -5.240  19.471  0.00  0.00    +0.066 C 
ENDBRANCH  19  20
ENDBRANCH  18  19
ENDBRANCH  14  15
ENDBRANCH  12  13
TORSDOF 6
ENDMDL
MODEL 2
REMARK VINA RESULT:      -7.6      2.148     12.363
REMARK  Name = C:\Users\Docking\Desktop\test protocol\1iep_ligandH.pdb
REMARK  8 active torsions:
REMARK  status: ('A' for Active; 'I' for Inactive)
REMARK    1  A    between atoms: _5  and  _11
REMARK    2  A    between atoms: _19  and  _21
REMARK    3  A    between atoms: _22  and  _66
REMARK    4  A    between atoms: _27  and  _30
REMARK    5  A    between atoms: _32  and  _33
REMARK    6  A    between atoms: _38  and  _43
REMARK    7  A    between atoms: _43  and  _46
REMARK    8  A    between atoms: _53  and  _55
REMARK                            x       y       z     vdW  Elec       q    Type
REMARK                         _______ _______ _______ _____ _____    ______ ____
ROOT
ATOM     10  C   UNL     1      -0.774   1.865  15.565  0.00  0.00    +0.038 A 
ATOM     11  C   UNL     1      -1.716   2.862  15.204  0.00  0.00    +0.047 A 
ATOM     12  C   UNL     1      -1.303   4.238  14.973  0.00  0.00    +0.035 A 
ATOM     32  C   UNL     1       0.077   4.562  15.115  0.00  0.00    +0.024 A 
ATOM     33  C   UNL     1       1.048   3.561  15.482  0.00  0.00    +0.007 A 
ATOM     34  C   UNL     1       0.647   2.203  15.714  0.00  0.00    -0.029 A 
ATOM     35  C   UNL     1       1.730   1.173  16.112  0.00  0.00    +0.045 C 
ENDROOT
BRANCH  10   9
ATOM      4  C   UNL     1      -2.606  -1.583  18.356  0.00  0.00    +0.077 A 
ATOM      5  C   UNL     1      -2.643  -0.719  19.501  0.00  0.00    +0.048 A 
ATOM      6  C   UNL     1      -2.175   0.604  19.331  0.00  0.00    +0.116 A 
ATOM      7  N   UNL     1      -1.707   1.020  18.103  0.00  0.00    -0.223 NA
ATOM      8  C   UNL     1      -1.683   0.160  17.020  0.00  0.00    +0.220 A 
ATOM      9  N   UNL     1      -1.225   0.559  15.774  0.00  0.00    -0.283 N 
ATOM     36  H   UNL     1      -1.216  -0.107  15.003  0.00  0.00    +0.155 HD
ATOM     37  N   UNL     1      -2.124  -1.108  17.157  0.00  0.00    -0.214 NA
BRANCH   4   3
ATOM      1  C   UNL     1      -4.376  -4.947  17.431  0.00  0.00    +0.020 A 
ATOM      2  C   UNL     1      -3.959  -3.565  17.366  0.00  0.00    +0.013 A 
ATOM      3  C   UNL     1      -3.069  -3.007  18.377  0.00  0.00    +0.019 A 
ATOM     38  C   UNL     1      -2.615  -3.881  19.448  0.00  0.00    +0.120 A 
ATOM     39  N   UNL     1      -3.034  -5.207  19.486  0.00  0.00    -0.263 NA
ATOM     40  C   UNL     1      -3.892  -5.754  18.520  0.00  0.00    +0.111 A 
ENDBRANCH   4   3
ENDBRANCH  10   9
BRANCH  12  13
ATOM     13  N   UNL     1      -2.216   5.295  14.612  0.00  0.00    -0.281 N 
ATOM     14  C   UNL     1      -2.430   5.844  13.359  0.00  0.00    +0.248 C 
ATOM     30  O   UNL     1      -1.712   5.653  12.389  0.00  0.00    -0.270 OA
ATOM     31  H   UNL     1      -2.770   5.685  15.374  0.00  0.00    +0.155 HD
BRANCH  14  15
ATOM     15  C   UNL     1      -3.605   6.746  13.157  0.00  0.00    +0.037 A 
ATOM     16  C   UNL     1      -4.730   6.350  12.307  0.00  0.00    +0.013 A 
ATOM     17  C   UNL     1      -5.843   7.246  12.115  0.00  0.00    +0.005 A 
ATOM     18  C   UNL     1      -5.836   8.548  12.778  0.00  0.00    -0.033 A 
ATOM     28  C   UNL     1      -4.709   8.913  13.621  0.00  0.00    +0.005 A 
ATOM     29  C   UNL     1      -3.616   8.038  13.810  0.00  0.00    +0.013 A 
BRANCH  18  19
ATOM     19  C   UNL     1      -6.970   9.576  12.614  0.00  0.00    +0.119 C 
BRANCH  19  20
ATOM     20  N   UNL     1      -6.794  10.902  13.280  0.00  0.00    -0.302 NA
ATOM     21  C   UNL     1      -7.622  11.015  14.563  0.00  0.00    +0.066 C 
ATOM     22  C   UNL     1      -7.408  12.399  15.258  0.00  0.00    -0.064 C 
ATOM     23  N   UNL     1      -7.768  13.519  14.280  0.00  0.00    +0.379 N 
ATOM     24  C   UNL     1      -7.623  14.820  14.949  0.00  0.00    -0.096 C 
ATOM     25  H   UNL     1      -8.842  13.397  14.006  0.00  0.00    -0.082 HD
ATOM     26  C   UNL     1      -6.951  13.412  13.000  0.00  0.00    -0.064 C 
ATOM     27  C   UNL     1      -7.148  12.022  12.333  0.00  0.00    +0.066 C 
ENDBRANCH  19  20
ENDBRANCH  18  19
ENDBRANCH  14  15
ENDBRANCH  12  13
TORSDOF 6
ENDMDL
MODEL 3
REMARK VINA RESULT:      -7.5      0.581      1.174
REMARK  Name = C:\Users\Docking\Desktop\test protocol\1iep_ligandH.pdb
REMARK  8 active torsions:
REMARK  status: ('A' for Active; 'I' for Inactive)
REMARK    1  A    between atoms: _5  and  _11
REMARK    2  A    between atoms: _19  and  _21
REMARK    3  A    between atoms: _22  and  _66
REMARK    4  A    between atoms: _27  and  _30
REMARK    5  A    between atoms: _32  and  _33
REMARK    6  A    between atoms: _38  and  _43
REMARK    7  A    between atoms: _43  and  _46
REMARK    8  A    between atoms: _53  and  _55
REMARK                            x       y       z     vdW  Elec       q    Type
REMARK                         _______ _______ _______ _____ _____    ______ ____
ROOT
ATOM     10  C   UNL     1      -1.799   5.594  14.382  0.00  0.00    +0.038 A 
ATOM     11  C   UNL     1      -2.210   4.454  15.119  0.00  0.00    +0.047 A 
ATOM     12  C   UNL     1      -1.486   3.196  15.024  0.00  0.00    +0.035 A 
ATOM     32  C   UNL     1      -0.346   3.135  14.171  0.00  0.00    +0.024 A 
ATOM     33  C   UNL     1       0.085   4.284  13.414  0.00  0.00    +0.007 A 
ATOM     34  C   UNL     1      -0.627   5.527  13.501  0.00  0.00    -0.029 A 
ATOM     35  C   UNL     1      -0.123   6.724  12.662  0.00  0.00    +0.045 C 
ENDROOT
BRANCH  10   9
ATOM      4  C   UNL     1      -5.509   8.420  13.249  0.00  0.00    +0.077 A 
ATOM      5  C   UNL     1      -6.018   7.472  12.301  0.00  0.00    +0.048 A 
ATOM      6  C   UNL     1      -5.292   6.272  12.129  0.00  0.00    +0.116 A 
ATOM      7  N   UNL     1      -4.143   6.048  12.857  0.00  0.00    -0.223 NA
ATOM      8  C   UNL     1      -3.679   6.985  13.762  0.00  0.00    +0.220 A 
ATOM      9  N   UNL     1      -2.531   6.777  14.511  0.00  0.00    -0.283 N 
ATOM     36  H   UNL     1      -2.217   7.495  15.163  0.00  0.00    +0.155 HD
ATOM     37  N   UNL     1      -4.354   8.139  13.943  0.00  0.00    -0.214 NA
BRANCH   4   3
ATOM      1  C   UNL     1      -6.130  12.115  14.373  0.00  0.00    +0.020 A 
ATOM      2  C   UNL     1      -5.448  10.870  14.106  0.00  0.00    +0.013 A 
ATOM      3  C   UNL     1      -6.167   9.733  13.545  0.00  0.00    +0.019 A 
ATOM     38  C   UNL     1      -7.585   9.890  13.261  0.00  0.00    +0.120 A 
ATOM     39  N   UNL     1      -8.215  11.101  13.529  0.00  0.00    -0.263 NA
ATOM     40  C   UNL     1      -7.535  12.202  14.071  0.00  0.00    +0.111 A 
ENDBRANCH   4   3
ENDBRANCH  10   9
BRANCH  12  13
ATOM     13  N   UNL     1      -1.861   2.003  15.742  0.00  0.00    -0.281 N 
ATOM     14  C   UNL     1      -1.325   1.516  16.923  0.00  0.00    +0.248 C 
ATOM     30  O   UNL     1      -0.291   1.922  17.432  0.00  0.00    -0.270 OA
ATOM     31  H   UNL     1      -2.613   1.450  15.330  0.00  0.00    +0.155 HD
BRANCH  14  15
ATOM     15  C   UNL     1      -2.033   0.408  17.635  0.00  0.00    +0.037 A 
ATOM     16  C   UNL     1      -1.751  -0.996  17.325  0.00  0.00    +0.013 A 
ATOM     17  C   UNL     1      -2.460  -2.045  18.014  0.00  0.00    +0.005 A 
ATOM     18  C   UNL     1      -3.458  -1.693  19.021  0.00  0.00    -0.033 A 
ATOM     28  C   UNL     1      -3.714  -0.292  19.312  0.00  0.00    +0.005 A 
ATOM     29  C   UNL     1      -3.022   0.739  18.638  0.00  0.00    +0.013 A 
BRANCH  18  19
ATOM     19  C   UNL     1      -4.278  -2.746  19.790  0.00  0.00    +0.119 C 
BRANCH  19  20
ATOM     20  N   UNL     1      -5.043  -3.741  18.981  0.00  0.00    -0.302 NA
ATOM     21  C   UNL     1      -6.457  -3.250  18.655  0.00  0.00    +0.066 C 
ATOM     22  C   UNL     1      -7.236  -4.293  17.789  0.00  0.00    -0.064 C 
ATOM     23  N   UNL     1      -7.285  -5.631  18.529  0.00  0.00    +0.379 N 
ATOM     24  C   UNL     1      -8.066  -6.597  17.745  0.00  0.00    -0.096 C 
ATOM     25  H   UNL     1      -7.821  -5.465  19.493  0.00  0.00    -0.082 HD
ATOM     26  C   UNL     1      -5.883  -6.125  18.860  0.00  0.00    -0.064 C 
ATOM     27  C   UNL     1      -5.108  -5.068  19.696  0.00  0.00    +0.066 C 
ENDBRANCH  19  20
ENDBRANCH  18  19
ENDBRANCH  14  15
ENDBRANCH  12  13
TORSDOF 6
ENDMDL
MODEL 4
REMARK VINA RESULT:      -7.5      1.068      1.759
REMARK  Name = C:\Users\Docking\Desktop\test protocol\1iep_ligandH.pdb
REMARK  8 active torsions:
REMARK  status: ('A' for Active; 'I' for Inactive)
REMARK    1  A    between atoms: _5  and  _11
REMARK    2  A    between atoms: _19  and  _21
REMARK    3  A    between atoms: _22  and  _66
REMARK    4  A    between atoms: _27  and  _30
REMARK    5  A    between atoms: _32  and  _33
REMARK    6  A    between atoms: _38  and  _43
REMARK    7  A    between atoms: _43  and  _46
REMARK    8  A    between atoms: _53  and  _55
REMARK                            x       y       z     vdW  Elec       q    Type
REMARK                         _______ _______ _______ _____ _____    ______ ____
ROOT
ATOM     10  C   UNL     1      -1.846   5.534  14.390  0.00  0.00    +0.038 A 
ATOM     11  C   UNL     1      -2.294   4.421  15.146  0.00  0.00    +0.047 A 
ATOM     12  C   UNL     1      -1.614   3.137  15.069  0.00  0.00    +0.035 A 
ATOM     32  C   UNL     1      -0.479   3.023  14.215  0.00  0.00    +0.024 A 
ATOM     33  C   UNL     1      -0.011   4.144  13.439  0.00  0.00    +0.007 A 
ATOM     34  C   UNL     1      -0.678   5.412  13.508  0.00  0.00    -0.029 A 
ATOM     35  C   UNL     1      -0.136   6.578  12.649  0.00  0.00    +0.045 C 
ENDROOT
BRANCH  10   9
ATOM      4  C   UNL     1      -5.432   8.488  13.185  0.00  0.00    +0.077 A 
ATOM      5  C   UNL     1      -5.960   7.553  12.233  0.00  0.00    +0.048 A 
ATOM      6  C   UNL     1      -5.276   6.327  12.078  0.00  0.00    +0.116 A 
ATOM      7  N   UNL     1      -4.148   6.065  12.826  0.00  0.00    -0.223 NA
ATOM      8  C   UNL     1      -3.664   6.989  13.734  0.00  0.00    +0.220 A 
ATOM      9  N   UNL     1      -2.536   6.743  14.501  0.00  0.00    -0.283 N 
ATOM     36  H   UNL     1      -2.206   7.453  15.155  0.00  0.00    +0.155 HD
ATOM     37  N   UNL     1      -4.299   8.168  13.899  0.00  0.00    -0.214 NA
BRANCH   4   3
ATOM      1  C   UNL     1      -6.096  12.063  14.626  0.00  0.00    +0.020 A 
ATOM      2  C   UNL     1      -5.464  10.785  14.392  0.00  0.00    +0.013 A 
ATOM      3  C   UNL     1      -6.046   9.824  13.464  0.00  0.00    +0.019 A 
ATOM     38  C   UNL     1      -7.277  10.191  12.781  0.00  0.00    +0.120 A 
ATOM     39  N   UNL     1      -7.865  11.428  13.027  0.00  0.00    -0.263 NA
ATOM     40  C   UNL     1      -7.315  12.360  13.920  0.00  0.00    +0.111 A 
ENDBRANCH   4   3
ENDBRANCH  10   9
BRANCH  12  13
ATOM     13  N   UNL     1      -2.028   1.969  15.807  0.00  0.00    -0.281 N 
ATOM     14  C   UNL     1      -1.596   1.553  17.056  0.00  0.00    +0.248 C 
ATOM     30  O   UNL     1      -0.624   2.010  17.638  0.00  0.00    -0.270 OA
ATOM     31  H   UNL     1      -2.725   1.378  15.354  0.00  0.00    +0.155 HD
BRANCH  14  15
ATOM     15  C   UNL     1      -2.343   0.461  17.751  0.00  0.00    +0.037 A 
ATOM     16  C   UNL     1      -2.093  -0.949  17.439  0.00  0.00    +0.013 A 
ATOM     17  C   UNL     1      -2.839  -1.982  18.112  0.00  0.00    +0.005 A 
ATOM     18  C   UNL     1      -3.842  -1.609  19.106  0.00  0.00    -0.033 A 
ATOM     28  C   UNL     1      -4.066  -0.203  19.400  0.00  0.00    +0.005 A 
ATOM     29  C   UNL     1      -3.338   0.813  18.742  0.00  0.00    +0.013 A 
BRANCH  18  19
ATOM     19  C   UNL     1      -4.700  -2.643  19.858  0.00  0.00    +0.119 C 
BRANCH  19  20
ATOM     20  N   UNL     1      -4.406  -4.086  19.609  0.00  0.00    -0.302 NA
ATOM     21  C   UNL     1      -5.669  -4.878  19.261  0.00  0.00    +0.066 C 
ATOM     22  C   UNL     1      -5.340  -6.381  18.982  0.00  0.00    -0.064 C 
ATOM     23  N   UNL     1      -4.642  -6.983  20.202  0.00  0.00    +0.379 N 
ATOM     24  C   UNL     1      -4.383  -8.411  19.965  0.00  0.00    -0.096 C 
ATOM     25  H   UNL     1      -5.343  -6.905  21.065  0.00  0.00    -0.082 HD
ATOM     26  C   UNL     1      -3.386  -6.200  20.556  0.00  0.00    -0.064 C 
ATOM     27  C   UNL     1      -3.720  -4.702  20.804  0.00  0.00    +0.066 C 
ENDBRANCH  19  20
ENDBRANCH  18  19
ENDBRANCH  14  15
ENDBRANCH  12  13
TORSDOF 6
ENDMDL
MODEL 5
REMARK VINA RESULT:      -7.5     21.552     23.500
REMARK  Name = C:\Users\Docking\Desktop\test protocol\1iep_ligandH.pdb
REMARK  8 active torsions:
REMARK  status: ('A' for Active; 'I' for Inactive)
REMARK    1  A    between atoms: _5  and  _11
REMARK    2  A    between atoms: _19  and  _21
REMARK    3  A    between atoms: _22  and  _66
REMARK    4  A    between atoms: _27  and  _30
REMARK    5  A    between atoms: _32  and  _33
REMARK    6  A    between atoms: _38  and  _43
REMARK    7  A    between atoms: _43  and  _46
REMARK    8  A    between atoms: _53  and  _55
REMARK                            x       y       z     vdW  Elec       q    Type
REMARK                         _______ _______ _______ _____ _____    ______ ____
ROOT
ATOM     10  C   UNL     1      -7.899   7.481  -7.677  0.00  0.00    +0.038 A 
ATOM     11  C   UNL     1      -7.809   6.159  -7.170  0.00  0.00    +0.047 A 
ATOM     12  C   UNL     1      -7.722   5.015  -8.064  0.00  0.00    +0.035 A 
ATOM     32  C   UNL     1      -7.726   5.253  -9.469  0.00  0.00    +0.024 A 
ATOM     33  C   UNL     1      -7.818   6.590 -10.002  0.00  0.00    +0.007 A 
ATOM     34  C   UNL     1      -7.907   7.723  -9.125  0.00  0.00    -0.029 A 
ATOM     35  C   UNL     1      -8.011   9.133  -9.752  0.00  0.00    +0.045 C 
ENDROOT
BRANCH  10   9
ATOM      4  C   UNL     1     -10.374  10.351  -4.731  0.00  0.00    +0.077 A 
ATOM      5  C   UNL     1     -11.613   9.697  -5.039  0.00  0.00    +0.048 A 
ATOM      6  C   UNL     1     -11.572   8.631  -5.966  0.00  0.00    +0.116 A 
ATOM      7  N   UNL     1     -10.374   8.255  -6.536  0.00  0.00    -0.223 NA
ATOM      8  C   UNL     1      -9.198   8.909  -6.218  0.00  0.00    +0.220 A 
ATOM      9  N   UNL     1      -7.981   8.543  -6.774  0.00  0.00    -0.283 N 
ATOM     36  H   UNL     1      -7.137   9.054  -6.519  0.00  0.00    +0.155 HD
ATOM     37  N   UNL     1      -9.211   9.931  -5.337  0.00  0.00    -0.214 NA
BRANCH   4   3
ATOM      1  C   UNL     1      -9.088  12.736  -1.910  0.00  0.00    +0.020 A 
ATOM      2  C   UNL     1      -9.157  11.614  -2.818  0.00  0.00    +0.013 A 
ATOM      3  C   UNL     1     -10.254  11.492  -3.769  0.00  0.00    +0.019 A 
ATOM     38  C   UNL     1     -11.274  12.530  -3.777  0.00  0.00    +0.120 A 
ATOM     39  N   UNL     1     -11.182  13.598  -2.890  0.00  0.00    -0.263 NA
ATOM     40  C   UNL     1     -10.131  13.726  -1.969  0.00  0.00    +0.111 A 
ENDBRANCH   4   3
ENDBRANCH  10   9
BRANCH  12  13
ATOM     13  N   UNL     1      -7.636   3.650  -7.607  0.00  0.00    -0.281 N 
ATOM     14  C   UNL     1      -8.636   2.691  -7.597  0.00  0.00    +0.248 C 
ATOM     30  O   UNL     1      -9.821   2.926  -7.783  0.00  0.00    -0.270 OA
ATOM     31  H   UNL     1      -6.728   3.355  -7.248  0.00  0.00    +0.155 HD
BRANCH  14  15
ATOM     15  C   UNL     1      -8.269   1.268  -7.328  0.00  0.00    +0.037 A 
ATOM     16  C   UNL     1      -8.845   0.173  -8.112  0.00  0.00    +0.013 A 
ATOM     17  C   UNL     1      -8.486  -1.193  -7.820  0.00  0.00    +0.005 A 
ATOM     18  C   UNL     1      -7.544  -1.470  -6.739  0.00  0.00    -0.033 A 
ATOM     28  C   UNL     1      -6.984  -0.365  -5.980  0.00  0.00    +0.005 A 
ATOM     29  C   UNL     1      -7.334   0.975  -6.262  0.00  0.00    +0.013 A 
BRANCH  18  19
ATOM     19  C   UNL     1      -7.121  -2.898  -6.344  0.00  0.00    +0.119 C 
BRANCH  19  20
ATOM     20  N   UNL     1      -7.253  -3.962  -7.383  0.00  0.00    -0.302 NA
ATOM     21  C   UNL     1      -7.286  -5.364  -6.768  0.00  0.00    +0.066 C 
ATOM     22  C   UNL     1      -7.446  -6.464  -7.868  0.00  0.00    -0.064 C 
ATOM     23  N   UNL     1      -6.304  -6.342  -8.878  0.00  0.00    +0.379 N 
ATOM     24  C   UNL     1      -6.420  -7.411  -9.881  0.00  0.00    -0.096 C 
ATOM     25  H   UNL     1      -5.348  -6.497  -8.327  0.00  0.00    -0.082 HD
ATOM     26  C   UNL     1      -6.262  -4.950  -9.492  0.00  0.00    -0.064 C 
ATOM     27  C   UNL     1      -6.132  -3.863  -8.389  0.00  0.00    +0.066 C 
ENDBRANCH  19  20
ENDBRANCH  18  19
ENDBRANCH  14  15
ENDBRANCH  12  13
TORSDOF 6
ENDMDL
