MODEL 1
REMARK VINA RESULT:      -8.2      0.000      0.000
REMARK  Name = C:\Users\Docking\Desktop\test protocol\1iep_ligandH.pdb
REMARK  8 active torsions:
REMARK  status: ('A' for Active; 'I' for Inactive)
REMARK    1  A    between atoms: _5  and  _11
REMARK    2  A    between atoms: _19  and  _21
REMARK    3  A    between atoms: _22  and  _66
REMARK    4  A    between atoms: _27  and  _30
REMARK    5  A    between atoms: _32  and  _33
REMARK    6  A    between atoms: _38  and  _43
REMARK    7  A    between atoms: _43  and  _46
REMARK    8  A    between atoms: _53  and  _55
REMARK                            x       y       z     vdW  Elec       q    Type
REMARK                         _______ _______ _______ _____ _____    ______ ____
ROOT
ATOM     10  C   UNL     1      15.081  22.088   6.603  0.00  0.00    +0.038 A 
ATOM     11  C   UNL     1      16.051  22.007   7.635  0.00  0.00    +0.047 A 
ATOM     12  C   UNL     1      17.042  20.943   7.654  0.00  0.00    +0.035 A 
ATOM     32  C   UNL     1      17.019  19.979   6.604  0.00  0.00    +0.024 A 
ATOM     33  C   UNL     1      16.040  20.046   5.548  0.00  0.00    +0.007 A 
ATOM     34  C   UNL     1      15.058  21.092   5.525  0.00  0.00    -0.029 A 
ATOM     35  C   UNL     1      14.028  21.110   4.372  0.00  0.00    +0.045 C 
ENDROOT
BRANCH  10   9
ATOM      4  C   UNL     1      10.964  24.046   8.105  0.00  0.00    +0.077 A 
ATOM      5  C   UNL     1      10.622  22.882   8.871  0.00  0.00    +0.048 A 
ATOM      6  C   UNL     1      11.528  21.799   8.846  0.00  0.00    +0.116 A 
ATOM      7  N   UNL     1      12.688  21.884   8.107  0.00  0.00    -0.223 NA
ATOM      8  C   UNL     1      12.988  23.020   7.378  0.00  0.00    +0.220 A 
ATOM      9  N   UNL     1      14.153  23.131   6.634  0.00  0.00    -0.283 N 
ATOM     36  H   UNL     1      14.334  23.983   6.104  0.00  0.00    +0.155 HD
ATOM     37  N   UNL     1      12.138  24.068   7.384  0.00  0.00    -0.214 NA
BRANCH   4   3
ATOM      1  C   UNL     1       8.857  27.190   9.091  0.00  0.00    +0.020 A 
ATOM      2  C   UNL     1       9.682  26.011   9.215  0.00  0.00    +0.013 A 
ATOM      3  C   UNL     1      10.110  25.273   8.033  0.00  0.00    +0.019 A 
ATOM     38  C   UNL     1       9.684  25.761   6.730  0.00  0.00    +0.120 A 
ATOM     39  N   UNL     1       8.889  26.899   6.641  0.00  0.00    -0.263 NA
ATOM     40  C   UNL     1       8.469  27.616   7.772  0.00  0.00    +0.111 A 
ENDBRANCH   4   3
ENDBRANCH  10   9
BRANCH  12  13
ATOM     13  N   UNL     1      18.046  20.805   8.680  0.00  0.00    -0.281 N 
ATOM     14  C   UNL     1      19.406  21.047   8.579  0.00  0.00    +0.248 C 
ATOM     30  O   UNL     1      20.002  21.215   7.525  0.00  0.00    -0.270 OA
ATOM     31  H   UNL     1      17.713  20.491   9.591  0.00  0.00    +0.155 HD
BRANCH  14  15
ATOM     15  C   UNL     1      20.226  21.094   9.827  0.00  0.00    +0.037 A 
ATOM     16  C   UNL     1      21.217  22.151  10.046  0.00  0.00    +0.013 A 
ATOM     17  C   UNL     1      22.007  22.164  11.252  0.00  0.00    +0.005 A 
ATOM     18  C   UNL     1      21.807  21.116  12.250  0.00  0.00    -0.033 A 
ATOM     28  C   UNL     1      20.813  20.083  12.010  0.00  0.00    +0.005 A 
ATOM     29  C   UNL     1      20.038  20.066  10.829  0.00  0.00    +0.013 A 
BRANCH  18  19
ATOM     19  C   UNL     1      22.619  21.039  13.556  0.00  0.00    +0.119 C 
BRANCH  19  20
ATOM     20  N   UNL     1      22.056  21.732  14.753  0.00  0.00    -0.302 NA
ATOM     21  C   UNL     1      21.988  23.250  14.560  0.00  0.00    +0.066 C 
ATOM     22  C   UNL     1      21.375  23.956  15.813  0.00  0.00    -0.064 C 
ATOM     23  N   UNL     1      22.205  23.605  17.049  0.00  0.00    +0.379 N 
ATOM     24  C   UNL     1      21.667  24.315  18.219  0.00  0.00    -0.096 C 
ATOM     25  H   UNL     1      23.242  23.976  16.876  0.00  0.00    -0.082 HD
ATOM     26  C   UNL     1      22.281  22.098  17.247  0.00  0.00    -0.064 C 
ATOM     27  C   UNL     1      22.863  21.403  15.985  0.00  0.00    +0.066 C 
ENDBRANCH  19  20
ENDBRANCH  18  19
ENDBRANCH  14  15
ENDBRANCH  12  13
TORSDOF 6
ENDMDL
MODEL 2
REMARK VINA RESULT:      -8.1      1.178      1.504
REMARK  Name = C:\Users\Docking\Desktop\test protocol\1iep_ligandH.pdb
REMARK  8 active torsions:
REMARK  status: ('A' for Active; 'I' for Inactive)
REMARK    1  A    between atoms: _5  and  _11
REMARK    2  A    between atoms: _19  and  _21
REMARK    3  A    between atoms: _22  and  _66
REMARK    4  A    between atoms: _27  and  _30
REMARK    5  A    between atoms: _32  and  _33
REMARK    6  A    between atoms: _38  and  _43
REMARK    7  A    between atoms: _43  and  _46
REMARK    8  A    between atoms: _53  and  _55
REMARK                            x       y       z     vdW  Elec       q    Type
REMARK                         _______ _______ _______ _____ _____    ______ ____
ROOT
ATOM     10  C   UNL     1      14.242  21.110   7.364  0.00  0.00    +0.038 A 
ATOM     11  C   UNL     1      15.343  21.132   8.258  0.00  0.00    +0.047 A 
ATOM     12  C   UNL     1      16.278  20.020   8.328  0.00  0.00    +0.035 A 
ATOM     32  C   UNL     1      16.063  18.901   7.471  0.00  0.00    +0.024 A 
ATOM     33  C   UNL     1      14.949  18.862   6.557  0.00  0.00    +0.007 A 
ATOM     34  C   UNL     1      14.022  19.955   6.485  0.00  0.00    -0.029 A 
ATOM     35  C   UNL     1      12.841  19.855   5.491  0.00  0.00    +0.045 C 
ENDROOT
BRANCH  10   9
ATOM      4  C   UNL     1      10.542  23.622   9.107  0.00  0.00    +0.077 A 
ATOM      5  C   UNL     1      10.298  22.657  10.140  0.00  0.00    +0.048 A 
ATOM      6  C   UNL     1      11.142  21.525  10.184  0.00  0.00    +0.116 A 
ATOM      7  N   UNL     1      12.153  21.379   9.259  0.00  0.00    -0.223 NA
ATOM      8  C   UNL     1      12.361  22.327   8.274  0.00  0.00    +0.220 A 
ATOM      9  N   UNL     1      13.376  22.205   7.338  0.00  0.00    -0.283 N 
ATOM     36  H   UNL     1      13.491  22.922   6.622  0.00  0.00    +0.155 HD
ATOM     37  N   UNL     1      11.567  23.417   8.210  0.00  0.00    -0.214 NA
BRANCH   4   3
ATOM      1  C   UNL     1       7.563  26.100   8.574  0.00  0.00    +0.020 A 
ATOM      2  C   UNL     1       8.293  24.864   8.738  0.00  0.00    +0.013 A 
ATOM      3  C   UNL     1       9.738  24.872   8.931  0.00  0.00    +0.019 A 
ATOM     38  C   UNL     1      10.418  26.158   8.955  0.00  0.00    +0.120 A 
ATOM     39  N   UNL     1       9.689  27.332   8.793  0.00  0.00    -0.263 NA
ATOM     40  C   UNL     1       8.299  27.336   8.604  0.00  0.00    +0.111 A 
ENDBRANCH   4   3
ENDBRANCH  10   9
BRANCH  12  13
ATOM     13  N   UNL     1      17.409  19.983   9.222  0.00  0.00    -0.281 N 
ATOM     14  C   UNL     1      18.737  20.240   8.925  0.00  0.00    +0.248 C 
ATOM     30  O   UNL     1      19.187  20.333   7.793  0.00  0.00    -0.270 OA
ATOM     31  H   UNL     1      17.205  19.737  10.191  0.00  0.00    +0.155 HD
BRANCH  14  15
ATOM     15  C   UNL     1      19.710  20.402  10.049  0.00  0.00    +0.037 A 
ATOM     16  C   UNL     1      19.736  19.463  11.173  0.00  0.00    +0.013 A 
ATOM     17  C   UNL     1      20.672  19.653  12.252  0.00  0.00    +0.005 A 
ATOM     18  C   UNL     1      21.592  20.787  12.211  0.00  0.00    -0.033 A 
ATOM     28  C   UNL     1      21.549  21.700  11.081  0.00  0.00    +0.005 A 
ATOM     29  C   UNL     1      20.631  21.518  10.022  0.00  0.00    +0.013 A 
BRANCH  18  19
ATOM     19  C   UNL     1      22.611  21.079  13.329  0.00  0.00    +0.119 C 
BRANCH  19  20
ATOM     20  N   UNL     1      22.092  21.713  14.578  0.00  0.00    -0.302 NA
ATOM     21  C   UNL     1      21.984  23.235  14.447  0.00  0.00    +0.066 C 
ATOM     22  C   UNL     1      21.419  23.880  15.754  0.00  0.00    -0.064 C 
ATOM     23  N   UNL     1      22.314  23.500  16.935  0.00  0.00    +0.379 N 
ATOM     24  C   UNL     1      21.818  24.153  18.155  0.00  0.00    -0.096 C 
ATOM     25  H   UNL     1      23.334  23.899  16.728  0.00  0.00    -0.082 HD
ATOM     26  C   UNL     1      22.429  21.989  17.071  0.00  0.00    -0.064 C 
ATOM     27  C   UNL     1      22.964  21.355  15.756  0.00  0.00    +0.066 C 
ENDBRANCH  19  20
ENDBRANCH  18  19
ENDBRANCH  14  15
ENDBRANCH  12  13
TORSDOF 6
ENDMDL
MODEL 3
REMARK VINA RESULT:      -7.9      8.091     16.039
REMARK  Name = C:\Users\Docking\Desktop\test protocol\1iep_ligandH.pdb
REMARK  8 active torsions:
REMARK  status: ('A' for Active; 'I' for Inactive)
REMARK    1  A    between atoms: _5  and  _11
REMARK    2  A    between atoms: _19  and  _21
REMARK    3  A    between atoms: _22  and  _66
REMARK    4  A    between atoms: _27  and  _30
REMARK    5  A    between atoms: _32  and  _33
REMARK    6  A    between atoms: _38  and  _43
REMARK    7  A    between atoms: _43  and  _46
REMARK    8  A    between atoms: _53  and  _55
REMARK                            x       y       z     vdW  Elec       q    Type
REMARK                         _______ _______ _______ _____ _____    ______ ____
ROOT
ATOM     10  C   UNL     1       8.938  25.045   8.280  0.00  0.00    +0.038 A 
ATOM     11  C   UNL     1       7.551  25.300   8.123  0.00  0.00    +0.047 A 
ATOM     12  C   UNL     1       7.035  26.659   8.094  0.00  0.00    +0.035 A 
ATOM     32  C   UNL     1       7.959  27.736   8.225  0.00  0.00    +0.024 A 
ATOM     33  C   UNL     1       9.372  27.495   8.387  0.00  0.00    +0.007 A 
ATOM     34  C   UNL     1       9.887  26.156   8.418  0.00  0.00    -0.029 A 
ATOM     35  C   UNL     1      11.409  25.957   8.601  0.00  0.00    +0.045 C 
ENDROOT
BRANCH  10   9
ATOM      4  C   UNL     1      10.447  21.122  10.598  0.00  0.00    +0.077 A 
ATOM      5  C   UNL     1      10.377  21.776  11.872  0.00  0.00    +0.048 A 
ATOM      6  C   UNL     1       9.954  23.124  11.888  0.00  0.00    +0.116 A 
ATOM      7  N   UNL     1       9.629  23.761  10.709  0.00  0.00    -0.223 NA
ATOM      8  C   UNL     1       9.709  23.101   9.497  0.00  0.00    +0.220 A 
ATOM      9  N   UNL     1       9.379  23.720   8.301  0.00  0.00    -0.283 N 
ATOM     36  H   UNL     1       9.459  23.201   7.426  0.00  0.00    +0.155 HD
ATOM     37  N   UNL     1      10.111  21.814   9.456  0.00  0.00    -0.214 NA
BRANCH   4   3
ATOM      1  C   UNL     1      10.665  17.227  10.882  0.00  0.00    +0.020 A 
ATOM      2  C   UNL     1      10.215  18.584  11.090  0.00  0.00    +0.013 A 
ATOM      3  C   UNL     1      10.873  19.698  10.418  0.00  0.00    +0.019 A 
ATOM     38  C   UNL     1      11.991  19.402   9.535  0.00  0.00    +0.120 A 
ATOM     39  N   UNL     1      12.403  18.085   9.355  0.00  0.00    -0.263 NA
ATOM     40  C   UNL     1      11.779  17.006   9.997  0.00  0.00    +0.111 A 
ENDBRANCH   4   3
ENDBRANCH  10   9
BRANCH  12  13
ATOM     13  N   UNL     1       5.637  26.979   7.945  0.00  0.00    -0.281 N 
ATOM     14  C   UNL     1       4.899  27.049   6.774  0.00  0.00    +0.248 C 
ATOM     30  O   UNL     1       5.383  27.056   5.652  0.00  0.00    -0.270 OA
ATOM     31  H   UNL     1       5.129  27.178   8.807  0.00  0.00    +0.155 HD
BRANCH  14  15
ATOM     15  C   UNL     1       3.410  27.139   6.864  0.00  0.00    +0.037 A 
ATOM     16  C   UNL     1       2.603  25.991   7.285  0.00  0.00    +0.013 A 
ATOM     17  C   UNL     1       1.167  26.100   7.346  0.00  0.00    +0.005 A 
ATOM     18  C   UNL     1       0.528  27.364   6.986  0.00  0.00    -0.033 A 
ATOM     28  C   UNL     1       1.353  28.488   6.577  0.00  0.00    +0.005 A 
ATOM     29  C   UNL     1       2.761  28.385   6.514  0.00  0.00    +0.013 A 
BRANCH  18  19
ATOM     19  C   UNL     1      -0.999  27.563   7.002  0.00  0.00    +0.119 C 
BRANCH  19  20
ATOM     20  N   UNL     1      -1.675  27.558   8.333  0.00  0.00    -0.302 NA
ATOM     21  C   UNL     1      -0.843  28.270   9.403  0.00  0.00    +0.066 C 
ATOM     22  C   UNL     1      -1.575  28.276  10.784  0.00  0.00    -0.064 C 
ATOM     23  N   UNL     1      -1.879  26.836  11.203  0.00  0.00    +0.379 N 
ATOM     24  C   UNL     1      -2.515  26.834  12.528  0.00  0.00    -0.096 C 
ATOM     25  H   UNL     1      -0.906  26.299  11.294  0.00  0.00    -0.082 HD
ATOM     26  C   UNL     1      -2.704  26.120  10.143  0.00  0.00    -0.064 C 
ATOM     27  C   UNL     1      -1.980  26.146   8.768  0.00  0.00    +0.066 C 
ENDBRANCH  19  20
ENDBRANCH  18  19
ENDBRANCH  14  15
ENDBRANCH  12  13
TORSDOF 6
ENDMDL
MODEL 4
REMARK VINA RESULT:      -7.9      6.942     11.369
REMARK  Name = C:\Users\Docking\Desktop\test protocol\1iep_ligandH.pdb
REMARK  8 active torsions:
REMARK  status: ('A' for Active; 'I' for Inactive)
REMARK    1  A    between atoms: _5  and  _11
REMARK    2  A    between atoms: _19  and  _21
REMARK    3  A    between atoms: _22  and  _66
REMARK    4  A    between atoms: _27  and  _30
REMARK    5  A    between atoms: _32  and  _33
REMARK    6  A    between atoms: _38  and  _43
REMARK    7  A    between atoms: _43  and  _46
REMARK    8  A    between atoms: _53  and  _55
REMARK                            x       y       z     vdW  Elec       q    Type
REMARK                         _______ _______ _______ _____ _____    ______ ____
ROOT
ATOM     10  C   UNL     1      19.861  25.111   4.179  0.00  0.00    +0.038 A 
ATOM     11  C   UNL     1      18.547  24.834   4.633  0.00  0.00    +0.047 A 
ATOM     12  C   UNL     1      18.035  23.473   4.672  0.00  0.00    +0.035 A 
ATOM     32  C   UNL     1      18.890  22.417   4.242  0.00  0.00    +0.024 A 
ATOM     33  C   UNL     1      20.229  22.681   3.777  0.00  0.00    +0.007 A 
ATOM     34  C   UNL     1      20.739  24.022   3.734  0.00  0.00    -0.029 A 
ATOM     35  C   UNL     1      22.180  24.246   3.220  0.00  0.00    +0.045 C 
ENDROOT
BRANCH  10   9
ATOM      4  C   UNL     1      20.837  29.221   1.900  0.00  0.00    +0.077 A 
ATOM      5  C   UNL     1      20.463  28.673   0.628  0.00  0.00    +0.048 A 
ATOM      6  C   UNL     1      20.032  27.327   0.602  0.00  0.00    +0.116 A 
ATOM      7  N   UNL     1      19.983  26.594   1.768  0.00  0.00    -0.223 NA
ATOM      8  C   UNL     1      20.351  27.153   2.978  0.00  0.00    +0.220 A 
ATOM      9  N   UNL     1      20.301  26.437   4.164  0.00  0.00    -0.283 N 
ATOM     36  H   UNL     1      20.589  26.883   5.035  0.00  0.00    +0.155 HD
ATOM     37  N   UNL     1      20.768  28.435   3.029  0.00  0.00    -0.214 NA
BRANCH   4   3
ATOM      1  C   UNL     1      21.593  32.726   3.463  0.00  0.00    +0.020 A 
ATOM      2  C   UNL     1      21.117  31.368   3.331  0.00  0.00    +0.013 A 
ATOM      3  C   UNL     1      21.309  30.629   2.090  0.00  0.00    +0.019 A 
ATOM     38  C   UNL     1      21.994  31.297   0.993  0.00  0.00    +0.120 A 
ATOM     39  N   UNL     1      22.440  32.605   1.149  0.00  0.00    -0.263 NA
ATOM     40  C   UNL     1      22.259  33.328   2.338  0.00  0.00    +0.111 A 
ENDBRANCH   4   3
ENDBRANCH  10   9
BRANCH  12  13
ATOM     13  N   UNL     1      16.706  23.132   5.115  0.00  0.00    -0.281 N 
ATOM     14  C   UNL     1      16.341  22.434   6.255  0.00  0.00    +0.248 C 
ATOM     30  O   UNL     1      17.119  21.809   6.961  0.00  0.00    -0.270 OA
ATOM     31  H   UNL     1      15.941  23.443   4.516  0.00  0.00    +0.155 HD
BRANCH  14  15
ATOM     15  C   UNL     1      14.903  22.417   6.662  0.00  0.00    +0.037 A 
ATOM     16  C   UNL     1      13.840  22.746   5.709  0.00  0.00    +0.013 A 
ATOM     17  C   UNL     1      12.462  22.738   6.132  0.00  0.00    +0.005 A 
ATOM     18  C   UNL     1      12.139  22.398   7.516  0.00  0.00    -0.033 A 
ATOM     28  C   UNL     1      13.214  22.070   8.439  0.00  0.00    +0.005 A 
ATOM     29  C   UNL     1      14.565  22.078   8.028  0.00  0.00    +0.013 A 
BRANCH  18  19
ATOM     19  C   UNL     1      10.699  22.385   8.060  0.00  0.00    +0.119 C 
BRANCH  19  20
ATOM     20  N   UNL     1       9.929  23.663   7.988  0.00  0.00    -0.302 NA
ATOM     21  C   UNL     1      10.778  24.869   8.399  0.00  0.00    +0.066 C 
ATOM     22  C   UNL     1       9.964  26.199   8.297  0.00  0.00    -0.064 C 
ATOM     23  N   UNL     1       8.712  26.097   9.169  0.00  0.00    +0.379 N 
ATOM     24  C   UNL     1       7.975  27.367   9.120  0.00  0.00    -0.096 C 
ATOM     25  H   UNL     1       9.045  25.939  10.221  0.00  0.00    -0.082 HD
ATOM     26  C   UNL     1       7.863  24.898   8.769  0.00  0.00    -0.064 C 
ATOM     27  C   UNL     1       8.690  23.585   8.846  0.00  0.00    +0.066 C 
ENDBRANCH  19  20
ENDBRANCH  18  19
ENDBRANCH  14  15
ENDBRANCH  12  13
TORSDOF 6
ENDMDL
MODEL 5
REMARK VINA RESULT:      -7.9      5.783      8.349
REMARK  Name = C:\Users\Docking\Desktop\test protocol\1iep_ligandH.pdb
REMARK  8 active torsions:
REMARK  status: ('A' for Active; 'I' for Inactive)
REMARK    1  A    between atoms: _5  and  _11
REMARK    2  A    between atoms: _19  and  _21
REMARK    3  A    between atoms: _22  and  _66
REMARK    4  A    between atoms: _27  and  _30
REMARK    5  A    between atoms: _32  and  _33
REMARK    6  A    between atoms: _38  and  _43
REMARK    7  A    between atoms: _43  and  _46
REMARK    8  A    between atoms: _53  and  _55
REMARK                            x       y       z     vdW  Elec       q    Type
REMARK                         _______ _______ _______ _____ _____    ______ ____
ROOT
ATOM     10  C   UNL     1      12.283  22.672   7.746  0.00  0.00    +0.038 A 
ATOM     11  C   UNL     1      13.469  23.112   7.103  0.00  0.00    +0.047 A 
ATOM     12  C   UNL     1      14.778  22.655   7.542  0.00  0.00    +0.035 A 
ATOM     32  C   UNL     1      14.843  21.746   8.639  0.00  0.00    +0.024 A 
ATOM     33  C   UNL     1      13.648  21.289   9.304  0.00  0.00    +0.007 A 
ATOM     34  C   UNL     1      12.354  21.739   8.877  0.00  0.00    -0.029 A 
ATOM     35  C   UNL     1      11.108  21.221   9.632  0.00  0.00    +0.045 C 
ENDROOT
BRANCH  10   9
ATOM      4  C   UNL     1       8.788  25.959   7.611  0.00  0.00    +0.077 A 
ATOM      5  C   UNL     1       9.458  26.795   8.565  0.00  0.00    +0.048 A 
ATOM      6  C   UNL     1      10.696  26.340   9.071  0.00  0.00    +0.116 A 
ATOM      7  N   UNL     1      11.216  25.137   8.648  0.00  0.00    -0.223 NA
ATOM      8  C   UNL     1      10.544  24.353   7.728  0.00  0.00    +0.220 A 
ATOM      9  N   UNL     1      11.053  23.143   7.282  0.00  0.00    -0.283 N 
ATOM     36  H   UNL     1      10.523  22.591   6.608  0.00  0.00    +0.155 HD
ATOM     37  N   UNL     1       9.360  24.765   7.230  0.00  0.00    -0.214 NA
BRANCH   4   3
ATOM      1  C   UNL     1       5.025  26.894   7.102  0.00  0.00    +0.020 A 
ATOM      2  C   UNL     1       6.269  26.564   7.758  0.00  0.00    +0.013 A 
ATOM      3  C   UNL     1       7.474  26.304   6.982  0.00  0.00    +0.019 A 
ATOM     38  C   UNL     1       7.387  26.387   5.532  0.00  0.00    +0.120 A 
ATOM     39  N   UNL     1       6.175  26.706   4.927  0.00  0.00    -0.263 NA
ATOM     40  C   UNL     1       5.008  26.957   5.664  0.00  0.00    +0.111 A 
ENDBRANCH   4   3
ENDBRANCH  10   9
BRANCH  12  13
ATOM     13  N   UNL     1      16.016  23.074   6.934  0.00  0.00    -0.281 N 
ATOM     14  C   UNL     1      16.764  22.405   5.979  0.00  0.00    +0.248 C 
ATOM     30  O   UNL     1      16.592  21.239   5.658  0.00  0.00    -0.270 OA
ATOM     31  H   UNL     1      16.385  23.972   7.245  0.00  0.00    +0.155 HD
BRANCH  14  15
ATOM     15  C   UNL     1      17.874  23.133   5.292  0.00  0.00    +0.037 A 
ATOM     16  C   UNL     1      17.619  24.345   4.510  0.00  0.00    +0.013 A 
ATOM     17  C   UNL     1      18.705  25.018   3.843  0.00  0.00    +0.005 A 
ATOM     18  C   UNL     1      20.059  24.481   3.958  0.00  0.00    -0.033 A 
ATOM     28  C   UNL     1      20.285  23.279   4.744  0.00  0.00    +0.005 A 
ATOM     29  C   UNL     1      19.222  22.616   5.398  0.00  0.00    +0.013 A 
BRANCH  18  19
ATOM     19  C   UNL     1      21.275  25.121   3.263  0.00  0.00    +0.119 C 
BRANCH  19  20
ATOM     20  N   UNL     1      21.765  24.475   2.009  0.00  0.00    -0.302 NA
ATOM     21  C   UNL     1      23.016  23.626   2.252  0.00  0.00    +0.066 C 
ATOM     22  C   UNL     1      23.502  22.939   0.934  0.00  0.00    -0.064 C 
ATOM     23  N   UNL     1      23.770  24.008  -0.126  0.00  0.00    +0.379 N 
ATOM     24  C   UNL     1      24.283  23.370  -1.348  0.00  0.00    -0.096 C 
ATOM     25  H   UNL     1      24.570  24.679   0.266  0.00  0.00    -0.082 HD
ATOM     26  C   UNL     1      22.533  24.859  -0.372  0.00  0.00    -0.064 C 
ATOM     27  C   UNL     1      22.041  25.513   0.949  0.00  0.00    +0.066 C 
ENDBRANCH  19  20
ENDBRANCH  18  19
ENDBRANCH  14  15
ENDBRANCH  12  13
TORSDOF 6
ENDMDL
