MODEL 1
REMARK VINA RESULT:      -8.2      0.000      0.000
REMARK  Name = C:\Users\Docking\Desktop\test protocol\1iep_ligandH.pdb
REMARK  8 active torsions:
REMARK  status: ('A' for Active; 'I' for Inactive)
REMARK    1  A    between atoms: _5  and  _11
REMARK    2  A    between atoms: _19  and  _21
REMARK    3  A    between atoms: _22  and  _66
REMARK    4  A    between atoms: _27  and  _30
REMARK    5  A    between atoms: _32  and  _33
REMARK    6  A    between atoms: _38  and  _43
REMARK    7  A    between atoms: _43  and  _46
REMARK    8  A    between atoms: _53  and  _55
REMARK                            x       y       z     vdW  Elec       q    Type
REMARK                         _______ _______ _______ _____ _____    ______ ____
ROOT
ATOM     10  C   UNL     1      32.983   2.021  16.820  0.00  0.00    +0.038 A 
ATOM     11  C   UNL     1      33.047   2.535  18.141  0.00  0.00    +0.047 A 
ATOM     12  C   UNL     1      32.927   3.962  18.399  0.00  0.00    +0.035 A 
ATOM     32  C   UNL     1      32.741   4.836  17.289  0.00  0.00    +0.024 A 
ATOM     33  C   UNL     1      32.675   4.330  15.940  0.00  0.00    +0.007 A 
ATOM     34  C   UNL     1      32.795   2.924  15.679  0.00  0.00    -0.029 A 
ATOM     35  C   UNL     1      32.723   2.439  14.212  0.00  0.00    +0.045 C 
ENDROOT
BRANCH  10   9
ATOM      4  C   UNL     1      35.573  -1.916  15.908  0.00  0.00    +0.077 A 
ATOM      5  C   UNL     1      36.784  -1.160  15.773  0.00  0.00    +0.048 A 
ATOM      6  C   UNL     1      36.696   0.241  15.939  0.00  0.00    +0.116 A 
ATOM      7  N   UNL     1      35.483   0.830  16.219  0.00  0.00    -0.223 NA
ATOM      8  C   UNL     1      34.333   0.071  16.341  0.00  0.00    +0.220 A 
ATOM      9  N   UNL     1      33.103   0.642  16.630  0.00  0.00    -0.283 N 
ATOM     36  H   UNL     1      32.277   0.049  16.705  0.00  0.00    +0.155 HD
ATOM     37  N   UNL     1      34.390  -1.268  16.186  0.00  0.00    -0.214 NA
BRANCH   4   3
ATOM      1  C   UNL     1      34.254  -5.554  15.338  0.00  0.00    +0.020 A 
ATOM      2  C   UNL     1      34.267  -4.115  15.467  0.00  0.00    +0.013 A 
ATOM      3  C   UNL     1      35.504  -3.405  15.765  0.00  0.00    +0.019 A 
ATOM     38  C   UNL     1      36.721  -4.186  15.927  0.00  0.00    +0.120 A 
ATOM     39  N   UNL     1      36.678  -5.571  15.799  0.00  0.00    -0.263 NA
ATOM     40  C   UNL     1      35.493  -6.266  15.514  0.00  0.00    +0.111 A 
ENDBRANCH   4   3
ENDBRANCH  10   9
BRANCH  12  13
ATOM     13  N   UNL     1      32.993   4.543  19.717  0.00  0.00    -0.281 N 
ATOM     14  C   UNL     1      32.033   4.498  20.716  0.00  0.00    +0.248 C 
ATOM     30  O   UNL     1      30.880   4.132  20.550  0.00  0.00    -0.270 OA
ATOM     31  H   UNL     1      33.850   5.048  19.941  0.00  0.00    +0.155 HD
BRANCH  14  15
ATOM     15  C   UNL     1      32.406   4.938  22.095  0.00  0.00    +0.037 A 
ATOM     16  C   UNL     1      31.397   5.070  23.149  0.00  0.00    +0.013 A 
ATOM     17  C   UNL     1      31.781   5.513  24.466  0.00  0.00    +0.005 A 
ATOM     18  C   UNL     1      33.182   5.826  24.736  0.00  0.00    -0.033 A 
ATOM     28  C   UNL     1      34.163   5.683  23.673  0.00  0.00    +0.005 A 
ATOM     29  C   UNL     1      33.790   5.250  22.381  0.00  0.00    +0.013 A 
BRANCH  18  19
ATOM     19  C   UNL     1      33.678   6.326  26.106  0.00  0.00    +0.119 C 
BRANCH  19  20
ATOM     20  N   UNL     1      34.829   5.601  26.722  0.00  0.00    -0.302 NA
ATOM     21  C   UNL     1      34.492   5.069  28.118  0.00  0.00    +0.066 C 
ATOM     22  C   UNL     1      35.700   4.295  28.738  0.00  0.00    -0.064 C 
ATOM     23  N   UNL     1      36.921   5.215  28.790  0.00  0.00    +0.379 N 
ATOM     24  C   UNL     1      38.042   4.508  29.426  0.00  0.00    -0.096 C 
ATOM     25  H   UNL     1      36.660   6.086  29.435  0.00  0.00    -0.082 HD
ATOM     26  C   UNL     1      37.261   5.751  27.406  0.00  0.00    -0.064 C 
ATOM     27  C   UNL     1      36.044   6.493  26.786  0.00  0.00    +0.066 C 
ENDBRANCH  19  20
ENDBRANCH  18  19
ENDBRANCH  14  15
ENDBRANCH  12  13
TORSDOF 6
ENDMDL
MODEL 2
REMARK VINA RESULT:      -7.7      1.658      2.670
REMARK  Name = C:\Users\Docking\Desktop\test protocol\1iep_ligandH.pdb
REMARK  8 active torsions:
REMARK  status: ('A' for Active; 'I' for Inactive)
REMARK    1  A    between atoms: _5  and  _11
REMARK    2  A    between atoms: _19  and  _21
REMARK    3  A    between atoms: _22  and  _66
REMARK    4  A    between atoms: _27  and  _30
REMARK    5  A    between atoms: _32  and  _33
REMARK    6  A    between atoms: _38  and  _43
REMARK    7  A    between atoms: _43  and  _46
REMARK    8  A    between atoms: _53  and  _55
REMARK                            x       y       z     vdW  Elec       q    Type
REMARK                         _______ _______ _______ _____ _____    ______ ____
ROOT
ATOM     10  C   UNL     1      32.950   2.001  16.808  0.00  0.00    +0.038 A 
ATOM     11  C   UNL     1      33.031   2.536  18.119  0.00  0.00    +0.047 A 
ATOM     12  C   UNL     1      32.906   3.965  18.359  0.00  0.00    +0.035 A 
ATOM     32  C   UNL     1      32.696   4.822  17.239  0.00  0.00    +0.024 A 
ATOM     33  C   UNL     1      32.612   4.296  15.899  0.00  0.00    +0.007 A 
ATOM     34  C   UNL     1      32.737   2.887  15.657  0.00  0.00    -0.029 A 
ATOM     35  C   UNL     1      32.645   2.379  14.199  0.00  0.00    +0.045 C 
ENDROOT
BRANCH  10   9
ATOM      4  C   UNL     1      35.554  -1.932  15.923  0.00  0.00    +0.077 A 
ATOM      5  C   UNL     1      36.759  -1.170  15.763  0.00  0.00    +0.048 A 
ATOM      6  C   UNL     1      36.665   0.232  15.910  0.00  0.00    +0.116 A 
ATOM      7  N   UNL     1      35.450   0.818  16.195  0.00  0.00    -0.223 NA
ATOM      8  C   UNL     1      34.307   0.054  16.341  0.00  0.00    +0.220 A 
ATOM      9  N   UNL     1      33.077   0.621  16.636  0.00  0.00    -0.283 N 
ATOM     36  H   UNL     1      32.255   0.024  16.729  0.00  0.00    +0.155 HD
ATOM     37  N   UNL     1      34.371  -1.287  16.205  0.00  0.00    -0.214 NA
BRANCH   4   3
ATOM      1  C   UNL     1      36.523  -5.721  15.939  0.00  0.00    +0.020 A 
ATOM      2  C   UNL     1      36.635  -4.287  16.071  0.00  0.00    +0.013 A 
ATOM      3  C   UNL     1      35.493  -3.423  15.801  0.00  0.00    +0.019 A 
ATOM     38  C   UNL     1      34.242  -4.047  15.398  0.00  0.00    +0.120 A 
ATOM     39  N   UNL     1      34.164  -5.431  15.278  0.00  0.00    -0.263 NA
ATOM     40  C   UNL     1      35.257  -6.272  15.533  0.00  0.00    +0.111 A 
ENDBRANCH   4   3
ENDBRANCH  10   9
BRANCH  12  13
ATOM     13  N   UNL     1      32.988   4.566  19.667  0.00  0.00    -0.281 N 
ATOM     14  C   UNL     1      32.092   4.446  20.717  0.00  0.00    +0.248 C 
ATOM     30  O   UNL     1      30.970   3.974  20.617  0.00  0.00    -0.270 OA
ATOM     31  H   UNL     1      33.806   5.150  19.840  0.00  0.00    +0.155 HD
BRANCH  14  15
ATOM     15  C   UNL     1      32.496   4.936  22.070  0.00  0.00    +0.037 A 
ATOM     16  C   UNL     1      33.894   5.248  22.379  0.00  0.00    +0.013 A 
ATOM     17  C   UNL     1      34.259   5.702  23.698  0.00  0.00    +0.005 A 
ATOM     18  C   UNL     1      33.222   5.849  24.717  0.00  0.00    -0.033 A 
ATOM     28  C   UNL     1      31.843   5.537  24.381  0.00  0.00    +0.005 A 
ATOM     29  C   UNL     1      31.482   5.091  23.091  0.00  0.00    +0.013 A 
BRANCH  18  19
ATOM     19  C   UNL     1      33.524   6.307  26.156  0.00  0.00    +0.119 C 
BRANCH  19  20
ATOM     20  N   UNL     1      33.831   7.754  26.363  0.00  0.00    -0.302 NA
ATOM     21  C   UNL     1      33.128   8.643  25.334  0.00  0.00    +0.066 C 
ATOM     22  C   UNL     1      33.443  10.155  25.579  0.00  0.00    -0.064 C 
ATOM     23  N   UNL     1      34.956  10.371  25.536  0.00  0.00    +0.379 N 
ATOM     24  C   UNL     1      35.253  11.801  25.708  0.00  0.00    -0.096 C 
ATOM     25  H   UNL     1      35.312  10.071  24.523  0.00  0.00    -0.082 HD
ATOM     26  C   UNL     1      35.664   9.488  26.554  0.00  0.00    -0.064 C 
ATOM     27  C   UNL     1      35.321   7.990  26.321  0.00  0.00    +0.066 C 
ENDBRANCH  19  20
ENDBRANCH  18  19
ENDBRANCH  14  15
ENDBRANCH  12  13
TORSDOF 6
ENDMDL
MODEL 3
REMARK VINA RESULT:      -7.5      2.597      4.560
REMARK  Name = C:\Users\Docking\Desktop\test protocol\1iep_ligandH.pdb
REMARK  8 active torsions:
REMARK  status: ('A' for Active; 'I' for Inactive)
REMARK    1  A    between atoms: _5  and  _11
REMARK    2  A    between atoms: _19  and  _21
REMARK    3  A    between atoms: _22  and  _66
REMARK    4  A    between atoms: _27  and  _30
REMARK    5  A    between atoms: _32  and  _33
REMARK    6  A    between atoms: _38  and  _43
REMARK    7  A    between atoms: _43  and  _46
REMARK    8  A    between atoms: _53  and  _55
REMARK                            x       y       z     vdW  Elec       q    Type
REMARK                         _______ _______ _______ _____ _____    ______ ____
ROOT
ATOM     10  C   UNL     1      32.881   4.865  19.758  0.00  0.00    +0.038 A 
ATOM     11  C   UNL     1      33.437   4.720  21.055  0.00  0.00    +0.047 A 
ATOM     12  C   UNL     1      33.776   5.881  21.863  0.00  0.00    +0.035 A 
ATOM     32  C   UNL     1      33.533   7.176  21.320  0.00  0.00    +0.024 A 
ATOM     33  C   UNL     1      32.970   7.342  20.003  0.00  0.00    +0.007 A 
ATOM     34  C   UNL     1      32.636   6.201  19.200  0.00  0.00    -0.029 A 
ATOM     35  C   UNL     1      32.040   6.439  17.793  0.00  0.00    +0.045 C 
ENDROOT
BRANCH  10   9
ATOM      4  C   UNL     1      33.954   1.514  16.494  0.00  0.00    +0.077 A 
ATOM      5  C   UNL     1      35.222   2.118  16.204  0.00  0.00    +0.048 A 
ATOM      6  C   UNL     1      35.557   3.294  16.911  0.00  0.00    +0.116 A 
ATOM      7  N   UNL     1      34.682   3.818  17.838  0.00  0.00    -0.223 NA
ATOM      8  C   UNL     1      33.466   3.211  18.093  0.00  0.00    +0.220 A 
ATOM      9  N   UNL     1      32.574   3.716  19.026  0.00  0.00    -0.283 N 
ATOM     36  H   UNL     1      31.684   3.243  19.180  0.00  0.00    +0.155 HD
ATOM     37  N   UNL     1      33.122   2.088  17.429  0.00  0.00    -0.214 NA
BRANCH   4   3
ATOM      1  C   UNL     1      31.723  -1.055  14.563  0.00  0.00    +0.020 A 
ATOM      2  C   UNL     1      32.154   0.174  15.189  0.00  0.00    +0.013 A 
ATOM      3  C   UNL     1      33.458   0.266  15.832  0.00  0.00    +0.019 A 
ATOM     38  C   UNL     1      34.310  -0.914  15.824  0.00  0.00    +0.120 A 
ATOM     39  N   UNL     1      33.869  -2.084  15.215  0.00  0.00    -0.263 NA
ATOM     40  C   UNL     1      32.614  -2.184  14.594  0.00  0.00    +0.111 A 
ENDBRANCH   4   3
ENDBRANCH  10   9
BRANCH  12  13
ATOM     13  N   UNL     1      34.350   5.795  23.183  0.00  0.00    -0.281 N 
ATOM     14  C   UNL     1      33.714   5.967  24.401  0.00  0.00    +0.248 C 
ATOM     30  O   UNL     1      32.593   6.434  24.535  0.00  0.00    -0.270 OA
ATOM     31  H   UNL     1      35.347   5.581  23.224  0.00  0.00    +0.155 HD
BRANCH  14  15
ATOM     15  C   UNL     1      34.432   5.577  25.652  0.00  0.00    +0.037 A 
ATOM     16  C   UNL     1      35.892   5.452  25.683  0.00  0.00    +0.013 A 
ATOM     17  C   UNL     1      36.559   5.058  26.899  0.00  0.00    +0.005 A 
ATOM     18  C   UNL     1      35.765   4.787  28.095  0.00  0.00    -0.033 A 
ATOM     28  C   UNL     1      34.319   4.923  28.038  0.00  0.00    +0.005 A 
ATOM     29  C   UNL     1      33.662   5.308  26.848  0.00  0.00    +0.013 A 
BRANCH  18  19
ATOM     19  C   UNL     1      36.391   4.340  29.430  0.00  0.00    +0.119 C 
BRANCH  19  20
ATOM     20  N   UNL     1      36.148   2.931  29.861  0.00  0.00    -0.302 NA
ATOM     21  C   UNL     1      35.359   2.859  31.172  0.00  0.00    +0.066 C 
ATOM     22  C   UNL     1      35.095   1.378  31.596  0.00  0.00    -0.064 C 
ATOM     23  N   UNL     1      36.429   0.642  31.726  0.00  0.00    +0.379 N 
ATOM     24  C   UNL     1      36.188  -0.735  32.182  0.00  0.00    -0.096 C 
ATOM     25  H   UNL     1      37.025   1.159  32.514  0.00  0.00    -0.082 HD
ATOM     26  C   UNL     1      37.221   0.711  30.428  0.00  0.00    -0.064 C 
ATOM     27  C   UNL     1      37.453   2.186  30.000  0.00  0.00    +0.066 C 
ENDBRANCH  19  20
ENDBRANCH  18  19
ENDBRANCH  14  15
ENDBRANCH  12  13
TORSDOF 6
ENDMDL
MODEL 4
REMARK VINA RESULT:      -7.4     32.323     35.718
REMARK  Name = C:\Users\Docking\Desktop\test protocol\1iep_ligandH.pdb
REMARK  8 active torsions:
REMARK  status: ('A' for Active; 'I' for Inactive)
REMARK    1  A    between atoms: _5  and  _11
REMARK    2  A    between atoms: _19  and  _21
REMARK    3  A    between atoms: _22  and  _66
REMARK    4  A    between atoms: _27  and  _30
REMARK    5  A    between atoms: _32  and  _33
REMARK    6  A    between atoms: _38  and  _43
REMARK    7  A    between atoms: _43  and  _46
REMARK    8  A    between atoms: _53  and  _55
REMARK                            x       y       z     vdW  Elec       q    Type
REMARK                         _______ _______ _______ _____ _____    ______ ____
ROOT
ATOM     10  C   UNL     1       9.915  -0.287  -4.804  0.00  0.00    +0.038 A 
ATOM     11  C   UNL     1      10.495  -1.467  -4.270  0.00  0.00    +0.047 A 
ATOM     12  C   UNL     1       9.795  -2.267  -3.277  0.00  0.00    +0.035 A 
ATOM     32  C   UNL     1       8.504  -1.837  -2.852  0.00  0.00    +0.024 A 
ATOM     33  C   UNL     1       7.900  -0.641  -3.383  0.00  0.00    +0.007 A 
ATOM     34  C   UNL     1       8.587   0.154  -4.361  0.00  0.00    -0.029 A 
ATOM     35  C   UNL     1       7.894   1.431  -4.891  0.00  0.00    +0.045 C 
ENDROOT
BRANCH  10   9
ATOM      4  C   UNL     1      11.390   0.502  -9.303  0.00  0.00    +0.077 A 
ATOM      5  C   UNL     1      10.696  -0.653  -9.796  0.00  0.00    +0.048 A 
ATOM      6  C   UNL     1       9.977  -1.427  -8.858  0.00  0.00    +0.116 A 
ATOM      7  N   UNL     1       9.960  -1.064  -7.528  0.00  0.00    -0.223 NA
ATOM      8  C   UNL     1      10.642   0.054  -7.086  0.00  0.00    +0.220 A 
ATOM      9  N   UNL     1      10.632   0.443  -5.755  0.00  0.00    -0.283 N 
ATOM     36  H   UNL     1      11.153   1.270  -5.467  0.00  0.00    +0.155 HD
ATOM     37  N   UNL     1      11.337   0.810  -7.962  0.00  0.00    -0.214 NA
BRANCH   4   3
ATOM      1  C   UNL     1      14.193   1.963 -11.607  0.00  0.00    +0.020 A 
ATOM      2  C   UNL     1      13.460   1.036 -10.776  0.00  0.00    +0.013 A 
ATOM      3  C   UNL     1      12.191   1.422 -10.171  0.00  0.00    +0.019 A 
ATOM     38  C   UNL     1      11.687   2.763 -10.430  0.00  0.00    +0.120 A 
ATOM     39  N   UNL     1      12.417   3.634 -11.233  0.00  0.00    -0.263 NA
ATOM     40  C   UNL     1      13.640   3.274 -11.819  0.00  0.00    +0.111 A 
ENDBRANCH   4   3
ENDBRANCH  10   9
BRANCH  12  13
ATOM     13  N   UNL     1      10.337  -3.469  -2.694  0.00  0.00    -0.281 N 
ATOM     14  C   UNL     1      10.187  -4.773  -3.137  0.00  0.00    +0.248 C 
ATOM     30  O   UNL     1       9.382  -5.126  -3.985  0.00  0.00    -0.270 OA
ATOM     31  H   UNL     1      10.900  -3.343  -1.853  0.00  0.00    +0.155 HD
BRANCH  14  15
ATOM     15  C   UNL     1      11.045  -5.841  -2.540  0.00  0.00    +0.037 A 
ATOM     16  C   UNL     1      11.839  -5.593  -1.334  0.00  0.00    +0.013 A 
ATOM     17  C   UNL     1      12.671  -6.636  -0.788  0.00  0.00    +0.005 A 
ATOM     18  C   UNL     1      12.713  -7.938  -1.450  0.00  0.00    -0.033 A 
ATOM     28  C   UNL     1      11.911  -8.159  -2.642  0.00  0.00    +0.005 A 
ATOM     29  C   UNL     1      11.095  -7.138  -3.180  0.00  0.00    +0.013 A 
BRANCH  18  19
ATOM     19  C   UNL     1      13.589  -9.102  -0.950  0.00  0.00    +0.119 C 
BRANCH  19  20
ATOM     20  N   UNL     1      13.228 -10.476  -1.411  0.00  0.00    -0.302 NA
ATOM     21  C   UNL     1      12.612 -11.315  -0.287  0.00  0.00    +0.066 C 
ATOM     22  C   UNL     1      12.220 -12.742  -0.792  0.00  0.00    -0.064 C 
ATOM     23  N   UNL     1      13.457 -13.433  -1.369  0.00  0.00    +0.379 N 
ATOM     24  C   UNL     1      13.104 -14.797  -1.792  0.00  0.00    -0.096 C 
ATOM     25  H   UNL     1      14.210 -13.517  -0.552  0.00  0.00    -0.082 HD
ATOM     26  C   UNL     1      14.077 -12.604  -2.485  0.00  0.00    -0.064 C 
ATOM     27  C   UNL     1      14.436 -11.179  -1.980  0.00  0.00    +0.066 C 
ENDBRANCH  19  20
ENDBRANCH  18  19
ENDBRANCH  14  15
ENDBRANCH  12  13
TORSDOF 6
ENDMDL
MODEL 5
REMARK VINA RESULT:      -7.4      2.824     12.301
REMARK  Name = C:\Users\Docking\Desktop\test protocol\1iep_ligandH.pdb
REMARK  8 active torsions:
REMARK  status: ('A' for Active; 'I' for Inactive)
REMARK    1  A    between atoms: _5  and  _11
REMARK    2  A    between atoms: _19  and  _21
REMARK    3  A    between atoms: _22  and  _66
REMARK    4  A    between atoms: _27  and  _30
REMARK    5  A    between atoms: _32  and  _33
REMARK    6  A    between atoms: _38  and  _43
REMARK    7  A    between atoms: _43  and  _46
REMARK    8  A    between atoms: _53  and  _55
REMARK                            x       y       z     vdW  Elec       q    Type
REMARK                         _______ _______ _______ _____ _____    ______ ____
ROOT
ATOM     10  C   UNL     1      32.048   6.483  22.274  0.00  0.00    +0.038 A 
ATOM     11  C   UNL     1      32.166   5.545  21.218  0.00  0.00    +0.047 A 
ATOM     12  C   UNL     1      31.936   5.934  19.835  0.00  0.00    +0.035 A 
ATOM     32  C   UNL     1      31.590   7.290  19.565  0.00  0.00    +0.024 A 
ATOM     33  C   UNL     1      31.464   8.257  20.626  0.00  0.00    +0.007 A 
ATOM     34  C   UNL     1      31.687   7.878  21.992  0.00  0.00    -0.029 A 
ATOM     35  C   UNL     1      31.532   8.956  23.091  0.00  0.00    +0.045 C 
ENDROOT
BRANCH  10   9
ATOM      4  C   UNL     1      34.948   5.679  26.013  0.00  0.00    +0.077 A 
ATOM      5  C   UNL     1      36.103   6.125  25.289  0.00  0.00    +0.048 A 
ATOM      6  C   UNL     1      35.909   6.547  23.955  0.00  0.00    +0.116 A 
ATOM      7  N   UNL     1      34.649   6.520  23.396  0.00  0.00    -0.223 NA
ATOM      8  C   UNL     1      33.557   6.082  24.122  0.00  0.00    +0.220 A 
ATOM      9  N   UNL     1      32.280   6.055  23.583  0.00  0.00    -0.283 N 
ATOM     36  H   UNL     1      31.501   5.718  24.149  0.00  0.00    +0.155 HD
ATOM     37  N   UNL     1      33.716   5.673  25.398  0.00  0.00    -0.214 NA
BRANCH   4   3
ATOM      1  C   UNL     1      36.129   4.939  29.668  0.00  0.00    +0.020 A 
ATOM      2  C   UNL     1      36.139   5.416  28.304  0.00  0.00    +0.013 A 
ATOM      3  C   UNL     1      34.990   5.205  27.433  0.00  0.00    +0.019 A 
ATOM     38  C   UNL     1      33.837   4.504  27.977  0.00  0.00    +0.120 A 
ATOM     39  N   UNL     1      33.857   4.054  29.294  0.00  0.00    -0.263 NA
ATOM     40  C   UNL     1      34.958   4.250  30.141  0.00  0.00    +0.111 A 
ENDBRANCH   4   3
ENDBRANCH  10   9
BRANCH  12  13
ATOM     13  N   UNL     1      32.034   5.023  18.722  0.00  0.00    -0.281 N 
ATOM     14  C   UNL     1      33.176   4.449  18.189  0.00  0.00    +0.248 C 
ATOM     30  O   UNL     1      34.316   4.802  18.456  0.00  0.00    -0.270 OA
ATOM     31  H   UNL     1      31.154   4.771  18.273  0.00  0.00    +0.155 HD
BRANCH  14  15
ATOM     15  C   UNL     1      33.032   3.332  17.206  0.00  0.00    +0.037 A 
ATOM     16  C   UNL     1      32.468   3.561  15.874  0.00  0.00    +0.013 A 
ATOM     17  C   UNL     1      32.324   2.462  14.951  0.00  0.00    +0.005 A 
ATOM     18  C   UNL     1      32.748   1.125  15.359  0.00  0.00    -0.033 A 
ATOM     28  C   UNL     1      33.309   0.928  16.685  0.00  0.00    +0.005 A 
ATOM     29  C   UNL     1      33.451   2.002  17.592  0.00  0.00    +0.013 A 
BRANCH  18  19
ATOM     19  C   UNL     1      32.612  -0.109  14.448  0.00  0.00    +0.119 C 
BRANCH  19  20
ATOM     20  N   UNL     1      33.432  -0.131  13.199  0.00  0.00    -0.302 NA
ATOM     21  C   UNL     1      32.633   0.337  11.980  0.00  0.00    +0.066 C 
ATOM     22  C   UNL     1      33.513   0.329  10.687  0.00  0.00    -0.064 C 
ATOM     23  N   UNL     1      34.071  -1.077  10.461  0.00  0.00    +0.379 N 
ATOM     24  C   UNL     1      34.851  -1.101   9.215  0.00  0.00    -0.096 C 
ATOM     25  H   UNL     1      33.206  -1.767  10.333  0.00  0.00    -0.082 HD
ATOM     26  C   UNL     1      34.864  -1.551  11.671  0.00  0.00    -0.064 C 
ATOM     27  C   UNL     1      33.990  -1.512  12.955  0.00  0.00    +0.066 C 
ENDBRANCH  19  20
ENDBRANCH  18  19
ENDBRANCH  14  15
ENDBRANCH  12  13
TORSDOF 6
ENDMDL
