MODEL 1
REMARK VINA RESULT:      -7.4      0.000      0.000
REMARK  Name = C:\Users\Docking\Desktop\test protocol\1iep_ligandH.pdb
REMARK  8 active torsions:
REMARK  status: ('A' for Active; 'I' for Inactive)
REMARK    1  A    between atoms: _5  and  _11
REMARK    2  A    between atoms: _19  and  _21
REMARK    3  A    between atoms: _22  and  _66
REMARK    4  A    between atoms: _27  and  _30
REMARK    5  A    between atoms: _32  and  _33
REMARK    6  A    between atoms: _38  and  _43
REMARK    7  A    between atoms: _43  and  _46
REMARK    8  A    between atoms: _53  and  _55
REMARK                            x       y       z     vdW  Elec       q    Type
REMARK                         _______ _______ _______ _____ _____    ______ ____
ROOT
ATOM     10  C   UNL     1     -36.739 -36.058 -27.334  0.00  0.00    +0.038 A 
ATOM     11  C   UNL     1     -37.870 -36.123 -28.187  0.00  0.00    +0.047 A 
ATOM     12  C   UNL     1     -39.208 -36.314 -27.650  0.00  0.00    +0.035 A 
ATOM     32  C   UNL     1     -39.359 -36.434 -26.238  0.00  0.00    +0.024 A 
ATOM     33  C   UNL     1     -38.220 -36.372 -25.355  0.00  0.00    +0.007 A 
ATOM     34  C   UNL     1     -36.897 -36.185 -25.880  0.00  0.00    -0.029 A 
ATOM     35  C   UNL     1     -35.712 -36.133 -24.887  0.00  0.00    +0.045 C 
ENDROOT
BRANCH  10   9
ATOM      4  C   UNL     1     -32.557 -37.731 -28.993  0.00  0.00    +0.077 A 
ATOM      5  C   UNL     1     -32.905 -39.086 -28.673  0.00  0.00    +0.048 A 
ATOM      6  C   UNL     1     -34.166 -39.309 -28.077  0.00  0.00    +0.116 A 
ATOM      7  N   UNL     1     -35.009 -38.248 -27.823  0.00  0.00    -0.223 NA
ATOM      8  C   UNL     1     -34.642 -36.954 -28.142  0.00  0.00    +0.220 A 
ATOM      9  N   UNL     1     -35.477 -35.873 -27.903  0.00  0.00    -0.283 N 
ATOM     36  H   UNL     1     -35.167 -34.933 -28.146  0.00  0.00    +0.155 HD
ATOM     37  N   UNL     1     -33.443 -36.714 -28.711  0.00  0.00    -0.214 NA
BRANCH   4   3
ATOM      1  C   UNL     1     -29.572 -37.421 -31.501  0.00  0.00    +0.020 A 
ATOM      2  C   UNL     1     -30.832 -37.835 -30.930  0.00  0.00    +0.013 A 
ATOM      3  C   UNL     1     -31.262 -37.335 -29.630  0.00  0.00    +0.019 A 
ATOM     38  C   UNL     1     -30.386 -36.409 -28.928  0.00  0.00    +0.120 A 
ATOM     39  N   UNL     1     -29.176 -36.028 -29.502  0.00  0.00    -0.263 NA
ATOM     40  C   UNL     1     -28.752 -36.505 -30.752  0.00  0.00    +0.111 A 
ENDBRANCH   4   3
ENDBRANCH  10   9
BRANCH  12  13
ATOM     13  N   UNL     1     -40.393 -36.396 -28.468  0.00  0.00    -0.281 N 
ATOM     14  C   UNL     1     -41.007 -35.379 -29.181  0.00  0.00    +0.248 C 
ATOM     30  O   UNL     1     -40.751 -34.191 -29.050  0.00  0.00    -0.270 OA
ATOM     31  H   UNL     1     -40.832 -37.314 -28.529  0.00  0.00    +0.155 HD
BRANCH  14  15
ATOM     15  C   UNL     1     -42.070 -35.731 -30.171  0.00  0.00    +0.037 A 
ATOM     16  C   UNL     1     -42.905 -34.698 -30.789  0.00  0.00    +0.013 A 
ATOM     17  C   UNL     1     -43.934 -35.067 -31.729  0.00  0.00    +0.005 A 
ATOM     18  C   UNL     1     -44.133 -36.477 -32.056  0.00  0.00    -0.033 A 
ATOM     28  C   UNL     1     -43.287 -37.480 -31.432  0.00  0.00    +0.005 A 
ATOM     29  C   UNL     1     -42.278 -37.123 -30.510  0.00  0.00    +0.013 A 
BRANCH  18  19
ATOM     19  C   UNL     1     -45.222 -36.963 -33.032  0.00  0.00    +0.119 C 
BRANCH  19  20
ATOM     20  N   UNL     1     -44.784 -37.351 -34.406  0.00  0.00    -0.302 NA
ATOM     21  C   UNL     1     -45.665 -36.720 -35.488  0.00  0.00    +0.066 C 
ATOM     22  C   UNL     1     -45.180 -37.118 -36.920  0.00  0.00    -0.064 C 
ATOM     23  N   UNL     1     -45.173 -38.642 -37.048  0.00  0.00    +0.379 N 
ATOM     24  C   UNL     1     -44.773 -39.018 -38.412  0.00  0.00    -0.096 C 
ATOM     25  H   UNL     1     -46.217 -39.000 -36.891  0.00  0.00    -0.082 HD
ATOM     26  C   UNL     1     -44.301 -39.277 -35.974  0.00  0.00    -0.064 C 
ATOM     27  C   UNL     1     -44.774 -38.852 -34.556  0.00  0.00    +0.066 C 
ENDBRANCH  19  20
ENDBRANCH  18  19
ENDBRANCH  14  15
ENDBRANCH  12  13
TORSDOF 6
ENDMDL
MODEL 2
REMARK VINA RESULT:      -7.2     19.711     24.655
REMARK  Name = C:\Users\Docking\Desktop\test protocol\1iep_ligandH.pdb
REMARK  8 active torsions:
REMARK  status: ('A' for Active; 'I' for Inactive)
REMARK    1  A    between atoms: _5  and  _11
REMARK    2  A    between atoms: _19  and  _21
REMARK    3  A    between atoms: _22  and  _66
REMARK    4  A    between atoms: _27  and  _30
REMARK    5  A    between atoms: _32  and  _33
REMARK    6  A    between atoms: _38  and  _43
REMARK    7  A    between atoms: _43  and  _46
REMARK    8  A    between atoms: _53  and  _55
REMARK                            x       y       z     vdW  Elec       q    Type
REMARK                         _______ _______ _______ _____ _____    ______ ____
ROOT
ATOM     10  C   UNL     1     -22.181 -16.706 -30.980  0.00  0.00    +0.038 A 
ATOM     11  C   UNL     1     -22.865 -17.857 -30.511  0.00  0.00    +0.047 A 
ATOM     12  C   UNL     1     -22.201 -18.833 -29.661  0.00  0.00    +0.035 A 
ATOM     32  C   UNL     1     -20.840 -18.604 -29.305  0.00  0.00    +0.024 A 
ATOM     33  C   UNL     1     -20.129 -17.440 -29.773  0.00  0.00    +0.007 A 
ATOM     34  C   UNL     1     -20.778 -16.475 -30.614  0.00  0.00    -0.029 A 
ATOM     35  C   UNL     1     -19.965 -15.250 -31.093  0.00  0.00    +0.045 C 
ENDROOT
BRANCH  10   9
ATOM      4  C   UNL     1     -24.782 -12.725 -31.627  0.00  0.00    +0.077 A 
ATOM      5  C   UNL     1     -24.798 -12.436 -30.221  0.00  0.00    +0.048 A 
ATOM      6  C   UNL     1     -24.132 -13.341 -29.365  0.00  0.00    +0.116 A 
ATOM      7  N   UNL     1     -23.499 -14.449 -29.887  0.00  0.00    -0.223 NA
ATOM      8  C   UNL     1     -23.504 -14.698 -31.247  0.00  0.00    +0.220 A 
ATOM      9  N   UNL     1     -22.867 -15.802 -31.794  0.00  0.00    -0.283 N 
ATOM     36  H   UNL     1     -22.900 -15.955 -32.801  0.00  0.00    +0.155 HD
ATOM     37  N   UNL     1     -24.134 -13.850 -32.085  0.00  0.00    -0.214 NA
BRANCH   4   3
ATOM      1  C   UNL     1     -26.131 -11.343 -35.029  0.00  0.00    +0.020 A 
ATOM      2  C   UNL     1     -25.483 -12.212 -34.073  0.00  0.00    +0.013 A 
ATOM      3  C   UNL     1     -25.439 -11.861 -32.659  0.00  0.00    +0.019 A 
ATOM     38  C   UNL     1     -26.066 -10.616 -32.241  0.00  0.00    +0.120 A 
ATOM     39  N   UNL     1     -26.681  -9.799 -33.184  0.00  0.00    -0.263 NA
ATOM     40  C   UNL     1     -26.728 -10.125 -34.548  0.00  0.00    +0.111 A 
ENDBRANCH   4   3
ENDBRANCH  10   9
BRANCH  12  13
ATOM     13  N   UNL     1     -22.843 -20.023 -29.161  0.00  0.00    -0.281 N 
ATOM     14  C   UNL     1     -22.801 -20.538 -27.875  0.00  0.00    +0.248 C 
ATOM     30  O   UNL     1     -22.027 -20.164 -27.006  0.00  0.00    -0.270 OA
ATOM     31  H   UNL     1     -23.394 -20.552 -29.837  0.00  0.00    +0.155 HD
BRANCH  14  15
ATOM     15  C   UNL     1     -23.746 -21.635 -27.505  0.00  0.00    +0.037 A 
ATOM     16  C   UNL     1     -23.837 -22.860 -28.303  0.00  0.00    +0.013 A 
ATOM     17  C   UNL     1     -24.770 -23.896 -27.934  0.00  0.00    +0.005 A 
ATOM     18  C   UNL     1     -25.617 -23.710 -26.759  0.00  0.00    -0.033 A 
ATOM     28  C   UNL     1     -25.502 -22.487 -25.982  0.00  0.00    +0.005 A 
ATOM     29  C   UNL     1     -24.590 -21.470 -26.341  0.00  0.00    +0.013 A 
BRANCH  18  19
ATOM     19  C   UNL     1     -26.655 -24.753 -26.303  0.00  0.00    +0.119 C 
BRANCH  19  20
ATOM     20  N   UNL     1     -28.095 -24.426 -26.523  0.00  0.00    -0.302 NA
ATOM     21  C   UNL     1     -28.950 -25.684 -26.701  0.00  0.00    +0.066 C 
ATOM     22  C   UNL     1     -30.457 -25.324 -26.907  0.00  0.00    -0.064 C 
ATOM     23  N   UNL     1     -30.597 -24.398 -28.117  0.00  0.00    +0.379 N 
ATOM     24  C   UNL     1     -32.019 -24.104 -28.348  0.00  0.00    -0.096 C 
ATOM     25  H   UNL     1     -30.215 -24.947 -29.009  0.00  0.00    -0.082 HD
ATOM     26  C   UNL     1     -29.748 -23.146 -27.949  0.00  0.00    -0.064 C 
ATOM     27  C   UNL     1     -28.257 -23.516 -27.715  0.00  0.00    +0.066 C 
ENDBRANCH  19  20
ENDBRANCH  18  19
ENDBRANCH  14  15
ENDBRANCH  12  13
TORSDOF 6
ENDMDL
MODEL 3
REMARK VINA RESULT:      -7.1      2.450      3.039
REMARK  Name = C:\Users\Docking\Desktop\test protocol\1iep_ligandH.pdb
REMARK  8 active torsions:
REMARK  status: ('A' for Active; 'I' for Inactive)
REMARK    1  A    between atoms: _5  and  _11
REMARK    2  A    between atoms: _19  and  _21
REMARK    3  A    between atoms: _22  and  _66
REMARK    4  A    between atoms: _27  and  _30
REMARK    5  A    between atoms: _32  and  _33
REMARK    6  A    between atoms: _38  and  _43
REMARK    7  A    between atoms: _43  and  _46
REMARK    8  A    between atoms: _53  and  _55
REMARK                            x       y       z     vdW  Elec       q    Type
REMARK                         _______ _______ _______ _____ _____    ______ ____
ROOT
ATOM     10  C   UNL     1     -36.200 -36.132 -27.353  0.00  0.00    +0.038 A 
ATOM     11  C   UNL     1     -37.148 -35.641 -28.287  0.00  0.00    +0.047 A 
ATOM     12  C   UNL     1     -38.576 -35.829 -28.078  0.00  0.00    +0.035 A 
ATOM     32  C   UNL     1     -39.002 -36.519 -26.906  0.00  0.00    +0.024 A 
ATOM     33  C   UNL     1     -38.052 -37.025 -25.948  0.00  0.00    +0.007 A 
ATOM     34  C   UNL     1     -36.643 -36.846 -26.149  0.00  0.00    -0.029 A 
ATOM     35  C   UNL     1     -35.669 -37.416 -25.092  0.00  0.00    +0.045 C 
ENDROOT
BRANCH  10   9
ATOM      4  C   UNL     1     -31.967 -37.509 -29.148  0.00  0.00    +0.077 A 
ATOM      5  C   UNL     1     -32.500 -38.761 -29.603  0.00  0.00    +0.048 A 
ATOM      6  C   UNL     1     -33.867 -39.015 -29.349  0.00  0.00    +0.116 A 
ATOM      7  N   UNL     1     -34.633 -38.079 -28.689  0.00  0.00    -0.223 NA
ATOM      8  C   UNL     1     -34.087 -36.883 -28.262  0.00  0.00    +0.220 A 
ATOM      9  N   UNL     1     -34.842 -35.924 -27.603  0.00  0.00    -0.283 N 
ATOM     36  H   UNL     1     -34.400 -35.057 -27.298  0.00  0.00    +0.155 HD
ATOM     37  N   UNL     1     -32.785 -36.617 -28.491  0.00  0.00    -0.214 NA
BRANCH   4   3
ATOM      1  C   UNL     1     -28.489 -35.775 -28.706  0.00  0.00    +0.020 A 
ATOM      2  C   UNL     1     -29.867 -36.142 -28.473  0.00  0.00    +0.013 A 
ATOM      3  C   UNL     1     -30.542 -37.094 -29.345  0.00  0.00    +0.019 A 
ATOM     38  C   UNL     1     -29.789 -37.663 -30.453  0.00  0.00    +0.120 A 
ATOM     39  N   UNL     1     -28.463 -37.289 -30.654  0.00  0.00    -0.263 NA
ATOM     40  C   UNL     1     -27.804 -36.372 -29.822  0.00  0.00    +0.111 A 
ENDBRANCH   4   3
ENDBRANCH  10   9
BRANCH  12  13
ATOM     13  N   UNL     1     -39.585 -35.359 -28.995  0.00  0.00    -0.281 N 
ATOM     14  C   UNL     1     -40.561 -36.101 -29.640  0.00  0.00    +0.248 C 
ATOM     30  O   UNL     1     -40.580 -37.322 -29.691  0.00  0.00    -0.270 OA
ATOM     31  H   UNL     1     -39.579 -34.359 -29.193  0.00  0.00    +0.155 HD
BRANCH  14  15
ATOM     15  C   UNL     1     -41.668 -35.383 -30.341  0.00  0.00    +0.037 A 
ATOM     16  C   UNL     1     -41.751 -33.920 -30.332  0.00  0.00    +0.013 A 
ATOM     17  C   UNL     1     -42.839 -33.253 -31.002  0.00  0.00    +0.005 A 
ATOM     18  C   UNL     1     -43.853 -34.050 -31.689  0.00  0.00    -0.033 A 
ATOM     28  C   UNL     1     -43.744 -35.499 -31.687  0.00  0.00    +0.005 A 
ATOM     29  C   UNL     1     -42.679 -36.157 -31.030  0.00  0.00    +0.013 A 
BRANCH  18  19
ATOM     19  C   UNL     1     -45.060 -33.424 -32.412  0.00  0.00    +0.119 C 
BRANCH  19  20
ATOM     20  N   UNL     1     -46.291 -34.260 -32.539  0.00  0.00    -0.302 NA
ATOM     21  C   UNL     1     -46.667 -34.510 -34.002  0.00  0.00    +0.066 C 
ATOM     22  C   UNL     1     -47.943 -35.406 -34.117  0.00  0.00    -0.064 C 
ATOM     23  N   UNL     1     -49.098 -34.741 -33.367  0.00  0.00    +0.379 N 
ATOM     24  C   UNL     1     -50.315 -35.552 -33.522  0.00  0.00    -0.096 C 
ATOM     25  H   UNL     1     -49.288 -33.752 -33.846  0.00  0.00    -0.082 HD
ATOM     26  C   UNL     1     -48.732 -34.486 -31.912  0.00  0.00    -0.064 C 
ATOM     27  C   UNL     1     -47.446 -33.620 -31.809  0.00  0.00    +0.066 C 
ENDBRANCH  19  20
ENDBRANCH  18  19
ENDBRANCH  14  15
ENDBRANCH  12  13
TORSDOF 6
ENDMDL
MODEL 4
REMARK VINA RESULT:      -6.8     21.410     26.040
REMARK  Name = C:\Users\Docking\Desktop\test protocol\1iep_ligandH.pdb
REMARK  8 active torsions:
REMARK  status: ('A' for Active; 'I' for Inactive)
REMARK    1  A    between atoms: _5  and  _11
REMARK    2  A    between atoms: _19  and  _21
REMARK    3  A    between atoms: _22  and  _66
REMARK    4  A    between atoms: _27  and  _30
REMARK    5  A    between atoms: _32  and  _33
REMARK    6  A    between atoms: _38  and  _43
REMARK    7  A    between atoms: _43  and  _46
REMARK    8  A    between atoms: _53  and  _55
REMARK                            x       y       z     vdW  Elec       q    Type
REMARK                         _______ _______ _______ _____ _____    ______ ____
ROOT
ATOM     10  C   UNL     1     -22.691 -14.799 -30.481  0.00  0.00    +0.038 A 
ATOM     11  C   UNL     1     -23.343 -15.791 -29.705  0.00  0.00    +0.047 A 
ATOM     12  C   UNL     1     -22.658 -16.461 -28.611  0.00  0.00    +0.035 A 
ATOM     32  C   UNL     1     -21.309 -16.094 -28.332  0.00  0.00    +0.024 A 
ATOM     33  C   UNL     1     -20.631 -15.088 -29.111  0.00  0.00    +0.007 A 
ATOM     34  C   UNL     1     -21.300 -14.425 -30.193  0.00  0.00    -0.029 A 
ATOM     35  C   UNL     1     -20.522 -13.359 -30.999  0.00  0.00    +0.045 C 
ENDROOT
BRANCH  10   9
ATOM      4  C   UNL     1     -25.329 -11.210 -32.268  0.00  0.00    +0.077 A 
ATOM      5  C   UNL     1     -25.325 -10.505 -31.019  0.00  0.00    +0.048 A 
ATOM      6  C   UNL     1     -24.638 -11.104 -29.939  0.00  0.00    +0.116 A 
ATOM      7  N   UNL     1     -24.006 -12.317 -30.107  0.00  0.00    -0.223 NA
ATOM      8  C   UNL     1     -24.031 -12.971 -31.326  0.00  0.00    +0.220 A 
ATOM      9  N   UNL     1     -23.396 -14.188 -31.520  0.00  0.00    -0.283 N 
ATOM     36  H   UNL     1     -23.443 -14.641 -32.432  0.00  0.00    +0.155 HD
ATOM     37  N   UNL     1     -24.681 -12.421 -32.372  0.00  0.00    -0.214 NA
BRANCH   4   3
ATOM      1  C   UNL     1     -26.723 -10.928 -35.912  0.00  0.00    +0.020 A 
ATOM      2  C   UNL     1     -26.053 -11.461 -34.748  0.00  0.00    +0.013 A 
ATOM      3  C   UNL     1     -26.008 -10.705 -33.503  0.00  0.00    +0.019 A 
ATOM     38  C   UNL     1     -26.656  -9.402 -33.469  0.00  0.00    +0.120 A 
ATOM     39  N   UNL     1     -27.292  -8.914 -34.606  0.00  0.00    -0.263 NA
ATOM     40  C   UNL     1     -27.341  -9.632 -35.810  0.00  0.00    +0.111 A 
ENDBRANCH   4   3
ENDBRANCH  10   9
BRANCH  12  13
ATOM     13  N   UNL     1     -23.266 -17.482 -27.794  0.00  0.00    -0.281 N 
ATOM     14  C   UNL     1     -23.776 -17.355 -26.512  0.00  0.00    +0.248 C 
ATOM     30  O   UNL     1     -23.593 -16.388 -25.788  0.00  0.00    -0.270 OA
ATOM     31  H   UNL     1     -23.328 -18.411 -28.211  0.00  0.00    +0.155 HD
BRANCH  14  15
ATOM     15  C   UNL     1     -24.597 -18.470 -25.948  0.00  0.00    +0.037 A 
ATOM     16  C   UNL     1     -24.167 -19.866 -26.066  0.00  0.00    +0.013 A 
ATOM     17  C   UNL     1     -24.985 -20.923 -25.529  0.00  0.00    +0.005 A 
ATOM     18  C   UNL     1     -26.244 -20.588 -24.866  0.00  0.00    -0.033 A 
ATOM     28  C   UNL     1     -26.644 -19.195 -24.758  0.00  0.00    +0.005 A 
ATOM     29  C   UNL     1     -25.844 -18.156 -25.285  0.00  0.00    +0.013 A 
BRANCH  18  19
ATOM     19  C   UNL     1     -27.191 -21.653 -24.282  0.00  0.00    +0.119 C 
BRANCH  19  20
ATOM     20  N   UNL     1     -28.272 -22.169 -25.173  0.00  0.00    -0.302 NA
ATOM     21  C   UNL     1     -28.927 -23.433 -24.609  0.00  0.00    +0.066 C 
ATOM     22  C   UNL     1     -30.071 -23.947 -25.542  0.00  0.00    -0.064 C 
ATOM     23  N   UNL     1     -29.507 -24.206 -26.940  0.00  0.00    +0.379 N 
ATOM     24  C   UNL     1     -30.567 -24.744 -27.805  0.00  0.00    -0.096 C 
ATOM     25  H   UNL     1     -28.717 -24.988 -26.846  0.00  0.00    -0.082 HD
ATOM     26  C   UNL     1     -28.852 -22.955 -27.507  0.00  0.00    -0.064 C 
ATOM     27  C   UNL     1     -27.736 -22.436 -26.558  0.00  0.00    +0.066 C 
ENDBRANCH  19  20
ENDBRANCH  18  19
ENDBRANCH  14  15
ENDBRANCH  12  13
TORSDOF 6
ENDMDL
MODEL 5
REMARK VINA RESULT:      -6.5     23.094     28.381
REMARK  Name = C:\Users\Docking\Desktop\test protocol\1iep_ligandH.pdb
REMARK  8 active torsions:
REMARK  status: ('A' for Active; 'I' for Inactive)
REMARK    1  A    between atoms: _5  and  _11
REMARK    2  A    between atoms: _19  and  _21
REMARK    3  A    between atoms: _22  and  _66
REMARK    4  A    between atoms: _27  and  _30
REMARK    5  A    between atoms: _32  and  _33
REMARK    6  A    between atoms: _38  and  _43
REMARK    7  A    between atoms: _43  and  _46
REMARK    8  A    between atoms: _53  and  _55
REMARK                            x       y       z     vdW  Elec       q    Type
REMARK                         _______ _______ _______ _____ _____    ______ ____
ROOT
ATOM     10  C   UNL     1     -23.461 -12.019 -31.852  0.00  0.00    +0.038 A 
ATOM     11  C   UNL     1     -23.664 -13.412 -31.679  0.00  0.00    +0.047 A 
ATOM     12  C   UNL     1     -22.987 -14.146 -30.621  0.00  0.00    +0.035 A 
ATOM     32  C   UNL     1     -22.113 -13.428 -29.754  0.00  0.00    +0.024 A 
ATOM     33  C   UNL     1     -21.895 -12.012 -29.915  0.00  0.00    +0.007 A 
ATOM     34  C   UNL     1     -22.557 -11.283 -30.959  0.00  0.00    -0.029 A 
ATOM     35  C   UNL     1     -22.280  -9.767 -31.089  0.00  0.00    +0.045 C 
ENDROOT
BRANCH  10   9
ATOM      4  C   UNL     1     -27.070  -9.323 -33.508  0.00  0.00    +0.077 A 
ATOM      5  C   UNL     1     -27.676  -9.232 -32.211  0.00  0.00    +0.048 A 
ATOM      6  C   UNL     1     -27.031  -9.900 -31.146  0.00  0.00    +0.116 A 
ATOM      7  N   UNL     1     -25.868 -10.602 -31.372  0.00  0.00    -0.223 NA
ATOM      8  C   UNL     1     -25.310 -10.671 -32.636  0.00  0.00    +0.220 A 
ATOM      9  N   UNL     1     -24.136 -11.364 -32.884  0.00  0.00    -0.283 N 
ATOM     36  H   UNL     1     -23.761 -11.397 -33.832  0.00  0.00    +0.155 HD
ATOM     37  N   UNL     1     -25.907 -10.043 -33.670  0.00  0.00    -0.214 NA
BRANCH   4   3
ATOM      1  C   UNL     1     -27.471  -7.911 -37.134  0.00  0.00    +0.020 A 
ATOM      2  C   UNL     1     -26.884  -8.552 -35.980  0.00  0.00    +0.013 A 
ATOM      3  C   UNL     1     -27.630  -8.669 -34.733  0.00  0.00    +0.019 A 
ATOM     38  C   UNL     1     -28.978  -8.124 -34.687  0.00  0.00    +0.120 A 
ATOM     39  N   UNL     1     -29.517  -7.511 -35.814  0.00  0.00    -0.263 NA
ATOM     40  C   UNL     1     -28.808  -7.391 -37.019  0.00  0.00    +0.111 A 
ENDBRANCH   4   3
ENDBRANCH  10   9
BRANCH  12  13
ATOM     13  N   UNL     1     -23.148 -15.562 -30.402  0.00  0.00    -0.281 N 
ATOM     14  C   UNL     1     -22.224 -16.568 -30.628  0.00  0.00    +0.248 C 
ATOM     30  O   UNL     1     -21.186 -16.425 -31.258  0.00  0.00    -0.270 OA
ATOM     31  H   UNL     1     -24.053 -15.858 -30.037  0.00  0.00    +0.155 HD
BRANCH  14  15
ATOM     15  C   UNL     1     -22.498 -17.935 -30.090  0.00  0.00    +0.037 A 
ATOM     16  C   UNL     1     -22.600 -18.178 -28.649  0.00  0.00    +0.013 A 
ATOM     17  C   UNL     1     -22.849 -19.510 -28.155  0.00  0.00    +0.005 A 
ATOM     18  C   UNL     1     -23.000 -20.609 -29.106  0.00  0.00    -0.033 A 
ATOM     28  C   UNL     1     -22.900 -20.339 -30.530  0.00  0.00    +0.005 A 
ATOM     29  C   UNL     1     -22.655 -19.035 -31.018  0.00  0.00    +0.013 A 
BRANCH  18  19
ATOM     19  C   UNL     1     -23.246 -22.065 -28.668  0.00  0.00    +0.119 C 
BRANCH  19  20
ATOM     20  N   UNL     1     -22.145 -23.045 -28.903  0.00  0.00    -0.302 NA
ATOM     21  C   UNL     1     -20.810 -22.352 -29.190  0.00  0.00    +0.066 C 
ATOM     22  C   UNL     1     -19.664 -23.393 -29.411  0.00  0.00    -0.064 C 
ATOM     23  N   UNL     1     -20.045 -24.330 -30.559  0.00  0.00    +0.379 N 
ATOM     24  C   UNL     1     -18.945 -25.272 -30.808  0.00  0.00    -0.096 C 
ATOM     25  H   UNL     1     -20.171 -23.707 -31.475  0.00  0.00    -0.082 HD
ATOM     26  C   UNL     1     -21.372 -25.021 -30.284  0.00  0.00    -0.064 C 
ATOM     27  C   UNL     1     -22.498 -23.978 -30.036  0.00  0.00    +0.066 C 
ENDBRANCH  19  20
ENDBRANCH  18  19
ENDBRANCH  14  15
ENDBRANCH  12  13
TORSDOF 6
ENDMDL
