MODEL 1
REMARK VINA RESULT:      -9.3      0.000      0.000
REMARK  Name = C:\Users\Docking\Desktop\test protocol\1iep_ligandH.pdb
REMARK  8 active torsions:
REMARK  status: ('A' for Active; 'I' for Inactive)
REMARK    1  A    between atoms: _5  and  _11
REMARK    2  A    between atoms: _19  and  _21
REMARK    3  A    between atoms: _22  and  _66
REMARK    4  A    between atoms: _27  and  _30
REMARK    5  A    between atoms: _32  and  _33
REMARK    6  A    between atoms: _38  and  _43
REMARK    7  A    between atoms: _43  and  _46
REMARK    8  A    between atoms: _53  and  _55
REMARK                            x       y       z     vdW  Elec       q    Type
REMARK                         _______ _______ _______ _____ _____    ______ ____
ROOT
ATOM     10  C   UNL     1     -19.866  16.974 -19.555  0.00  0.00    +0.038 A 
ATOM     11  C   UNL     1     -18.625  17.251 -18.926  0.00  0.00    +0.047 A 
ATOM     12  C   UNL     1     -17.962  18.534 -19.102  0.00  0.00    +0.035 A 
ATOM     32  C   UNL     1     -18.593  19.513 -19.922  0.00  0.00    +0.024 A 
ATOM     33  C   UNL     1     -19.854  19.249 -20.570  0.00  0.00    +0.007 A 
ATOM     34  C   UNL     1     -20.511  17.984 -20.402  0.00  0.00    -0.029 A 
ATOM     35  C   UNL     1     -21.858  17.753 -21.125  0.00  0.00    +0.045 C 
ENDROOT
BRANCH  10   9
ATOM      4  C   UNL     1     -21.151  12.603 -21.065  0.00  0.00    +0.077 A 
ATOM      5  C   UNL     1     -20.622  12.836 -22.378  0.00  0.00    +0.048 A 
ATOM      6  C   UNL     1     -20.033  14.097 -22.626  0.00  0.00    +0.116 A 
ATOM      7  N   UNL     1     -19.983  15.046 -21.627  0.00  0.00    -0.223 NA
ATOM      8  C   UNL     1     -20.504  14.789 -20.373  0.00  0.00    +0.220 A 
ATOM      9  N   UNL     1     -20.458  15.725 -19.352  0.00  0.00    -0.283 N 
ATOM     36  H   UNL     1     -20.860  15.500 -18.442  0.00  0.00    +0.155 HD
ATOM     37  N   UNL     1     -21.073  13.593 -20.111  0.00  0.00    -0.214 NA
BRANCH   4   3
ATOM      1  C   UNL     1     -23.078   9.890 -19.009  0.00  0.00    +0.020 A 
ATOM      2  C   UNL     1     -22.466  11.150 -19.363  0.00  0.00    +0.013 A 
ATOM      3  C   UNL     1     -21.800  11.320 -20.648  0.00  0.00    +0.019 A 
ATOM     38  C   UNL     1     -21.772  10.187 -21.560  0.00  0.00    +0.120 A 
ATOM     39  N   UNL     1     -22.369   8.985 -21.192  0.00  0.00    -0.263 NA
ATOM     40  C   UNL     1     -23.011   8.809 -19.957  0.00  0.00    +0.111 A 
ENDBRANCH   4   3
ENDBRANCH  10   9
BRANCH  12  13
ATOM     13  N   UNL     1     -16.697  18.869 -18.495  0.00  0.00    -0.281 N 
ATOM     14  C   UNL     1     -16.453  19.785 -17.486  0.00  0.00    +0.248 C 
ATOM     30  O   UNL     1     -17.261  20.615 -17.096  0.00  0.00    -0.270 OA
ATOM     31  H   UNL     1     -15.883  18.370 -18.854  0.00  0.00    +0.155 HD
BRANCH  14  15
ATOM     15  C   UNL     1     -15.114  19.790 -16.823  0.00  0.00    +0.037 A 
ATOM     16  C   UNL     1     -13.885  19.572 -17.591  0.00  0.00    +0.013 A 
ATOM     17  C   UNL     1     -12.607  19.564 -16.925  0.00  0.00    +0.005 A 
ATOM     18  C   UNL     1     -12.551  19.777 -15.480  0.00  0.00    -0.033 A 
ATOM     28  C   UNL     1     -13.785  19.996 -14.744  0.00  0.00    +0.005 A 
ATOM     29  C   UNL     1     -15.040  20.003 -15.393  0.00  0.00    +0.013 A 
BRANCH  18  19
ATOM     19  C   UNL     1     -11.233  19.764 -14.683  0.00  0.00    +0.119 C 
BRANCH  19  20
ATOM     20  N   UNL     1     -11.153  20.645 -13.480  0.00  0.00    -0.302 NA
ATOM     21  C   UNL     1     -10.827  22.095 -13.850  0.00  0.00    +0.066 C 
ATOM     22  C   UNL     1     -10.770  23.007 -12.581  0.00  0.00    -0.064 C 
ATOM     23  N   UNL     1      -9.733  22.451 -11.604  0.00  0.00    +0.379 N 
ATOM     24  C   UNL     1      -9.635  23.338 -10.436  0.00  0.00    -0.096 C 
ATOM     25  H   UNL     1      -8.744  22.459 -12.119  0.00  0.00    -0.082 HD
ATOM     26  C   UNL     1     -10.048  21.009 -11.233  0.00  0.00    -0.064 C 
ATOM     27  C   UNL     1     -10.132  20.117 -12.503  0.00  0.00    +0.066 C 
ENDBRANCH  19  20
ENDBRANCH  18  19
ENDBRANCH  14  15
ENDBRANCH  12  13
TORSDOF 6
ENDMDL
MODEL 2
REMARK VINA RESULT:      -9.0      1.765      2.676
REMARK  Name = C:\Users\Docking\Desktop\test protocol\1iep_ligandH.pdb
REMARK  8 active torsions:
REMARK  status: ('A' for Active; 'I' for Inactive)
REMARK    1  A    between atoms: _5  and  _11
REMARK    2  A    between atoms: _19  and  _21
REMARK    3  A    between atoms: _22  and  _66
REMARK    4  A    between atoms: _27  and  _30
REMARK    5  A    between atoms: _32  and  _33
REMARK    6  A    between atoms: _38  and  _43
REMARK    7  A    between atoms: _43  and  _46
REMARK    8  A    between atoms: _53  and  _55
REMARK                            x       y       z     vdW  Elec       q    Type
REMARK                         _______ _______ _______ _____ _____    ______ ____
ROOT
ATOM     10  C   UNL     1     -20.000  17.099 -19.519  0.00  0.00    +0.038 A 
ATOM     11  C   UNL     1     -18.737  17.376 -18.937  0.00  0.00    +0.047 A 
ATOM     12  C   UNL     1     -18.097  18.671 -19.108  0.00  0.00    +0.035 A 
ATOM     32  C   UNL     1     -18.773  19.663 -19.877  0.00  0.00    +0.024 A 
ATOM     33  C   UNL     1     -20.057  19.398 -20.477  0.00  0.00    +0.007 A 
ATOM     34  C   UNL     1     -20.692  18.121 -20.314  0.00  0.00    -0.029 A 
ATOM     35  C   UNL     1     -22.066  17.891 -20.985  0.00  0.00    +0.045 C 
ENDROOT
BRANCH  10   9
ATOM      4  C   UNL     1     -21.131  12.684 -21.025  0.00  0.00    +0.077 A 
ATOM      5  C   UNL     1     -20.565  12.918 -22.323  0.00  0.00    +0.048 A 
ATOM      6  C   UNL     1     -19.999  14.190 -22.565  0.00  0.00    +0.116 A 
ATOM      7  N   UNL     1     -20.004  15.149 -21.575  0.00  0.00    -0.223 NA
ATOM      8  C   UNL     1     -20.560  14.892 -20.335  0.00  0.00    +0.220 A 
ATOM      9  N   UNL     1     -20.569  15.839 -19.323  0.00  0.00    -0.283 N 
ATOM     36  H   UNL     1     -20.995  15.613 -18.424  0.00  0.00    +0.155 HD
ATOM     37  N   UNL     1     -21.108  13.685 -20.080  0.00  0.00    -0.214 NA
BRANCH   4   3
ATOM      1  C   UNL     1     -22.998   9.925 -18.976  0.00  0.00    +0.020 A 
ATOM      2  C   UNL     1     -22.402  11.195 -19.321  0.00  0.00    +0.013 A 
ATOM      3  C   UNL     1     -21.763  11.390 -20.616  0.00  0.00    +0.019 A 
ATOM     38  C   UNL     1     -21.745  10.272 -21.547  0.00  0.00    +0.120 A 
ATOM     39  N   UNL     1     -22.326   9.060 -21.187  0.00  0.00    -0.263 NA
ATOM     40  C   UNL     1     -22.942   8.860 -19.942  0.00  0.00    +0.111 A 
ENDBRANCH   4   3
ENDBRANCH  10   9
BRANCH  12  13
ATOM     13  N   UNL     1     -16.811  19.007 -18.548  0.00  0.00    -0.281 N 
ATOM     14  C   UNL     1     -16.543  19.823 -17.461  0.00  0.00    +0.248 C 
ATOM     30  O   UNL     1     -17.361  20.563 -16.934  0.00  0.00    -0.270 OA
ATOM     31  H   UNL     1     -16.001  18.593 -19.008  0.00  0.00    +0.155 HD
BRANCH  14  15
ATOM     15  C   UNL     1     -15.164  19.829 -16.885  0.00  0.00    +0.037 A 
ATOM     16  C   UNL     1     -13.985  19.644 -17.735  0.00  0.00    +0.013 A 
ATOM     17  C   UNL     1     -12.667  19.637 -17.152  0.00  0.00    +0.005 A 
ATOM     18  C   UNL     1     -12.521  19.817 -15.709  0.00  0.00    -0.033 A 
ATOM     28  C   UNL     1     -13.708  20.005 -14.890  0.00  0.00    +0.005 A 
ATOM     29  C   UNL     1     -15.001  20.011 -15.459  0.00  0.00    +0.013 A 
BRANCH  18  19
ATOM     19  C   UNL     1     -11.155  19.803 -14.998  0.00  0.00    +0.119 C 
BRANCH  19  20
ATOM     20  N   UNL     1     -10.335  18.561 -15.120  0.00  0.00    -0.302 NA
ATOM     21  C   UNL     1      -9.364  18.397 -13.947  0.00  0.00    +0.066 C 
ATOM     22  C   UNL     1      -8.529  17.081 -14.078  0.00  0.00    -0.064 C 
ATOM     23  N   UNL     1      -7.775  17.090 -15.409  0.00  0.00    +0.379 N 
ATOM     24  C   UNL     1      -6.944  15.881 -15.510  0.00  0.00    -0.096 C 
ATOM     25  H   UNL     1      -7.092  17.971 -15.404  0.00  0.00    -0.082 HD
ATOM     26  C   UNL     1      -8.733  17.255 -16.580  0.00  0.00    -0.064 C 
ATOM     27  C   UNL     1      -9.578  18.550 -16.425  0.00  0.00    +0.066 C 
ENDBRANCH  19  20
ENDBRANCH  18  19
ENDBRANCH  14  15
ENDBRANCH  12  13
TORSDOF 6
ENDMDL
MODEL 3
REMARK VINA RESULT:      -8.8      3.125     13.764
REMARK  Name = C:\Users\Docking\Desktop\test protocol\1iep_ligandH.pdb
REMARK  8 active torsions:
REMARK  status: ('A' for Active; 'I' for Inactive)
REMARK    1  A    between atoms: _5  and  _11
REMARK    2  A    between atoms: _19  and  _21
REMARK    3  A    between atoms: _22  and  _66
REMARK    4  A    between atoms: _27  and  _30
REMARK    5  A    between atoms: _32  and  _33
REMARK    6  A    between atoms: _38  and  _43
REMARK    7  A    between atoms: _43  and  _46
REMARK    8  A    between atoms: _53  and  _55
REMARK                            x       y       z     vdW  Elec       q    Type
REMARK                         _______ _______ _______ _____ _____    ______ ____
ROOT
ATOM     10  C   UNL     1     -18.456  16.808 -20.354  0.00  0.00    +0.038 A 
ATOM     11  C   UNL     1     -19.130  15.634 -19.932  0.00  0.00    +0.047 A 
ATOM     12  C   UNL     1     -20.100  14.972 -20.791  0.00  0.00    +0.035 A 
ATOM     32  C   UNL     1     -20.356  15.532 -22.077  0.00  0.00    +0.024 A 
ATOM     33  C   UNL     1     -19.681  16.726 -22.522  0.00  0.00    +0.007 A 
ATOM     34  C   UNL     1     -18.725  17.384 -21.677  0.00  0.00    -0.029 A 
ATOM     35  C   UNL     1     -18.036  18.665 -22.204  0.00  0.00    +0.045 C 
ENDROOT
BRANCH  10   9
ATOM      4  C   UNL     1     -17.232  20.117 -17.100  0.00  0.00    +0.077 A 
ATOM      5  C   UNL     1     -18.528  20.730 -17.149  0.00  0.00    +0.048 A 
ATOM      6  C   UNL     1     -19.479  20.168 -18.029  0.00  0.00    +0.116 A 
ATOM      7  N   UNL     1     -19.148  19.074 -18.799  0.00  0.00    -0.223 NA
ATOM      8  C   UNL     1     -17.888  18.508 -18.729  0.00  0.00    +0.220 A 
ATOM      9  N   UNL     1     -17.535  17.403 -19.488  0.00  0.00    -0.283 N 
ATOM     36  H   UNL     1     -16.594  17.019 -19.414  0.00  0.00    +0.155 HD
ATOM     37  N   UNL     1     -16.961  19.027 -17.897  0.00  0.00    -0.214 NA
BRANCH   4   3
ATOM      1  C   UNL     1     -14.102  20.204 -14.755  0.00  0.00    +0.020 A 
ATOM      2  C   UNL     1     -15.157  19.692 -15.599  0.00  0.00    +0.013 A 
ATOM      3  C   UNL     1     -16.121  20.594 -16.217  0.00  0.00    +0.019 A 
ATOM     38  C   UNL     1     -15.989  22.020 -15.958  0.00  0.00    +0.120 A 
ATOM     39  N   UNL     1     -14.964  22.484 -15.139  0.00  0.00    -0.263 NA
ATOM     40  C   UNL     1     -14.031  21.625 -14.538  0.00  0.00    +0.111 A 
ENDBRANCH   4   3
ENDBRANCH  10   9
BRANCH  12  13
ATOM     13  N   UNL     1     -20.821  13.782 -20.413  0.00  0.00    -0.281 N 
ATOM     14  C   UNL     1     -21.008  12.628 -21.155  0.00  0.00    +0.248 C 
ATOM     30  O   UNL     1     -20.762  12.526 -22.348  0.00  0.00    -0.270 OA
ATOM     31  H   UNL     1     -21.245  13.793 -19.485  0.00  0.00    +0.155 HD
BRANCH  14  15
ATOM     15  C   UNL     1     -21.561  11.416 -20.478  0.00  0.00    +0.037 A 
ATOM     16  C   UNL     1     -21.179  10.067 -20.903  0.00  0.00    +0.013 A 
ATOM     17  C   UNL     1     -21.741   8.914 -20.244  0.00  0.00    +0.005 A 
ATOM     18  C   UNL     1     -22.691   9.107 -19.151  0.00  0.00    -0.033 A 
ATOM     28  C   UNL     1     -23.049  10.457 -18.747  0.00  0.00    +0.005 A 
ATOM     29  C   UNL     1     -22.501  11.588 -19.391  0.00  0.00    +0.013 A 
BRANCH  18  19
ATOM     19  C   UNL     1     -23.357   7.935 -18.405  0.00  0.00    +0.119 C 
BRANCH  19  20
ATOM     20  N   UNL     1     -23.356   6.605 -19.083  0.00  0.00    -0.302 NA
ATOM     21  C   UNL     1     -24.414   6.522 -20.187  0.00  0.00    +0.066 C 
ATOM     22  C   UNL     1     -24.385   5.131 -20.901  0.00  0.00    -0.064 C 
ATOM     23  N   UNL     1     -24.595   4.025 -19.865  0.00  0.00    +0.379 N 
ATOM     24  C   UNL     1     -24.625   2.720 -20.541  0.00  0.00    -0.096 C 
ATOM     25  H   UNL     1     -25.593   4.187 -19.396  0.00  0.00    -0.082 HD
ATOM     26  C   UNL     1     -23.548   4.102 -18.762  0.00  0.00    -0.064 C 
ATOM     27  C   UNL     1     -23.566   5.498 -18.079  0.00  0.00    +0.066 C 
ENDBRANCH  19  20
ENDBRANCH  18  19
ENDBRANCH  14  15
ENDBRANCH  12  13
TORSDOF 6
ENDMDL
MODEL 4
REMARK VINA RESULT:      -8.7     23.110     27.603
REMARK  Name = C:\Users\Docking\Desktop\test protocol\1iep_ligandH.pdb
REMARK  8 active torsions:
REMARK  status: ('A' for Active; 'I' for Inactive)
REMARK    1  A    between atoms: _5  and  _11
REMARK    2  A    between atoms: _19  and  _21
REMARK    3  A    between atoms: _22  and  _66
REMARK    4  A    between atoms: _27  and  _30
REMARK    5  A    between atoms: _32  and  _33
REMARK    6  A    between atoms: _38  and  _43
REMARK    7  A    between atoms: _43  and  _46
REMARK    8  A    between atoms: _53  and  _55
REMARK                            x       y       z     vdW  Elec       q    Type
REMARK                         _______ _______ _______ _____ _____    ______ ____
ROOT
ATOM     10  C   UNL     1      -5.053   2.417   0.899  0.00  0.00    +0.038 A 
ATOM     11  C   UNL     1      -6.375   2.840   0.612  0.00  0.00    +0.047 A 
ATOM     12  C   UNL     1      -7.521   2.006   0.941  0.00  0.00    +0.035 A 
ATOM     32  C   UNL     1      -7.282   0.746   1.564  0.00  0.00    +0.024 A 
ATOM     33  C   UNL     1      -5.943   0.299   1.861  0.00  0.00    +0.007 A 
ATOM     34  C   UNL     1      -4.810   1.117   1.537  0.00  0.00    -0.029 A 
ATOM     35  C   UNL     1      -3.397   0.585   1.873  0.00  0.00    +0.045 C 
ENDROOT
BRANCH  10   9
ATOM      4  C   UNL     1      -1.389   3.682  -1.933  0.00  0.00    +0.077 A 
ATOM      5  C   UNL     1      -1.593   2.556  -2.799  0.00  0.00    +0.048 A 
ATOM      6  C   UNL     1      -2.646   1.671  -2.476  0.00  0.00    +0.116 A 
ATOM      7  N   UNL     1      -3.432   1.905  -1.368  0.00  0.00    -0.223 NA
ATOM      8  C   UNL     1      -3.208   2.999  -0.554  0.00  0.00    +0.220 A 
ATOM      9  N   UNL     1      -3.990   3.258   0.561  0.00  0.00    -0.283 N 
ATOM     36  H   UNL     1      -3.788   4.072   1.141  0.00  0.00    +0.155 HD
ATOM     37  N   UNL     1      -2.207   3.858  -0.839  0.00  0.00    -0.214 NA
BRANCH   4   3
ATOM      1  C   UNL     1       2.062   5.521  -1.973  0.00  0.00    +0.020 A 
ATOM      2  C   UNL     1       1.067   4.498  -1.747  0.00  0.00    +0.013 A 
ATOM      3  C   UNL     1      -0.319   4.707  -2.144  0.00  0.00    +0.019 A 
ATOM     38  C   UNL     1      -0.669   5.972  -2.772  0.00  0.00    +0.120 A 
ATOM     39  N   UNL     1       0.310   6.939  -2.976  0.00  0.00    -0.263 NA
ATOM     40  C   UNL     1       1.648   6.750  -2.597  0.00  0.00    +0.111 A 
ENDBRANCH   4   3
ENDBRANCH  10   9
BRANCH  12  13
ATOM     13  N   UNL     1      -8.886   2.380   0.667  0.00  0.00    -0.281 N 
ATOM     14  C   UNL     1      -9.987   1.549   0.541  0.00  0.00    +0.248 C 
ATOM     30  O   UNL     1      -9.927   0.333   0.432  0.00  0.00    -0.270 OA
ATOM     31  H   UNL     1      -9.062   3.378   0.553  0.00  0.00    +0.155 HD
BRANCH  14  15
ATOM     15  C   UNL     1     -11.352   2.158   0.517  0.00  0.00    +0.037 A 
ATOM     16  C   UNL     1     -11.548   3.570   0.181  0.00  0.00    +0.013 A 
ATOM     17  C   UNL     1     -12.874   4.136   0.182  0.00  0.00    +0.005 A 
ATOM     18  C   UNL     1     -14.015   3.288   0.519  0.00  0.00    -0.033 A 
ATOM     28  C   UNL     1     -13.792   1.889   0.844  0.00  0.00    +0.005 A 
ATOM     29  C   UNL     1     -12.494   1.331   0.845  0.00  0.00    +0.013 A 
BRANCH  18  19
ATOM     19  C   UNL     1     -15.462   3.813   0.566  0.00  0.00    +0.119 C 
BRANCH  19  20
ATOM     20  N   UNL     1     -16.556   2.798   0.622  0.00  0.00    -0.302 NA
ATOM     21  C   UNL     1     -17.377   2.766  -0.671  0.00  0.00    +0.066 C 
ATOM     22  C   UNL     1     -18.502   1.683  -0.604  0.00  0.00    -0.064 C 
ATOM     23  N   UNL     1     -19.401   1.960   0.602  0.00  0.00    +0.379 N 
ATOM     24  C   UNL     1     -20.495   0.978   0.634  0.00  0.00    -0.096 C 
ATOM     25  H   UNL     1     -19.856   2.968   0.460  0.00  0.00    -0.082 HD
ATOM     26  C   UNL     1     -18.593   1.996   1.891  0.00  0.00    -0.064 C 
ATOM     27  C   UNL     1     -17.459   3.055   1.803  0.00  0.00    +0.066 C 
ENDBRANCH  19  20
ENDBRANCH  18  19
ENDBRANCH  14  15
ENDBRANCH  12  13
TORSDOF 6
ENDMDL
MODEL 5
REMARK VINA RESULT:      -8.6     10.185     15.156
REMARK  Name = C:\Users\Docking\Desktop\test protocol\1iep_ligandH.pdb
REMARK  8 active torsions:
REMARK  status: ('A' for Active; 'I' for Inactive)
REMARK    1  A    between atoms: _5  and  _11
REMARK    2  A    between atoms: _19  and  _21
REMARK    3  A    between atoms: _22  and  _66
REMARK    4  A    between atoms: _27  and  _30
REMARK    5  A    between atoms: _32  and  _33
REMARK    6  A    between atoms: _38  and  _43
REMARK    7  A    between atoms: _43  and  _46
REMARK    8  A    between atoms: _53  and  _55
REMARK                            x       y       z     vdW  Elec       q    Type
REMARK                         _______ _______ _______ _____ _____    ______ ____
ROOT
ATOM     10  C   UNL     1      -9.373  25.674 -12.255  0.00  0.00    +0.038 A 
ATOM     11  C   UNL     1      -9.337  24.345 -12.749  0.00  0.00    +0.047 A 
ATOM     12  C   UNL     1      -9.451  23.205 -11.852  0.00  0.00    +0.035 A 
ATOM     32  C   UNL     1      -9.603  23.456 -10.457  0.00  0.00    +0.024 A 
ATOM     33  C   UNL     1      -9.640  24.800  -9.937  0.00  0.00    +0.007 A 
ATOM     34  C   UNL     1      -9.526  25.928 -10.817  0.00  0.00    -0.029 A 
ATOM     35  C   UNL     1      -9.565  27.347 -10.204  0.00  0.00    +0.045 C 
ENDROOT
BRANCH  10   9
ATOM      4  C   UNL     1     -11.285  29.029 -15.106  0.00  0.00    +0.077 A 
ATOM      5  C   UNL     1     -12.623  28.624 -14.784  0.00  0.00    +0.048 A 
ATOM      6  C   UNL     1     -12.776  27.544 -13.886  0.00  0.00    +0.116 A 
ATOM      7  N   UNL     1     -11.666  26.922 -13.355  0.00  0.00    -0.223 NA
ATOM      8  C   UNL     1     -10.390  27.336 -13.688  0.00  0.00    +0.220 A 
ATOM      9  N   UNL     1      -9.260  26.731 -13.161  0.00  0.00    -0.283 N 
ATOM     36  H   UNL     1      -8.335  27.061 -13.437  0.00  0.00    +0.155 HD
ATOM     37  N   UNL     1     -10.217  28.365 -14.545  0.00  0.00    -0.214 NA
BRANCH   4   3
ATOM      1  C   UNL     1      -9.352  31.518 -17.422  0.00  0.00    +0.020 A 
ATOM      2  C   UNL     1      -9.612  30.416 -16.525  0.00  0.00    +0.013 A 
ATOM      3  C   UNL     1     -10.960  30.156 -16.036  0.00  0.00    +0.019 A 
ATOM     38  C   UNL     1     -12.032  31.035 -16.480  0.00  0.00    +0.120 A 
ATOM     39  N   UNL     1     -11.751  32.089 -17.344  0.00  0.00    -0.263 NA
ATOM     40  C   UNL     1     -10.458  32.350 -17.819  0.00  0.00    +0.111 A 
ENDBRANCH   4   3
ENDBRANCH  10   9
BRANCH  12  13
ATOM     13  N   UNL     1      -9.413  21.834 -12.295  0.00  0.00    -0.281 N 
ATOM     14  C   UNL     1     -10.367  21.150 -13.031  0.00  0.00    +0.248 C 
ATOM     30  O   UNL     1     -11.501  21.556 -13.239  0.00  0.00    -0.270 OA
ATOM     31  H   UNL     1      -8.583  21.302 -12.035  0.00  0.00    +0.155 HD
BRANCH  14  15
ATOM     15  C   UNL     1     -10.016  19.817 -13.608  0.00  0.00    +0.037 A 
ATOM     16  C   UNL     1     -10.315  19.490 -15.004  0.00  0.00    +0.013 A 
ATOM     17  C   UNL     1      -9.980  18.190 -15.530  0.00  0.00    +0.005 A 
ATOM     18  C   UNL     1      -9.341  17.208 -14.659  0.00  0.00    -0.033 A 
ATOM     28  C   UNL     1      -9.050  17.560 -13.279  0.00  0.00    +0.005 A 
ATOM     29  C   UNL     1      -9.378  18.833 -12.759  0.00  0.00    +0.013 A 
BRANCH  18  19
ATOM     19  C   UNL     1      -8.968  15.789 -15.129  0.00  0.00    +0.119 C 
BRANCH  19  20
ATOM     20  N   UNL     1      -7.650  15.620 -15.811  0.00  0.00    -0.302 NA
ATOM     21  C   UNL     1      -6.516  16.313 -15.051  0.00  0.00    +0.066 C 
ATOM     22  C   UNL     1      -5.141  16.106 -15.766  0.00  0.00    -0.064 C 
ATOM     23  N   UNL     1      -5.231  16.631 -17.200  0.00  0.00    +0.379 N 
ATOM     24  C   UNL     1      -3.923  16.491 -17.857  0.00  0.00    -0.096 C 
ATOM     25  H   UNL     1      -5.469  17.719 -17.147  0.00  0.00    -0.082 HD
ATOM     26  C   UNL     1      -6.358  15.948 -17.962  0.00  0.00    -0.064 C 
ATOM     27  C   UNL     1      -7.715  16.135 -17.228  0.00  0.00    +0.066 C 
ENDBRANCH  19  20
ENDBRANCH  18  19
ENDBRANCH  14  15
ENDBRANCH  12  13
TORSDOF 6
ENDMDL
