MODEL 1
REMARK VINA RESULT:      -8.9      0.000      0.000
REMARK  Name = C:\Users\Docking\Desktop\test protocol\1iep_ligandH.pdb
REMARK  8 active torsions:
REMARK  status: ('A' for Active; 'I' for Inactive)
REMARK    1  A    between atoms: _5  and  _11
REMARK    2  A    between atoms: _19  and  _21
REMARK    3  A    between atoms: _22  and  _66
REMARK    4  A    between atoms: _27  and  _30
REMARK    5  A    between atoms: _32  and  _33
REMARK    6  A    between atoms: _38  and  _43
REMARK    7  A    between atoms: _43  and  _46
REMARK    8  A    between atoms: _53  and  _55
REMARK                            x       y       z     vdW  Elec       q    Type
REMARK                         _______ _______ _______ _____ _____    ______ ____
ROOT
ATOM     10  C   UNL     1      -4.179  37.831  20.761  0.00  0.00    +0.038 A 
ATOM     11  C   UNL     1      -3.743  36.482  20.796  0.00  0.00    +0.047 A 
ATOM     12  C   UNL     1      -4.680  35.394  21.032  0.00  0.00    +0.035 A 
ATOM     32  C   UNL     1      -6.055  35.717  21.226  0.00  0.00    +0.024 A 
ATOM     33  C   UNL     1      -6.515  37.083  21.195  0.00  0.00    +0.007 A 
ATOM     34  C   UNL     1      -5.595  38.160  20.965  0.00  0.00    -0.029 A 
ATOM     35  C   UNL     1      -6.143  39.606  20.948  0.00  0.00    +0.045 C 
ENDROOT
BRANCH  10   9
ATOM      4  C   UNL     1      -0.958  41.044  22.290  0.00  0.00    +0.077 A 
ATOM      5  C   UNL     1      -1.192  40.712  23.666  0.00  0.00    +0.048 A 
ATOM      6  C   UNL     1      -2.155  39.715  23.938  0.00  0.00    +0.116 A 
ATOM      7  N   UNL     1      -2.827  39.101  22.903  0.00  0.00    -0.223 NA
ATOM      8  C   UNL     1      -2.578  39.445  21.588  0.00  0.00    +0.220 A 
ATOM      9  N   UNL     1      -3.236  38.836  20.531  0.00  0.00    -0.283 N 
ATOM     36  H   UNL     1      -3.029  39.123  19.575  0.00  0.00    +0.155 HD
ATOM     37  N   UNL     1      -1.664  40.396  21.302  0.00  0.00    -0.214 NA
BRANCH   4   3
ATOM      1  C   UNL     1       1.800  42.941  20.266  0.00  0.00    +0.020 A 
ATOM      2  C   UNL     1       0.861  41.914  20.655  0.00  0.00    +0.013 A 
ATOM      3  C   UNL     1       0.031  42.075  21.842  0.00  0.00    +0.019 A 
ATOM     38  C   UNL     1       0.176  43.297  22.620  0.00  0.00    +0.120 A 
ATOM     39  N   UNL     1       1.090  44.268  22.221  0.00  0.00    -0.263 NA
ATOM     40  C   UNL     1       1.895  44.123  21.081  0.00  0.00    +0.111 A 
ENDBRANCH   4   3
ENDBRANCH  10   9
BRANCH  12  13
ATOM     13  N   UNL     1      -4.295  34.006  21.086  0.00  0.00    -0.281 N 
ATOM     14  C   UNL     1      -4.109  33.217  22.210  0.00  0.00    +0.248 C 
ATOM     30  O   UNL     1      -4.038  33.646  23.352  0.00  0.00    -0.270 OA
ATOM     31  H   UNL     1      -4.140  33.549  20.187  0.00  0.00    +0.155 HD
BRANCH  14  15
ATOM     15  C   UNL     1      -3.967  31.739  22.038  0.00  0.00    +0.037 A 
ATOM     16  C   UNL     1      -2.779  31.158  21.407  0.00  0.00    +0.013 A 
ATOM     17  C   UNL     1      -2.675  29.730  21.239  0.00  0.00    +0.005 A 
ATOM     18  C   UNL     1      -3.762  28.873  21.705  0.00  0.00    -0.033 A 
ATOM     28  C   UNL     1      -4.927  29.476  22.332  0.00  0.00    +0.005 A 
ATOM     29  C   UNL     1      -5.033  30.875  22.498  0.00  0.00    +0.013 A 
BRANCH  18  19
ATOM     19  C   UNL     1      -3.746  27.341  21.548  0.00  0.00    +0.119 C 
BRANCH  19  20
ATOM     20  N   UNL     1      -3.157  26.545  22.666  0.00  0.00    -0.302 NA
ATOM     21  C   UNL     1      -2.006  25.653  22.192  0.00  0.00    +0.066 C 
ATOM     22  C   UNL     1      -1.387  24.844  23.378  0.00  0.00    -0.064 C 
ATOM     23  N   UNL     1      -2.480  24.009  24.048  0.00  0.00    +0.379 N 
ATOM     24  C   UNL     1      -1.890  23.203  25.127  0.00  0.00    -0.096 C 
ATOM     25  H   UNL     1      -2.884  23.306  23.283  0.00  0.00    -0.082 HD
ATOM     26  C   UNL     1      -3.630  24.888  24.519  0.00  0.00    -0.064 C 
ATOM     27  C   UNL     1      -4.218  25.709  23.338  0.00  0.00    +0.066 C 
ENDBRANCH  19  20
ENDBRANCH  18  19
ENDBRANCH  14  15
ENDBRANCH  12  13
TORSDOF 6
ENDMDL
MODEL 2
REMARK VINA RESULT:      -8.3     23.836     25.832
REMARK  Name = C:\Users\Docking\Desktop\test protocol\1iep_ligandH.pdb
REMARK  8 active torsions:
REMARK  status: ('A' for Active; 'I' for Inactive)
REMARK    1  A    between atoms: _5  and  _11
REMARK    2  A    between atoms: _19  and  _21
REMARK    3  A    between atoms: _22  and  _66
REMARK    4  A    between atoms: _27  and  _30
REMARK    5  A    between atoms: _32  and  _33
REMARK    6  A    between atoms: _38  and  _43
REMARK    7  A    between atoms: _43  and  _46
REMARK    8  A    between atoms: _53  and  _55
REMARK                            x       y       z     vdW  Elec       q    Type
REMARK                         _______ _______ _______ _____ _____    ______ ____
ROOT
ATOM     10  C   UNL     1      21.395  24.595  19.936  0.00  0.00    +0.038 A 
ATOM     11  C   UNL     1      20.309  24.009  20.635  0.00  0.00    +0.047 A 
ATOM     12  C   UNL     1      20.531  23.152  21.788  0.00  0.00    +0.035 A 
ATOM     32  C   UNL     1      21.874  22.914  22.205  0.00  0.00    +0.024 A 
ATOM     33  C   UNL     1      22.990  23.501  21.506  0.00  0.00    +0.007 A 
ATOM     34  C   UNL     1      22.777  24.346  20.366  0.00  0.00    -0.029 A 
ATOM     35  C   UNL     1      24.011  24.943  19.650  0.00  0.00    +0.045 C 
ENDROOT
BRANCH  10   9
ATOM      4  C   UNL     1      20.382  25.231  15.288  0.00  0.00    +0.077 A 
ATOM      5  C   UNL     1      20.423  23.822  15.025  0.00  0.00    +0.048 A 
ATOM      6  C   UNL     1      20.715  22.967  16.112  0.00  0.00    +0.116 A 
ATOM      7  N   UNL     1      20.947  23.494  17.364  0.00  0.00    -0.223 NA
ATOM      8  C   UNL     1      20.902  24.859  17.582  0.00  0.00    +0.220 A 
ATOM      9  N   UNL     1      21.124  25.411  18.835  0.00  0.00    -0.283 N 
ATOM     36  H   UNL     1      21.090  26.423  18.953  0.00  0.00    +0.155 HD
ATOM     37  N   UNL     1      20.626  25.696  16.561  0.00  0.00    -0.214 NA
BRANCH   4   3
ATOM      1  C   UNL     1      18.859  28.299  13.397  0.00  0.00    +0.020 A 
ATOM      2  C   UNL     1      19.110  27.328  14.438  0.00  0.00    +0.013 A 
ATOM      3  C   UNL     1      20.084  26.262  14.243  0.00  0.00    +0.019 A 
ATOM     38  C   UNL     1      20.793  26.204  12.974  0.00  0.00    +0.120 A 
ATOM     39  N   UNL     1      20.530  27.152  11.989  0.00  0.00    -0.263 NA
ATOM     40  C   UNL     1      19.594  28.182  12.165  0.00  0.00    +0.111 A 
ENDBRANCH   4   3
ENDBRANCH  10   9
BRANCH  12  13
ATOM     13  N   UNL     1      19.468  22.523  22.532  0.00  0.00    -0.281 N 
ATOM     14  C   UNL     1      19.577  21.586  23.547  0.00  0.00    +0.248 C 
ATOM     30  O   UNL     1      20.604  20.984  23.825  0.00  0.00    -0.270 OA
ATOM     31  H   UNL     1      18.520  22.802  22.280  0.00  0.00    +0.155 HD
BRANCH  14  15
ATOM     15  C   UNL     1      18.368  21.259  24.361  0.00  0.00    +0.037 A 
ATOM     16  C   UNL     1      17.573  22.313  24.999  0.00  0.00    +0.013 A 
ATOM     17  C   UNL     1      16.421  21.969  25.793  0.00  0.00    +0.005 A 
ATOM     18  C   UNL     1      16.054  20.564  25.953  0.00  0.00    -0.033 A 
ATOM     28  C   UNL     1      16.857  19.539  25.305  0.00  0.00    +0.005 A 
ATOM     29  C   UNL     1      17.988  19.872  24.527  0.00  0.00    +0.013 A 
BRANCH  18  19
ATOM     19  C   UNL     1      14.853  20.104  26.800  0.00  0.00    +0.119 C 
BRANCH  19  20
ATOM     20  N   UNL     1      14.969  20.242  28.282  0.00  0.00    -0.302 NA
ATOM     21  C   UNL     1      16.158  19.456  28.842  0.00  0.00    +0.066 C 
ATOM     22  C   UNL     1      16.277  19.630  30.391  0.00  0.00    -0.064 C 
ATOM     23  N   UNL     1      14.973  19.183  31.053  0.00  0.00    +0.379 N 
ATOM     24  C   UNL     1      15.102  19.291  32.514  0.00  0.00    -0.096 C 
ATOM     25  H   UNL     1      14.819  18.107  30.806  0.00  0.00    -0.082 HD
ATOM     26  C   UNL     1      13.785  19.958  30.501  0.00  0.00    -0.064 C 
ATOM     27  C   UNL     1      13.693  19.802  28.957  0.00  0.00    +0.066 C 
ENDBRANCH  19  20
ENDBRANCH  18  19
ENDBRANCH  14  15
ENDBRANCH  12  13
TORSDOF 6
ENDMDL
MODEL 3
REMARK VINA RESULT:      -8.1     18.900     23.762
REMARK  Name = C:\Users\Docking\Desktop\test protocol\1iep_ligandH.pdb
REMARK  8 active torsions:
REMARK  status: ('A' for Active; 'I' for Inactive)
REMARK    1  A    between atoms: _5  and  _11
REMARK    2  A    between atoms: _19  and  _21
REMARK    3  A    between atoms: _22  and  _66
REMARK    4  A    between atoms: _27  and  _30
REMARK    5  A    between atoms: _32  and  _33
REMARK    6  A    between atoms: _38  and  _43
REMARK    7  A    between atoms: _43  and  _46
REMARK    8  A    between atoms: _53  and  _55
REMARK                            x       y       z     vdW  Elec       q    Type
REMARK                         _______ _______ _______ _____ _____    ______ ____
ROOT
ATOM     10  C   UNL     1      16.861  34.510  15.435  0.00  0.00    +0.038 A 
ATOM     11  C   UNL     1      16.716  35.893  15.715  0.00  0.00    +0.047 A 
ATOM     12  C   UNL     1      16.208  36.352  16.999  0.00  0.00    +0.035 A 
ATOM     32  C   UNL     1      15.860  35.374  17.976  0.00  0.00    +0.024 A 
ATOM     33  C   UNL     1      16.000  33.964  17.708  0.00  0.00    +0.007 A 
ATOM     34  C   UNL     1      16.498  33.506  16.443  0.00  0.00    -0.029 A 
ATOM     35  C   UNL     1      16.622  31.983  16.208  0.00  0.00    +0.045 C 
ENDROOT
BRANCH  10   9
ATOM      4  C   UNL     1      16.246  32.903  10.955  0.00  0.00    +0.077 A 
ATOM      5  C   UNL     1      14.825  32.794  11.126  0.00  0.00    +0.048 A 
ATOM      6  C   UNL     1      14.294  33.155  12.384  0.00  0.00    +0.116 A 
ATOM      7  N   UNL     1      15.130  33.591  13.389  0.00  0.00    -0.223 NA
ATOM      8  C   UNL     1      16.495  33.683  13.192  0.00  0.00    +0.220 A 
ATOM      9  N   UNL     1      17.353  34.126  14.186  0.00  0.00    -0.283 N 
ATOM     36  H   UNL     1      18.356  34.173  14.003  0.00  0.00    +0.155 HD
ATOM     37  N   UNL     1      17.027  33.343  12.000  0.00  0.00    -0.214 NA
BRANCH   4   3
ATOM      1  C   UNL     1      17.349  32.816   7.203  0.00  0.00    +0.020 A 
ATOM      2  C   UNL     1      16.632  33.180   8.403  0.00  0.00    +0.013 A 
ATOM      3  C   UNL     1      16.957  32.562   9.682  0.00  0.00    +0.019 A 
ATOM     38  C   UNL     1      18.022  31.572   9.713  0.00  0.00    +0.120 A 
ATOM     39  N   UNL     1      18.695  31.240   8.541  0.00  0.00    -0.263 NA
ATOM     40  C   UNL     1      18.390  31.827   7.304  0.00  0.00    +0.111 A 
ENDBRANCH   4   3
ENDBRANCH  10   9
BRANCH  12  13
ATOM     13  N   UNL     1      16.031  37.742  17.337  0.00  0.00    -0.281 N 
ATOM     14  C   UNL     1      16.990  38.742  17.358  0.00  0.00    +0.248 C 
ATOM     30  O   UNL     1      18.194  38.546  17.295  0.00  0.00    -0.270 OA
ATOM     31  H   UNL     1      15.084  38.024  17.592  0.00  0.00    +0.155 HD
BRANCH  14  15
ATOM     15  C   UNL     1      16.547  40.164  17.481  0.00  0.00    +0.037 A 
ATOM     16  C   UNL     1      15.674  40.596  18.576  0.00  0.00    +0.013 A 
ATOM     17  C   UNL     1      15.248  41.971  18.662  0.00  0.00    +0.005 A 
ATOM     18  C   UNL     1      15.696  42.924  17.650  0.00  0.00    -0.033 A 
ATOM     28  C   UNL     1      16.567  42.470  16.578  0.00  0.00    +0.005 A 
ATOM     29  C   UNL     1      16.985  41.123  16.490  0.00  0.00    +0.013 A 
BRANCH  18  19
ATOM     19  C   UNL     1      15.274  44.405  17.651  0.00  0.00    +0.119 C 
BRANCH  19  20
ATOM     20  N   UNL     1      14.040  44.765  16.891  0.00  0.00    -0.302 NA
ATOM     21  C   UNL     1      14.349  45.648  15.678  0.00  0.00    +0.066 C 
ATOM     22  C   UNL     1      13.049  45.996  14.882  0.00  0.00    -0.064 C 
ATOM     23  N   UNL     1      12.052  46.686  15.815  0.00  0.00    +0.379 N 
ATOM     24  C   UNL     1      10.852  47.067  15.055  0.00  0.00    -0.096 C 
ATOM     25  H   UNL     1      12.529  47.623  16.186  0.00  0.00    -0.082 HD
ATOM     26  C   UNL     1      11.742  45.816  17.025  0.00  0.00    -0.064 C 
ATOM     27  C   UNL     1      13.043  45.452  17.792  0.00  0.00    +0.066 C 
ENDBRANCH  19  20
ENDBRANCH  18  19
ENDBRANCH  14  15
ENDBRANCH  12  13
TORSDOF 6
ENDMDL
MODEL 4
REMARK VINA RESULT:      -7.9     24.223     29.849
REMARK  Name = C:\Users\Docking\Desktop\test protocol\1iep_ligandH.pdb
REMARK  8 active torsions:
REMARK  status: ('A' for Active; 'I' for Inactive)
REMARK    1  A    between atoms: _5  and  _11
REMARK    2  A    between atoms: _19  and  _21
REMARK    3  A    between atoms: _22  and  _66
REMARK    4  A    between atoms: _27  and  _30
REMARK    5  A    between atoms: _32  and  _33
REMARK    6  A    between atoms: _38  and  _43
REMARK    7  A    between atoms: _43  and  _46
REMARK    8  A    between atoms: _53  and  _55
REMARK                            x       y       z     vdW  Elec       q    Type
REMARK                         _______ _______ _______ _____ _____    ______ ____
ROOT
ATOM     10  C   UNL     1      18.070  20.690  26.466  0.00  0.00    +0.038 A 
ATOM     11  C   UNL     1      19.241  19.895  26.366  0.00  0.00    +0.047 A 
ATOM     12  C   UNL     1      20.040  19.881  25.151  0.00  0.00    +0.035 A 
ATOM     32  C   UNL     1      19.618  20.691  24.056  0.00  0.00    +0.024 A 
ATOM     33  C   UNL     1      18.431  21.504  24.140  0.00  0.00    +0.007 A 
ATOM     34  C   UNL     1      17.637  21.520  25.335  0.00  0.00    -0.029 A 
ATOM     35  C   UNL     1      16.370  22.406  25.367  0.00  0.00    +0.045 C 
ENDROOT
BRANCH  10   9
ATOM      4  C   UNL     1      14.384  19.174  29.141  0.00  0.00    +0.077 A 
ATOM      5  C   UNL     1      13.852  18.387  28.067  0.00  0.00    +0.048 A 
ATOM      6  C   UNL     1      14.552  18.404  26.840  0.00  0.00    +0.116 A 
ATOM      7  N   UNL     1      15.699  19.157  26.709  0.00  0.00    -0.223 NA
ATOM      8  C   UNL     1      16.185  19.907  27.764  0.00  0.00    +0.220 A 
ATOM      9  N   UNL     1      17.341  20.665  27.657  0.00  0.00    -0.283 N 
ATOM     36  H   UNL     1      17.662  21.210  28.456  0.00  0.00    +0.155 HD
ATOM     37  N   UNL     1      15.533  19.908  28.946  0.00  0.00    -0.214 NA
BRANCH   4   3
ATOM      1  C   UNL     1      11.765  19.321  32.042  0.00  0.00    +0.020 A 
ATOM      2  C   UNL     1      12.317  19.240  30.710  0.00  0.00    +0.013 A 
ATOM      3  C   UNL     1      13.759  19.256  30.499  0.00  0.00    +0.019 A 
ATOM     38  C   UNL     1      14.622  19.356  31.667  0.00  0.00    +0.120 A 
ATOM     39  N   UNL     1      14.061  19.434  32.938  0.00  0.00    -0.263 NA
ATOM     40  C   UNL     1      12.675  19.420  33.153  0.00  0.00    +0.111 A 
ENDBRANCH   4   3
ENDBRANCH  10   9
BRANCH  12  13
ATOM     13  N   UNL     1      21.233  19.088  24.988  0.00  0.00    -0.281 N 
ATOM     14  C   UNL     1      22.221  18.835  25.925  0.00  0.00    +0.248 C 
ATOM     30  O   UNL     1      22.336  19.430  26.986  0.00  0.00    -0.270 OA
ATOM     31  H   UNL     1      21.365  18.662  24.071  0.00  0.00    +0.155 HD
BRANCH  14  15
ATOM     15  C   UNL     1      23.237  17.777  25.636  0.00  0.00    +0.037 A 
ATOM     16  C   UNL     1      24.658  18.105  25.503  0.00  0.00    +0.013 A 
ATOM     17  C   UNL     1      25.615  17.068  25.207  0.00  0.00    +0.005 A 
ATOM     18  C   UNL     1      25.152  15.692  25.043  0.00  0.00    -0.033 A 
ATOM     28  C   UNL     1      23.736  15.394  25.185  0.00  0.00    +0.005 A 
ATOM     29  C   UNL     1      22.796  16.408  25.475  0.00  0.00    +0.013 A 
BRANCH  18  19
ATOM     19  C   UNL     1      26.099  14.525  24.705  0.00  0.00    +0.119 C 
BRANCH  19  20
ATOM     20  N   UNL     1      26.661  14.479  23.322  0.00  0.00    -0.302 NA
ATOM     21  C   UNL     1      27.982  15.246  23.213  0.00  0.00    +0.066 C 
ATOM     22  C   UNL     1      28.567  15.169  21.765  0.00  0.00    -0.064 C 
ATOM     23  N   UNL     1      27.539  15.716  20.773  0.00  0.00    +0.379 N 
ATOM     24  C   UNL     1      28.108  15.699  19.417  0.00  0.00    -0.096 C 
ATOM     25  H   UNL     1      27.342  16.779  21.043  0.00  0.00    -0.082 HD
ATOM     26  C   UNL     1      26.222  14.961  20.877  0.00  0.00    -0.064 C 
ATOM     27  C   UNL     1      25.664  15.019  22.326  0.00  0.00    +0.066 C 
ENDBRANCH  19  20
ENDBRANCH  18  19
ENDBRANCH  14  15
ENDBRANCH  12  13
TORSDOF 6
ENDMDL
MODEL 5
REMARK VINA RESULT:      -7.7      1.709      2.175
REMARK  Name = C:\Users\Docking\Desktop\test protocol\1iep_ligandH.pdb
REMARK  8 active torsions:
REMARK  status: ('A' for Active; 'I' for Inactive)
REMARK    1  A    between atoms: _5  and  _11
REMARK    2  A    between atoms: _19  and  _21
REMARK    3  A    between atoms: _22  and  _66
REMARK    4  A    between atoms: _27  and  _30
REMARK    5  A    between atoms: _32  and  _33
REMARK    6  A    between atoms: _38  and  _43
REMARK    7  A    between atoms: _43  and  _46
REMARK    8  A    between atoms: _53  and  _55
REMARK                            x       y       z     vdW  Elec       q    Type
REMARK                         _______ _______ _______ _____ _____    ______ ____
ROOT
ATOM     10  C   UNL     1      -3.583  37.745  21.747  0.00  0.00    +0.038 A 
ATOM     11  C   UNL     1      -3.247  36.371  21.850  0.00  0.00    +0.047 A 
ATOM     12  C   UNL     1      -4.172  35.336  21.417  0.00  0.00    +0.035 A 
ATOM     32  C   UNL     1      -5.431  35.736  20.881  0.00  0.00    +0.024 A 
ATOM     33  C   UNL     1      -5.789  37.128  20.769  0.00  0.00    +0.007 A 
ATOM     34  C   UNL     1      -4.882  38.154  21.197  0.00  0.00    -0.029 A 
ATOM     35  C   UNL     1      -5.321  39.630  21.060  0.00  0.00    +0.045 C 
ENDROOT
BRANCH  10   9
ATOM      4  C   UNL     1      -1.532  40.407  25.174  0.00  0.00    +0.077 A 
ATOM      5  C   UNL     1      -2.398  39.875  26.187  0.00  0.00    +0.048 A 
ATOM      6  C   UNL     1      -3.362  38.924  25.784  0.00  0.00    +0.116 A 
ATOM      7  N   UNL     1      -3.445  38.541  24.463  0.00  0.00    -0.223 NA
ATOM      8  C   UNL     1      -2.596  39.075  23.510  0.00  0.00    +0.220 A 
ATOM      9  N   UNL     1      -2.657  38.698  22.178  0.00  0.00    -0.283 N 
ATOM     36  H   UNL     1      -2.018  39.120  21.505  0.00  0.00    +0.155 HD
ATOM     37  N   UNL     1      -1.668  39.985  23.870  0.00  0.00    -0.214 NA
BRANCH   4   3
ATOM      1  C   UNL     1       1.458  42.333  26.802  0.00  0.00    +0.020 A 
ATOM      2  C   UNL     1       0.440  41.331  26.587  0.00  0.00    +0.013 A 
ATOM      3  C   UNL     1      -0.461  41.417  25.445  0.00  0.00    +0.019 A 
ATOM     38  C   UNL     1      -0.304  42.539  24.531  0.00  0.00    +0.120 A 
ATOM     39  N   UNL     1       0.685  43.490  24.765  0.00  0.00    -0.263 NA
ATOM     40  C   UNL     1       1.557  43.418  25.862  0.00  0.00    +0.111 A 
ENDBRANCH   4   3
ENDBRANCH  10   9
BRANCH  12  13
ATOM     13  N   UNL     1      -3.890  33.925  21.505  0.00  0.00    -0.281 N 
ATOM     14  C   UNL     1      -4.258  33.043  22.508  0.00  0.00    +0.248 C 
ATOM     30  O   UNL     1      -4.707  33.380  23.593  0.00  0.00    -0.270 OA
ATOM     31  H   UNL     1      -3.352  33.527  20.734  0.00  0.00    +0.155 HD
BRANCH  14  15
ATOM     15  C   UNL     1      -4.091  31.576  22.277  0.00  0.00    +0.037 A 
ATOM     16  C   UNL     1      -2.886  31.040  21.637  0.00  0.00    +0.013 A 
ATOM     17  C   UNL     1      -2.758  29.622  21.411  0.00  0.00    +0.005 A 
ATOM     18  C   UNL     1      -3.837  28.730  21.827  0.00  0.00    -0.033 A 
ATOM     28  C   UNL     1      -5.018  29.287  22.465  0.00  0.00    +0.005 A 
ATOM     29  C   UNL     1      -5.148  30.677  22.687  0.00  0.00    +0.013 A 
BRANCH  18  19
ATOM     19  C   UNL     1      -3.794  27.206  21.606  0.00  0.00    +0.119 C 
BRANCH  19  20
ATOM     20  N   UNL     1      -3.187  26.375  22.689  0.00  0.00    -0.302 NA
ATOM     21  C   UNL     1      -2.071  25.469  22.161  0.00  0.00    +0.066 C 
ATOM     22  C   UNL     1      -1.432  24.624  23.310  0.00  0.00    -0.064 C 
ATOM     23  N   UNL     1      -2.521  23.797  23.997  0.00  0.00    +0.379 N 
ATOM     24  C   UNL     1      -1.914  22.958  25.040  0.00  0.00    -0.096 C 
ATOM     25  H   UNL     1      -2.964  23.119  23.231  0.00  0.00    -0.082 HD
ATOM     26  C   UNL     1      -3.636  24.690  24.523  0.00  0.00    -0.064 C 
ATOM     27  C   UNL     1      -4.244  25.547  23.378  0.00  0.00    +0.066 C 
ENDBRANCH  19  20
ENDBRANCH  18  19
ENDBRANCH  14  15
ENDBRANCH  12  13
TORSDOF 6
ENDMDL
